data_image0
_chemical_formula_structural       FeSCFeS2FeSFeS3H2CH2CNCH2CHS2HC2H2CSC3NC3HSHCHSCHSHCHCSFeCH4CFeH2CH2NC2HCH3C7H4C6HCH3CSCH3C6H3C2H5CHSFeS2FeS2FeHFeS3HSHC3FeS2FeS2FeSFeS3H2CHFeCFe2SHCH2S2HCSCHSFeS2FeS2FeSFeS3FeS2FeS2FeSFeS3FeS3FeS2FeS2FeSFeS3CFeNFeS2FeS2FeSFeS3FeS2FeS2Fe2S3C6H4C2HC4H3C9H4C6H4SHC6H4C6H4C6H4C6H4C6H4C6H3C4HCHSH3SCFeC2FeC2HNC3HCHC6H4C6H4C2SC3SH3C4H3C2H4C7H5CHC6H4C3SNC3H5CNH3CHCH2CSH3NC6H8NC3H6CH3CSH2NC6H8NC4HCH3SH5CHC3H2CNC6H8NC6H8C3SCHC2H2CH6NC6H8CH2C3HCHC7H2SC3NC4HFeCH3NHCH2C2HCSH4CH2C2H3C2HNCHCH2CNHS2HCH3C4HCH2CH2SCNHC5HNCHCHFe2HCHSH2NHC4HCSFeH2SHCHCH2CH3CH8CHFeCHCH2NFe2CSCH2NC2HCSH3CH2FeS2H2SHSNHFeHSH2FeCSC2HFeSCHSCNCHSH4SH2C2HC2H3C7H5CFeSHC2H3C5HCH2C4FeH2C2H2CS2CHFeNCH4C2HSHC3SHCSCFeSFeSCSFeS4FeS2FeS2FeSFeS3FeSFeS2FeSFeS3H3CHCNSHCFeS2FeS2FeSFeS3HFeS2FeS2FeSFeS3C2HC3FeSCHCS2FeH2C6H4C3HC2HSH4C6H4C5H4CH2CSCH2C6H4C6H4C6H4C6H4C4H2C6H4C6H6CHSH2C2SH2FeCHFeH3C2HC3HNSC5H2CH2CSH2CSH4SH2FeHCHNC6H8NC5H6C2FeH2CHSHFeCHSFeHC2HSHFeH2NCSHCFeNCNCHFeSCHSH2CHCNC6H7NC4HCH2NH5NC6H8CS2NHCHNCSCFeCFeH2FeCHC2H2C4H4NH3C3HFeCH3CNC2H2C4HSFeH2CSCSCFeCFeCSCNH5C11HCSCSHC2HC2H8CH4CH2CH4C3SH2CH2C5N2CHCH2SH8CSCHC3HC3HCH3C2H2CH3CHC2H2NCHCHFeCHCHSC3H2CFeS2FeS2FeSFeS4HCSFeS2FeS2FeSFeHS2H10CSCNFeH2C2H2FeH3CH2SCHCNSHC2H2SHC2H2CH2C2NHSC2SHCH3C3HCH2N2C2HCSN2H2SC4HC2HSHCNCH4CHNHC2HC3HC2HC10H4C6H2CHC6H4CH2NHC5H3CSH2CHCHFeCHSH3CH4C3SCHSC3HC4SCH5CH2NH2FeC2H2CHCHC2H5C2H2NH2FeC2FeHCHCSC6HCHCHC2H3CHCH2SHC2HC4SCFeS2FeSFeS3H2C2SHS2C3H2CH2CH3C2NFeHNCHC6H4CNCHCFeHC6H6C4H2FeHSC5H2C2H3CH2CHCNC2HCH4NC2FeSCHS2H6CH3CH5SC2NH2SFeCHCH3FeCSC5H2CFeS2FeS2FeSFeS3H4FeSFeS2CSHFeSFeS3CHSHC2H5SHC2HCSH2CFeSCFeS2FeS2FeSFeS3FeS2FeS2FeSFeS3FeS2FeS2FeSFeS3HSFeSCFeS2FeSFeS3FeS2FeS2FeSFeS3C6H4C6H4C3H5C7H4C6H4C6H4C6H4C6H4C6H6CHNC7H2FeH2C3HCNCHCHC2HC3H2C6H4C6H4C2HCHCHCHNH3FeCH3C6H4C6H6NH2CFeSCH3C6H10NC6H10NCSH2CH2CFeC2NC6H8CS3HNCSHCH2CH2C3H4C3HC2NSC5H3C2SHCNC6H8NC6H8NC6H8NC8H2CHCHSC3H3C2H2C2HNHCNCHC2HCHCHCHCHCHC3HC2HC2FeCHCHFeC2FeHCS2H2CHFeS2H2S2NSCSH2C2FeHFeC3H2SC2HCH3CHCH2C2FeSH3CHC3SHSHCSH2C2FeSC2H5C2H5CHC2H3CHC3HSHCNC3H3FeC2H4C2H2NHS2H2CHSCHSHFeC2H4C2HCSHC4SC5HNHCH4C3HCHCFeH2SC2H2CHFeHS2H2FeHSC2HCSC5H3C2H2CHC6NHCHSH4SHCH2CHC2FeHNFeSFeS2FeSFeS3FeSFeS2FeSFeS3FeS2FeS2FeSFeS3HFeCHCHS2FeSFeSFeS2FeS2FeSFeS3FeS2FeHSFeCS2FeS2FeS2FeSFeS3CHFeHSHSFeSFeS2FeHFeS4CH2C2HCHCFeC2H2C2HSH2C7H3C2H5C5H4C7H4C6H3C4HCH2CH3C6H4C6H4C7H3C6H4C6H4C6H4C6H4C6H2CHCH5C3H3CHCHSHCH2C2NCNHC2NH5CH2SHC2H3CNSH2CHCH2CNC6H8C2NC5H5NC6H8CHNHSHFeSC5H2SHCHCSH2C5HSCH2CHCHNHC3HSCH4CH2CNCH3C2H2CHC3SCHCFeHCHCHC2H4CNHNHC3SH2NC6H6CH3CHCH3FeCHCNSH2CHCHCNHNH2CHNH2SCNHC2HCHC2HCHC2HCSC5HC2HCHCSCHFeHCH2C2HCHSH3CH2CSCHCHCH2NCFeCHC2FeCHCFeSHFeS2FeSFeS3CHC2HCHSCHCH2CS2CHFeS2FeSCFeSFeS3H2C5FeS2FeCFeSHSHC2HCNH3C6H2CHC6H6C3HCH2SNHCH5CHCH2CNC2HC2HCH5C6H4CFeHCH3C2HC6H4CH3FeHSHCH2CFeSNCSH5SCHC2HCH5CHCHC4N2HCSHC2NC6H8NC6H4C3HCHCSCHCHCHCHSCHC2H2C2NH2CH2CSH3CH2NCFeS2HSHFeSFeS3FeS2FeS2FeSFeS3FeS2FeS2FeSFeS3CSFeS2FeSFeSFeS4FeSHFeHSNCH3NFeS2FeS2NCFeS3H2FeHC2HSNCH2FeCSFeCS2CHS2HCH3C3H2FeC5HCHCHCH2C4NC3HCH7C3HC2HC2HC3HCH3SHCHCNH2CHC4HSC6H4C2H2CNHCHNC6H5CHCNC6H4C6H4C6H4C6H4C6H5CHC7H4C6HCH2CHC2H2CHC4NHFeCHCH2CH4CHNC6H8FeHC4HCFeCH2CHC2H8NSH3C3H3C4H2CNC6H9SHSNCHC2HCH4CHCH2CH5FeH6SCHSCH5C2FeS2FeS2FeSFeS3HCHFeS2FeSFeS2FeCSC2FeS2FeSFeSFeS3FeS3HFeS2FeSFeSFeSFeS2FeS2FeSFeS2FeS2FeS2FeSFeS3HSFeS2FeSFeS2NFeS2FeS2FeSFeS2FeS2CHNCHS2FeSFeS2NCFeS2FeCFeHS2HCSCH5C7HC5H4C6H3CHCHFeHC7H4C5H2FeC4H2C6H4C6H4C6H4C6H4C6H4C6H5C6H7C4H2C7H2CH3NC8H4C6H4C6H4C6H4C6H3SCH2C3H2CH3NC5H6NCH3S3H3C2H2C2SCH4FeHCH2NC6H10NC6H8NHCHC3HSCFeHNC2SHCFeHCHC4SCNCH2NC6H3SH4NC2SCHCH2CHCH3C3H3NHSHCHC2H2SCH2CNC6H8CH4C2H2CSCHCNC6H8C3HC2NCSCHCHFe2CH3SNC6H8NC6H2NHCH2FeCSCHCH3SHC3S2CH2CFeH3CFeCH3SCFeHNCNH2FeHCHC3H4C2HSC2HC2SCSCHC3H3C2HSC3H5CSHC2FeH3C2HCFeC2H5C4HC2S2H2C2NHNH3C2H2CHSCHCHC2H2C2FeSCH3NH4FeC2HSHCHSC3SC2HNCNSH4CH2CH2SHC2HCH2S2CSH2SCH3CH3C2SHCHCH3FeC2HCSHCH2CH2SCSC2H2C2H2CHNHFeC2FeH5C2H2CHC2NSHSH7FeH2CFeHFeSFeHCSHFeS2FeS2FeSFeS3FeS2FeS2FeSFeS3C6H3C6H5C5H5C7H3C5NCH3CHC6H2C2HC6H4C5H4CH2CHC5HCHCH2CH2N2H2CNHCH2C2HCH2C3SC2HC2H5NC3HCSHCHSHC2HNC5HC4HCH5CHCHCNC2H4CSCHCHC2HN2SH3CHCHFeHSH3C2HCHC3H2CHSC3S2CH5CHCHFeS2FeH2FeSFeHS2HSCHCHCSCSNH2FeCSHFeSCSFeS2FeS2FeSFeS3FeS2FeS2FeSHS5CHNSCHFeS2FeS2FeSFeS3FeS2FeS2FeSFeS3FeS2FeS2FeSFeS4HFeSFeSFeS2FeS2FeSFeS3FeS2FeS2FeSFeHS2CFeS2HSFeSFeS3C6H2CHSC6H4C6H4C6H4C4H2FeC2H2C6H4C6H3C6H4C2HC3H3C6H4C6H4CHCH2C4H3C6SH6CH3CHNCHC6H4C6H4C6H4C2HC6H4C4HC7H3FeSH2CNCHC7H5C3HCHC2SHC6H2SH4SHCH3SH2C2SCH2C3HC3HC2H2C2H3C2FeHNC6H8NC3H4NC6H8NC3H2CH3CHC2HFeHSC2H3C2H2CH2CNC6H10C3H2C2H2C2H3C2H3CSCH2CHSH2SCSNC6H8NC5HFeC3NH2SCFeCFeCHCH2NCH2SCH2N2HSH3FeH6C3H2C2SH3NC6H9CSCH2NC6H8NC7HSCH2SHNC5H3SH2FeCH2C2HC2FeHFeCHC2HNCSCHC3NCNC2HFeSH2CH4CHNHC2SH5CH2C2HCH3S2NCHCFeC2HCH2C3SFe2HCS3HCSH5CH3C2SH2SHCHCHCSNH2FeCSH2FeHFeC2HC2H2CHCH2CSHCFeH2CH4C3HFeHC3HC2HCH2NHCHFeH2S2H2FeH2CSCS2HCHCNFe2HSH4SHFeS2FeS2FeSFeS3FeS2FeCFeHFeS3FeSFeS2FeSFeS2H3S3CFe2HCSC2H4C4FeS3H3NC2H5CFeHSFeS2HCFeH2SCNCSHCH3CH3C5H2CSHCHFeNH3SHNCH3NCH4CH2SH2CHC2HC2HCH2S2CHCHCH2CH2S2HCNC3FeH2C6H5C3H2C6H4C6H4C6H7C2SC7H3C6H4C4SH2C2HCSNCHC2HNHC2HCHCSC2HC2H4CHCHCHC2HFeCHSHSHCHCH3CHC2FeCSCFeCSHSCFeSH3FeS2FeSHFe2SCSFeS2FeS2FeSFeS3FeS2FeS2FeSFeS4HNC2SHFeS2FeS2FeSFeS3FeHSFeCSHCHS3CNHCHCHSC2H2C6H4FeC4H3C8H4C6H4C6H4C6H4C2HC6H4SHSCH2N2C6H3CHC6H2CHC2H2CHCHCFeCH4CH2CHSHNCH4CH2C5H2CH4C2HCHSHCH2C2SCHC2HNCH3NC2H2C4FeH4NCHSCHFeCH2CNH2CH2CH2CFeC2H2CH2C2H3FeSCH2C3H2NC6H8CH2C2HC2HNC6H4NHCH2CSCH3SH2CHSHCH3CHC3H2SH2C2SC2HCFeS2FeS2FeSFeS4FeS2FeS2FeHFeS3H2S2H2FeHC2FeHFeS2FeS2FeSFeS3FeS2FeCHFeS2HS2CSHCHSFeS2FeSHFeSFeS3FeS2FeS2FeSFeS3FeS2FeS2FeSFeS3FeS2FeS2FeSFeS3FeS2FeC2FeSHCS4FeSFeSFeSC2HCHSH2C8NCH2C4H3SH2SC6H3C6H4C6H4C6H4C6H4C2HFeC2HCHSC6H4C6H5FeC2S3HC7H6C4HCHSC2NFeSH3C6H4C6H4C6H4C2H2CHC5H3C6H5CH2CH3CNC3SH2C3HC7H4C2H2C6H4C6H4FeH2SCH2CSC3HCH2SH3CNC3FeHCHS2CSCHCH3FeC2H3SCHNC3HFeHC2HFeHCH2CHSCSHCSHCHNC2HCH2CH2FeCHCHCHSH4SH2NC6H9C3HC2FeCHSCH2CNHCHSC3FeH3CSH4NH2CSNFeCH2CNC7HCH5NC5H6NC6H3CH6SC2H4C2H2FeCHNH2CH2C2H7FeNC2H2CHCH2CHC3H3NC6H2CHCH3C2HSFeHNFeCSCHC3N2CH3C2H2CSH3NC3H5CHCHCHC2SHNC6H8NC6H4CH3NC6H7CNC3H2C2HCHSH2SHC2HCH4C2HCH3FeH4CSHCHS2H2FeH2CH2C2HNH2CHCHC2HFeHC2H2C2NH2CHCSHCS2H2C2FeS2FeS2FeSFeS3C2FeS2CFeS2FeSFe2S2H3NC6H4C5H3CSC2H2FeCNHC6H4SHC4H5C6H4C7H3SCHSHSHCHCNC6H9SC2HNH2CSH3FeCHCH2CH2CH2FeH2CHC3HCH2CSC2HCHCSHNC6H2C2H4C4HCHCHSHCHC3HCH2CS2H3CH2CHC3NHC4HSCHFeHCHSHC2HCH2NHCH4NCHFeS2FeS2FeSFeS3HCHSHFeS2FeS2FeSFeS3FeS2FeS2FeSFeS3FeS3Fe2S2HCHNFeSH3FeS2FeS2FeSFeS3FeS2FeSHFeSFeS3HCSHNCSH2S2H2CSCHFeS2FeS2HFeSHSFeS2FeS2FeSFeS4FeS2FeS2FeSFeS3CFeS2FeSH2SHSHSFeSCFeS2FeSFeHS2H3SH6FeCHC4H5C3H5C4H2CSHC4H2C6H4C6HCH2C6H4C6H4C6H5CHFeC7SCH2CH2C6H7C2H2CHC6H4C6H4C5H2C2NHC6H4C6H4C6H3C6H4C6H4C5H3CH2CHSHCHC6H4C6H4C6H2CHC3HC2HCH3C2H2C2SC3NC6H6NHCHSNCH2FeCH3C2HCH2CH2C2H3NC4H2CH8C2HCSNC2H2C3HCFeH2CSHC2SNC2H2C3HC3NHCHCH2CHCHCH4CNC6H8NC6H9NCFeH2CSCHNCHCSNC6H11CNFeH3C2HCH2C2HC3HC2FeH3C2H2SFeHCHSCHCH2CHCH4NCHC2HFeH2SFeC2SC2HC2H2SC2SCH5CHC2HNC2N2HCHCHC4HC4H2SC2FeHC2HCHCH2CHCHSNCHNFeH2C2H2CHC4H2C3H2CHFeHSHC2HSNC2H4CNCHCSC2SC3HFeCH2NHCNH5SH2CHCFeHNH2CHSC2H5CHCHNHCH3C4HSH4C2H5C2NH2FeHCH2CH2CSHS2FeSFeSHFeS2FeSCFeSFeS3H3CHNCHSH3CHSC2HCH2CHSHFeS2FeS2Fe2S3FeS2FeS2FeSFeS3FeS2FeSFeSFeS4C6H3C6H4C6H4C6H4C6H5FeH2C2HC4H2C2HSHC6H5CHS2NC7H5C3H2FeNH2C6H4C2HCSFeC5HFeCH2C3H2CHCH2CH3CNCHC2H2C2NC6H8CHCHFeC2NH3CH2CH2SFeH2CHC2NCHCN2SCHSH3SH3C3HC2HC2HCFeH2SHC2HS2HC2H7CNC6H3CHC2H5NHFeHCHFeH3S2HCHSHSCN2HCSHCH2C3FeS2FeS2FeSFeS3C4SNFeSCSH5C3HCH7NHNHCHCHCFeC7H4C2HSH2CNSH3C3HC6H8FeH2CHCH2CH3C2FeC2HCH5C3H3CSH2CHC3HCFeC3S2HC2SHCHC3HS2FeS2FeS2FeSFeS3FeS2FeS2FeSFeS3FeS2FeS2FeSFeS3FeS2FeS2FeSFeS3FeS2FeSFeSFeSHC2FeS2FeS2FeSFeS4H2C3HSC2SCFeSCSCHCH3NH3SH2S3HC2HC2SFeS2FeS2FeSFeS3FeSH5SCH4C6H4C7H4C2H2CHCFeHCH2C3HSHNH3C2H2SH2C2HFeH2SHNCHCSC2HCHCHCH2C6H4C6SH5CH2C4HCH2C8H4C6H4C6H4C6H4C6H4C6H4C6H4C6H4C6H4C6H4C6H2NC6H8NC5H2CH6CHC3HFeC3FeHCHC3H3CH2CHC3SHNC6H8NC6H12CH6CH3CH3C2H2FeHCHCHCNC2FeHC4HCH3CH2CH3SC3HC2SNC5H4NC6H8NC6H5Fe2SCH3C3SHCHCH2CH2CHC2HCH2NCH3CH2C2H2CHNH2S2H2FeCHNCH4C3HCSCNH2CSCFeC3HN2C2H2CHCH2CHNHC2FeH2C2HC2FeC2HC2H2SNHN2H3CFeHCNHSCH2C3SH2S3FeH2C2FeHSH3FeNCH2SCH3CHCH2SCHCHFeHC2HSHC8H3C8H7CH2FeCH2CHCSH2CFeSHFeS2FeSFeS3H2NC3HNH2CFeS2FeS2FeSFeS3C2HFeH3CHSCHNHCSFeS2FeS2FeSFeS3FeS2FeS2FeSFeS3FeS2FeS2FeCFeS3FeS2FeS2FeS2FeS2FeSFeS3FeC6SH4FeS2FeSFeCS2C2HCHC2H2NHSH2C3H2CH2CHC3HC6H5C7H4C6H4C6H4C6H4C6H4C6H5CH2C2HSHC7H4C6HSH2C5FeHCHSC6H6CFeH2C3HC7H4C6HCH4CNC6H11CH4CH3C2HCHFeHC7HC2HNC6H8C2HCSNHCHCH2CSHC2H2CSCHC3S2H4C3HC2HCH3N2C6H8NC3HC2H2NCSH3NC6H9C2H2CHCH2NCH4C2HCH2CFeNC2HCH2C3NC4HSH3SCHNHCHNC6H7CH3CS2H5CHCHCNH2CHCHCFeCHCHSCH2CH2C5HC2HCHCFeS2FeS2FeSFeS3H2SCNH3SFeSCFeSCFeSFeS3FeS2FeHSHCFeHS3CH3CH3CH3CHNCHCSHCHC6H4CHSC2H3C2H2C3H2C2H4C9H4C4HCH3C7H4C7H3SCH2C6FeC2N2SC4H3CHCHC5HNH2C2H2SH2SHFeH10CHCHCH3NC2H2CH2C4HCH3CSH3CFeS2FeS2FeSFeS3NH2SC3H2SHC2HNCH2CH2C2HSCHCFeHC2SH2C7H4FeHCH2C6H4CHC4H2CHSH3CHC2H3CHCHNFeH2C2HC3H2CHSCHCNH2SH2SCH2CHSCFeS2FeS2FeSFeS3FeS2FeS2FeSFeS3FeS2FeS2FeSFeS3CSCFe2SHFeS2FeS2FeSFeS3FeS2FeS2FeSFeS3HCNSHCFeS2FeS2FeSFeS3H3FeHSHSCSCFeS3CHFeHSFeS2FeS2FeSFeS3H2SCHC5HCSC2HC4HCH4C3FeH3CHCHC6H2C5H3C8H4SC5HC3HSH2C3H2C6H4C4HFeH3C6H4C2NC3HCH2C6H4C6H4C6H4C6H4C6H4C6H4C6H5C2HC2HC2NC7H4CHC8H2C3HSH2FeH3CSC5H3NC6H8NC6H8NC6H8SHC2H4FeH3CHCHC2SCSCHCHCSH2NH4FeHC2HCH2CHNC6H10CSHC4H4NC6H8NC6H8NC6H8NH3C2H5CHC2H4NC7H4SHC3H4NH4CHCH2CNC2HC3HCSC4FeHNCH3CHNH2CHC4SHCNHCH3C4H5CHCHS2H2CH2NC2H4CHFeS2CHNHCHCNC3FeH2CNC5FeH2CNSHC2SCHC2HC2SCFeSNSCFeS2FeS2FeHFeS3HCH3CFeC4SH7CHFeH2C3SCHC7H7CH2C8H4SCNHCNC3HCHNHCHFeSH6CHCHCH3CH4NSCHCHSH2SFe2S2FeS2FeSFeS3HSHSH2C3HC3FeS2FeS2FeS2HSFe2S2FeS2FeSFeS3FeS2FeS2FeSFeS3FeS2FeS2FeSFeS3H2FeHSHC2HC2SH4FeS2FeSFeCFeS2FeS2Fe2NS2HSHCH3SHC2FeNCHNHCHNC7H5C3HCH2CH2C5H4C6HCH2C6H4C6H4C6H4C6H4C6H4C4H3C6H4C6H4CHCH2C3HCH2NC2HCH3CH2C7H4C3NHCHCH2C6H4C6H4CHNC6H9CHCH2SCH3FeHCNCH2CH3C5H6SCHSHSC2HNHCH3CH6CH5C2H3C3H6CSC2SC5HNC7SH3C5HC5SNC6H9CHSH2C2N2C4HCHC2SNC2HC3H2FeH3CNC2H2CHCH3C4FeC2H3SHCHCHSCNCSNH2CH6CH3SHCHSCH2FeHC5H4CH4C5SH4SHC2HNSH2CHCSCFeC2H2C2SC2HCHCHCH2CSC2FeS2FeS2FeSFeS3CSH2CHFeSH3NCH2FeS2FeS2FeHFeHS3HNC2H2C2SHCSCHC2H4C2HC6HCH2SC2NCSH5CHNH2Fe2HC2HC6H4C6H5C5HSH2CH2CH2CH3CH2CFeCSC6H6S2NHC3H3NCHSHCH2C2HC2HNH2C3NC2HCHCH2SCHCHCH2FeH2CHC2HC3HCH2C2H2SHC2HSH2C4HCHFeHCSHC2NHCHC2H6C3FeH2CFeCFeCHC2H3FeHSFeS2CHFeHS2H2FeS2FeS2FeSFeS3FeS2FeS2FeSFeS3CSH2SCFeCFeS3FeS2FeSHFeSFeS3HC2H2C8HSHNHCSC2Fe2SHNHCH3NH4CH2CNCHFeNCH2CSNCHC2HSHC4SHCHC2HC6H4CH3C6H4CH3C2HC6H4C6H4C6H5CHC6H4C6H4C6H4C8H2CFeCH2C3H2CHCNCH3SCNC6H11SHCNC6H8NC6H7SHFeCSH2SHCNCH2SC2H3CNHFeC4S2H2C2HC3HSH4CSHCH2C2SH2SHC2H2CHC2HCHCFeHFeC2H5CFeS2FeS2FeSFeS3FeS2FeS2Fe2S3FeS2FeSFeSFeS3FeS2CHFeSHS5FeS2FeS2FeSFeS3FeS2C2HCS2FeS2FeSHFeS2HFeS2FeHSC2FeS3H2CS2HFeS2FeS2Fe3S3C2Fe2H2CHC2HFeS2FeSHFeSFeS3HSCFeC6H3SHSH3FeHNH2C5H4FeHC6H4C6H4SHC2HC6HCH3C6H4C2H2C2H2SH2C3HCH4SH3C6H4C3H2C6H5CH2C4H2C6H4C6H4C6H4C6H4C6H4C6H4C6H4C6H3FeH3FeCFeSCH2FeH2SH2NC6H8NC6H4CH2NC2H2CHCH3SCFeC2HCSCNC6HNH5CNC6H3SFeH4CHC4SCSCNCHNC6H11FeHNC3HC2HNC6H8NC6H9SH2CSHNH5C2NC4H5C2HCHNH3C4NC6H3S2CSHC3HCHCSH2SCNC3SHC2HC4HC2H3SCFeNCHNHC2SHC2Fe2HFeNCH3NSCHC3H2C4FeH2C2H3FeCSC3FeNCNC2HCH3SCSH3CH3CHSC2H4CSHC2HCSCHC2H4CH2CH2C2HFeH2SH2CHFeH2SHC3HCNCH5CSH2C2HNH2C3SHCHSCHCHFeCHSH2SHSH4SC2HCNH2SFeH2SHCSCHCHCHCHSCH2SHC2H2SH3NH3CHCHCH6C4HC2H2C4H3FeH2CH3CH3C2H2CH2CHC2HCH2CH2FeS2FeS2FeSFeS3CHSCFeS2FeS2FeSFeS3CHCHC3HC6H4C6H2NHC2H2CHC2H2C7H3C2H2C3SH2CH5C5H6CHC5H3C2NHCH2NC3NC2H3C3HS2HC5SCHCN2HCH4C2HC2NC2HC2HCH2CHSCSH3CHFeH2C2HC3S2HFeH4CHCHC2NHSCH2C5H3CHSHFeSFeS2FeS2FeSFeS3FeS2FeS2FeSFeS3FeS2Fe2S3H2FeH2CFeSFeS2CSFeSFeSHCFeS2FeS2FeSFeS3FeS3FeSFeCSFeS2FeS2FeSFeS3HCHFeS2FeS2FeSFeS3FeS2FeS2FeSFeS3FeHFeS2CS2CFeS5FeHSFe2SH2CS2CSCH2C6H2CSC4HC7H4C2HC3H4C6H4C6HCH4C4NH3C6H4C6H4C6H3CFeHCHC6H4C6H4C3HC2HNH2C6H4C6H4C6H4C3HC2H3C2H2C6H4C2H2C6H2CHC6H4C6H4C6H4C3NC6H8C3H3SHFeNC2HNC6H8NC2H2NCHC2H5SHSH4CH2CHSHCNC6H8C2SHC2HN2HCH2C2NC6H8S2CH2C3H2NH2CSFeSHNH2C2FeCHC2Fe2CFeHSNCH2NC6H12CHFeH3CHCH4CHCHNC6H8NC4H7CSCSFeCH2CH2SC3SFeH2CHSH3C2S2H2CHC4HCFeCFeH2CHC2HSH4CH5C2HSCHC4HCH3CH4NH2C2SHCSC2HNHFeCNC4SNH2C4H2C2H2CHNC2H2C3H3SFeH3SH5FeSHS2HCH2C2HCHCHNCH2C4HCHSFeHCHFeC2HNHCSHSC2HCH3C2NH2C2HC2HCSC2S3CH2NHS2N2SFeC4H3CSHCHCSNHCH2CHCH2SHFeHCHCHCSHC2FeHCSC3H2CH3C2H6CHNCHC2HCHCHCHCHCHCSCHCHC4H3CH4CH2CHCH7NHCFeS3Fe2SFeSHC2H3FeS2FeS2FeSFeS3FeS2FeSFeSC4SFeS2FeS2FeSFeS3C2SHCH3CHC2NCNSCNH3C4H3CHCNHC6H4C6H4C6H4C6H4C6H4CHC7H3SFeCSCH2C2H3SH3CHC2H2SH7C2HCSCHCH2CHC4SHC2HCHC2HSCNC6H8C2H2CH2CH2SH2CHCHFeSH3FeHNC3FeCNHNC2HC2H3CH3C2SHCHNCNC2HSCFeHCHC3SCHSC2HC3HCH2C2NCHFeH2C2HCH3C2HC2H2CH2CHNH2CHCFeHFeH2CH3FeH3CHCS4HCFe2S2FeS2FeSFeS3FeS2FeCSFeSFeHS2FeS2FeS2FeHFeS3FeS2FeS2Fe2S3HCSHCHCHFeNSFeHSHNCHS2HCHCH3C2FeS2H2SHNHCH2CH2CNCSHNC4H2CH4CSH8CHC2H2C2HC2H4CH2FeH3C2FeCNHC3NH2C9H4C6H4C3SHCH2CHC2NCHC5H3SC6H4C6H4C6H4C6H4C6H4CHCFeH3CNCSH2CH2CHCHC3SC2NHFeC3HSHSCHCH2FeC5HCH3C2H2SH3CFeCH2FeHSCH5CH2CNHC2H3SCNCH3CHC5SC2H2FeH2CHC2SH2CHC3H2C2HCH2NC2H5CHCHCH3CH3CSNCH2C2HCHC2HCH2SCS4CFeS2FeS2FeSFeS2FeS2FeS2FeSFeSFeS2FeS2FeSFeS3FeS2FeS2FeSFeS3FeS2FeHFeS3FeS3FeS2FeS2FeS2NSFeS2FeS2FeSFeS3FeS2C2Fe2SFeSCSNHSH2CFeSHCFeS2FeS2FeSFeS2NS2CHC2HC6H4CFeC2NCHCHFeHC4H3SC2H2C6H4C6H4C6H4C6H4FeHC7H4C2H2C4H2C6H4C6H4C6H4C6H4C2HC6H2C6H4C3H2C6H4NC4H3CFeC6H4C6H4NC2HCH8SCHCHCH3CH2CSH2SCFeHCHCHCHSNC6H3CSH4CNH4C3H2CH2NC6H8SCSH2CNC6H7CHC2H3NC6H8NC6H8C3FeHCH2NC2NSCHNC6H8C5HC2H2CHCH2NC6H9CNCHC4HFeHCSHSH3C3HCNC6H8CSCH2CFeNHSH2C3HC2NCHCHC4NCHSH4FeCH2CFeSHCSCSCH2CHFeNC2HS2CNSH2FeNHFeCH5NFeC2H2CSCFeH2CSH2SHCH2CH2SHS2H2CHFeHFeH2CH2C2HCHCH2FeH2CSC2H3S2C2H2NFeCHC2FeC3NH2CHSCNHCSCH3CH2C2HCSC6HC2H6CHCSC3HC3HC3HCHCHCS2HSFeHCHC2HFeCS2H2CHSH2CH5CHCSC2H2SHCH2SH6CH3CSHFeNH2CSCFeNCHCH3C6HCNSC2H2CHC2HCHCH2SCHCSH2CHC2HSH2FeS2FeS2FeSFeS3CFeS2FeS2FeSFeS3CHCNHC6H4C2HCHCH4C6H4C6H4C6H5CNH4C5H3C2NH2C5H2C3HCH2C3H4C3H4C2HCHC2H5C2HC2HC2H3C4HNHNCH2CSCHCH6NCH2C3H3C3FeS2FeS2FeSFeS3HFeS2FeHSFeSFe2S2FeCFeHS2HC2HS2CFeS2FeS2FeSFeS3FeS2FeS2FeSFeS3FeS2FeS2FeSFeS3FeSHFeHCFeCFeS5FeSFeSFeHFeS2FeS2FeS2FeSFeS3FeS2FeS2FeSFeS3FeS2FeS2FeSFeS3CSH3C3FeC3HC2H3C7H4C6H4C6H4C6H4CHC2H5C6H4C2H5CHC4H2C6H4C6H4C5H3C6H4C6H4C6H4C6H4CHC4HCH2FeC2HC5H3C3HSC2HCH2C5HC4HC7H4C6H4C6H4C4NCH2CHSHCH2C2H4NHFeCHCH4CH3FeHSH2CH3CHC3NSHCH5CHC2SCNC6H8NC3H5NC6H9CHCH2CHCSHSC4H5CH3CFeCH2C3HFeC3SC2HCH2CHCHCNCHSHC3H2NHSCHC3FeHSH2NCSH3NH2C2SHCHCH2FeH3CH2SC2H2CH3CHC3FeCH4CH3C4HNHNHNCH2NCH2CHCH2CHCHCSNC2SCHC5H2NCH7NC2H2SCHCHCHCH2CHC2HSHCHSHNHC3H2FeHSH2SH2CH2SHC2HCSHSC2H2CHFe2NS2HC2HCSCHCSH2C2HCNHC2H4C2NHSH2NHCFeHFeCFeH2CSCH2CFeH2CHC2SCHCHCNCHNHC2HCHC3HC3H2CSH2C2H2NCHSCH3CSCHC2H3SHNH3CSC2H2FeCS2H2CHCHSFeS2FeS2FeSFeS3HSFeS3FeS2FeS2FeHFeCS2H2FeS2FeNSFeS2CSHFeCHS2CHSH4C4HCSCHCH2NCHCH2SHFeHC2H2CHCH3C7HFeHCFeH2C2NHSC6H4C6H4C6H4C6H3NSCH2CHCHS3HSHC2SHCH2CH5CFeCHNC6H2CHCHFeCSNCSC2HNC2SHFeHSNC6H8NC6H8C3H2CHSH2SHCH3C2HFeHCH2C4SH4CSCHNC4Fe2H2SCHFeH4CHCHSC2H2CHNHCHC2H5CH2CHC2HCHSHFe
_chemical_formula_sum              "Fe1152 S2304 C6912 H6912 N576"
_cell_length_a       134.574
_cell_length_b       134.724
_cell_length_c       134.84
_cell_angle_alpha    74.4084
_cell_angle_beta     74.4591
_cell_angle_gamma    74.4301

_space_group_name_H-M_alt    "P 1"
_space_group_IT_number       1

loop_
  _space_group_symop_operation_xyz
  'x, y, z'

loop_
  _atom_site_type_symbol
  _atom_site_label
  _atom_site_symmetry_multiplicity
  _atom_site_fract_x
  _atom_site_fract_y
  _atom_site_fract_z
  _atom_site_occupancy
  Fe  Fe1       1.0  0.21817  0.24830  0.11601  1.0000
  S   S1        1.0  0.20641  0.23937  0.12739  1.0000
  C   C1        1.0  0.22063  0.28886  0.13482  1.0000
  Fe  Fe2       1.0  0.21223  0.24564  0.09668  1.0000
  S   S2        1.0  0.19970  0.23683  0.10638  1.0000
  S   S3        1.0  0.21753  0.24875  0.07893  1.0000
  Fe  Fe3       1.0  0.19541  0.24871  0.11668  1.0000
  S   S4        1.0  0.17832  0.25640  0.12220  1.0000
  Fe  Fe4       1.0  0.21164  0.22838  0.11626  1.0000
  S   S5        1.0  0.21586  0.21083  0.12084  1.0000
  S   S6        1.0  0.20685  0.25850  0.10592  1.0000
  S   S7        1.0  0.22450  0.23642  0.10590  1.0000
  H   H1        1.0  0.17438  0.24046  0.11273  1.0000
  H   H2        1.0  0.21142  0.30034  0.12443  1.0000
  C   C2        1.0  0.23111  0.20784  0.98989  1.0000
  H   H3        1.0  0.20890  0.22981  0.08522  1.0000
  H   H4        1.0  0.22050  0.27085  0.10781  1.0000
  C   C3        1.0  0.22636  0.21371  0.10040  1.0000
  N   N1        1.0  0.20930  0.27483  0.13371  1.0000
  C   C4        1.0  0.20328  0.26746  0.13315  1.0000
  H   H5        1.0  0.20829  0.21732  0.07494  1.0000
  H   H6        1.0  0.20706  0.20455  0.99729  1.0000
  C   C5        1.0  0.22761  0.28349  0.10754  1.0000
  H   H7        1.0  0.22753  0.24618  0.05779  1.0000
  S   S8        1.0  0.21625  0.21605  0.05329  1.0000
  S   S9        1.0  0.15806  0.25123  0.17127  1.0000
  H   H8        1.0  0.19594  0.26775  0.13937  1.0000
  C   C6        1.0  0.18148  0.25673  0.09441  1.0000
  C   C7        1.0  0.21275  0.29230  0.12899  1.0000
  H   H9        1.0  0.21956  0.21982  0.09876  1.0000
  H   H10       1.0  0.22028  0.19334  0.05644  1.0000
  C   C8        1.0  0.22614  0.20735  0.11050  1.0000
  S   S10       1.0  0.22568  0.21254  0.00172  1.0000
  C   C9        1.0  0.22731  0.21347  0.98077  1.0000
  C   C10       1.0  0.23551  0.21255  0.09254  1.0000
  C   C11       1.0  0.20247  0.20749  0.98241  1.0000
  N   N2        1.0  0.23837  0.18618  0.07168  1.0000
  C   C12       1.0  0.18752  0.24352  0.08026  1.0000
  C   C13       1.0  0.23241  0.26550  0.11711  1.0000
  C   C14       1.0  0.23499  0.28644  0.11118  1.0000
  H   H11       1.0  0.19715  0.21496  0.98336  1.0000
  S   S11       1.0  0.10542  0.26394  0.16686  1.0000
  H   H12       1.0  0.22737  0.23332  0.04763  1.0000
  C   C15       1.0  0.19181  0.25243  0.07791  1.0000
  H   H13       1.0  0.19248  0.26576  0.08344  1.0000
  S   S12       1.0  0.22779  0.19885  0.03218  1.0000
  C   C16       1.0  0.23004  0.17780  0.05980  1.0000
  H   H14       1.0  0.22165  0.22088  0.98094  1.0000
  S   S13       1.0  0.23004  0.25271  0.12213  1.0000
  H   H15       1.0  0.17716  0.23428  0.09164  1.0000
  C   C17       1.0  0.23774  0.17142  0.06526  1.0000
  H   H16       1.0  0.22900  0.27558  0.14454  1.0000
  C   C18       1.0  0.22635  0.27301  0.11047  1.0000
  S   S14       1.0  0.23543  0.29979  0.10875  1.0000
  Fe  Fe5       1.0  0.22853  0.21226  0.03881  1.0000
  C   C19       1.0  0.18887  0.25904  0.08505  1.0000
  H   H17       1.0  0.20112  0.28785  0.12383  1.0000
  H   H18       1.0  0.08859  0.21324  0.16561  1.0000
  H   H19       1.0  0.07512  0.25411  0.16192  1.0000
  H   H20       1.0  0.08973  0.26352  0.15665  1.0000
  C   C20       1.0  0.22268  0.27839  0.14024  1.0000
  Fe  Fe6       1.0  0.23317  0.20855  0.01607  1.0000
  H   H21       1.0  0.19768  0.25403  0.07071  1.0000
  H   H22       1.0  0.16416  0.24120  0.10597  1.0000
  C   C21       1.0  0.16988  0.24545  0.10667  1.0000
  H   H23       1.0  0.22271  0.28938  0.10264  1.0000
  H   H24       1.0  0.19003  0.23818  0.07486  1.0000
  N   N3        1.0  0.17720  0.24805  0.09660  1.0000
  C   C22       1.0  0.08855  0.25822  0.16428  1.0000
  C   C23       1.0  0.09536  0.25668  0.17102  1.0000
  H   H25       1.0  0.21948  0.18767  0.99481  1.0000
  C   C24       1.0  0.18025  0.24138  0.08974  1.0000
  H   H26       1.0  0.22541  0.29423  0.13479  1.0000
  H   H27       1.0  0.17936  0.26182  0.10001  1.0000
  H   H28       1.0  0.22718  0.17466  0.05472  1.0000
  C   C25       1.0  0.22629  0.18831  0.06063  1.0000
  C   C26       1.0  0.17271  0.25474  0.13587  1.0000
  C   C27       1.0  0.16171  0.25764  0.13930  1.0000
  C   C28       1.0  0.15706  0.25647  0.15013  1.0000
  C   C29       1.0  0.16341  0.25252  0.15760  1.0000
  C   C30       1.0  0.17440  0.24973  0.15416  1.0000
  C   C31       1.0  0.17903  0.25078  0.14336  1.0000
  H   H29       1.0  0.15675  0.26076  0.13357  1.0000
  H   H30       1.0  0.14858  0.25869  0.15268  1.0000
  H   H31       1.0  0.17936  0.24666  0.15989  1.0000
  H   H32       1.0  0.18748  0.24857  0.14087  1.0000
  C   C32       1.0  0.21819  0.23890  0.07221  1.0000
  C   C33       1.0  0.22351  0.23975  0.06162  1.0000
  C   C34       1.0  0.22344  0.23247  0.05585  1.0000
  C   C35       1.0  0.21778  0.22447  0.06057  1.0000
  C   C36       1.0  0.21266  0.22350  0.07122  1.0000
  C   C37       1.0  0.21300  0.23058  0.07707  1.0000
  H   H33       1.0  0.16524  0.25270  0.10954  1.0000
  C   C38       1.0  0.21689  0.27144  0.13961  1.0000
  H   H34       1.0  0.23462  0.19430  0.12034  1.0000
  H   H35       1.0  0.07716  0.21812  0.17507  1.0000
  H   H36       1.0  0.21878  0.26322  0.14354  1.0000
  C   C39       1.0  0.20707  0.28516  0.12857  1.0000
  S   S15       1.0  0.23238  0.22248  0.02273  1.0000
  C   C40       1.0  0.23054  0.19239  0.06667  1.0000
  H   H37       1.0  0.20802  0.25924  0.13418  1.0000
  H   H38       1.0  0.20117  0.26936  0.12533  1.0000
  H   H39       1.0  0.23930  0.18862  0.08629  1.0000
  C   C41       1.0  0.24002  0.26838  0.12048  1.0000
  C   C42       1.0  0.09961  0.22498  0.17358  1.0000
  C   C43       1.0  0.20794  0.20160  0.99027  1.0000
  C   C44       1.0  0.08026  0.25290  0.16729  1.0000
  C   C45       1.0  0.21494  0.19211  0.98888  1.0000
  C   C46       1.0  0.21641  0.18865  0.97958  1.0000
  H   H40       1.0  0.22769  0.20061  0.06717  1.0000
  H   H41       1.0  0.10016  0.23032  0.16592  1.0000
  H   H42       1.0  0.22210  0.18142  0.97842  1.0000
  C   C47       1.0  0.23479  0.19923  0.11252  1.0000
  C   C48       1.0  0.08505  0.21939  0.17034  1.0000
  H   H43       1.0  0.23575  0.21773  0.08485  1.0000
  H   H44       1.0  0.23746  0.25207  0.08457  1.0000
  H   H45       1.0  0.08357  0.22727  0.16499  1.0000
  H   H46       1.0  0.23926  0.22908  0.99283  1.0000
  H   H47       1.0  0.23928  0.23561  0.07887  1.0000
  C   C49       1.0  0.23846  0.19830  0.98956  1.0000
  H   H48       1.0  0.23956  0.36557  0.17575  1.0000
  S   S16       1.0  0.12925  0.26899  0.17615  1.0000
  Fe  Fe7       1.0  0.21227  0.09925  0.25796  1.0000
  S   S17       1.0  0.21051  0.11676  0.25196  1.0000
  S   S18       1.0  0.21290  0.09181  0.27482  1.0000
  Fe  Fe8       1.0  0.21603  0.09433  0.23650  1.0000
  S   S19       1.0  0.21439  0.11141  0.22871  1.0000
  S   S20       1.0  0.22148  0.08368  0.22482  1.0000
  Fe  Fe9       1.0  0.22431  0.11216  0.23924  1.0000
  H   H49       1.0  0.11249  0.22927  0.17707  1.0000
  Fe  Fe10      1.0  0.20056  0.11457  0.24199  1.0000
  S   S21       1.0  0.18659  0.12656  0.23650  1.0000
  S   S22       1.0  0.22694  0.09489  0.24614  1.0000
  S   S23       1.0  0.20127  0.09723  0.24896  1.0000
  H   H50       1.0  0.16393  0.26897  0.18024  1.0000
  S   S24       1.0  0.23141  0.02468  0.21170  1.0000
  H   H51       1.0  0.09740  0.20655  0.20108  1.0000
  C   C50       1.0  0.01903  0.24185  0.21804  1.0000
  C   C51       1.0  0.12518  0.27453  0.28240  1.0000
  C   C52       1.0  0.08578  0.27664  0.18447  1.0000
  Fe  Fe11      1.0  0.20668  0.36838  0.22325  1.0000
  S   S25       1.0  0.19113  0.37941  0.22707  1.0000
  S   S26       1.0  0.21286  0.36223  0.20837  1.0000
  Fe  Fe12      1.0  0.21000  0.36337  0.24547  1.0000
  S   S27       1.0  0.19455  0.37377  0.25135  1.0000
  S   S28       1.0  0.22180  0.35356  0.25512  1.0000
  Fe  Fe13      1.0  0.18796  0.36683  0.24160  1.0000
  S   S29       1.0  0.17244  0.36130  0.24684  1.0000
  Fe  Fe14      1.0  0.19924  0.38535  0.23633  1.0000
  S   S30       1.0  0.19766  0.40302  0.23442  1.0000
  S   S31       1.0  0.20305  0.35551  0.23720  1.0000
  S   S32       1.0  0.21514  0.37528  0.23108  1.0000
  H   H52       1.0  0.02173  0.20146  0.21873  1.0000
  H   H53       1.0  0.15727  0.22315  0.36270  1.0000
  C   C53       1.0  0.14334  0.28752  0.18781  1.0000
  H   H54       1.0  0.15432  0.26153  0.25039  1.0000
  Fe  Fe15      1.0  0.22025  0.45913  0.25948  1.0000
  C   C54       1.0  0.07507  0.22805  0.25035  1.0000
  Fe  Fe16      1.0  0.21594  0.43679  0.26346  1.0000
  Fe  Fe17      1.0  0.21236  0.22487  0.37567  1.0000
  S   S33       1.0  0.20584  0.42466  0.26719  1.0000
  H   H55       1.0  0.23196  0.42033  0.24406  1.0000
  C   C55       1.0  0.01980  0.25277  0.22927  1.0000
  H   H56       1.0  0.22676  0.21402  0.36037  1.0000
  H   H57       1.0  0.08493  0.27586  0.17696  1.0000
  S   S34       1.0  0.21650  0.44686  0.27419  1.0000
  S   S35       1.0  0.21774  0.44974  0.24904  1.0000
  H   H58       1.0  0.23012  0.12674  0.19865  1.0000
  C   C56       1.0  0.09666  0.22773  0.22617  1.0000
  S   S36       1.0  0.23054  0.24964  0.34561  1.0000
  C   C57       1.0  0.20248  0.29143  0.36884  1.0000
  H   H59       1.0  0.06314  0.27207  0.19676  1.0000
  S   S37       1.0  0.06814  0.23946  0.18006  1.0000
  Fe  Fe18      1.0  0.15316  0.31625  0.23475  1.0000
  S   S38       1.0  0.15872  0.29940  0.24253  1.0000
  S   S39       1.0  0.16604  0.32570  0.22771  1.0000
  Fe  Fe19      1.0  0.13037  0.31364  0.23965  1.0000
  S   S40       1.0  0.13409  0.29687  0.24813  1.0000
  S   S41       1.0  0.11368  0.32159  0.23827  1.0000
  Fe  Fe20      1.0  0.14434  0.30234  0.25522  1.0000
  S   S42       1.0  0.14381  0.29730  0.27260  1.0000
  Fe  Fe21      1.0  0.14800  0.29539  0.23471  1.0000
  S   S43       1.0  0.15265  0.28076  0.22805  1.0000
  S   S44       1.0  0.13939  0.31946  0.24802  1.0000
  S   S45       1.0  0.14372  0.31194  0.22557  1.0000
  Fe  Fe22      1.0  0.16041  0.22973  0.31820  1.0000
  S   S46       1.0  0.17219  0.22654  0.30349  1.0000
  S   S47       1.0  0.16773  0.22333  0.33268  1.0000
  Fe  Fe23      1.0  0.14285  0.24059  0.30561  1.0000
  S   S48       1.0  0.15370  0.23838  0.29022  1.0000
  S   S49       1.0  0.12585  0.24911  0.30545  1.0000
  Fe  Fe24      1.0  0.15930  0.22206  0.29910  1.0000
  S   S50       1.0  0.16200  0.20721  0.29313  1.0000
  Fe  Fe25      1.0  0.16521  0.24309  0.29636  1.0000
  S   S51       1.0  0.17511  0.25445  0.28608  1.0000
  S   S52       1.0  0.14788  0.22392  0.31436  1.0000
  S   S53       1.0  0.15405  0.24663  0.31120  1.0000
  Fe  Fe26      1.0  0.12397  0.24271  0.19471  1.0000
  S   S54       1.0  0.11169  0.25757  0.19412  1.0000
  S   S55       1.0  0.11736  0.22912  0.20527  1.0000
  S   S56       1.0  0.12019  0.27798  0.20320  1.0000
  Fe  Fe27      1.0  0.13336  0.19247  0.25831  1.0000
  S   S57       1.0  0.14887  0.18305  0.25131  1.0000
  S   S58       1.0  0.13062  0.20606  0.26620  1.0000
  Fe  Fe28      1.0  0.12050  0.18242  0.24966  1.0000
  S   S59       1.0  0.13487  0.17180  0.24206  1.0000
  S   S60       1.0  0.10321  0.18350  0.25036  1.0000
  Fe  Fe29      1.0  0.14083  0.16934  0.25679  1.0000
  S   S61       1.0  0.14975  0.15384  0.26487  1.0000
  Fe  Fe30      1.0  0.14195  0.18610  0.23718  1.0000
  S   S62       1.0  0.15155  0.19082  0.22109  1.0000
  S   S63       1.0  0.12573  0.17852  0.26507  1.0000
  S   S64       1.0  0.12716  0.19694  0.24353  1.0000
  C   C58       1.0  0.08834  0.27862  0.20352  1.0000
  Fe  Fe31      1.0  0.12450  0.26536  0.19379  1.0000
  N   N4        1.0  0.08722  0.22554  0.23409  1.0000
  Fe  Fe32      1.0  0.07828  0.27982  0.25818  1.0000
  S   S65       1.0  0.09297  0.26978  0.25060  1.0000
  S   S66       1.0  0.07630  0.29696  0.25810  1.0000
  Fe  Fe33      1.0  0.06564  0.26247  0.26496  1.0000
  S   S67       1.0  0.07971  0.25086  0.25854  1.0000
  S   S68       1.0  0.04995  0.25730  0.27220  1.0000
  Fe  Fe34      1.0  0.08951  0.25743  0.26524  1.0000
  S   S69       1.0  0.10402  0.24626  0.27034  1.0000
  Fe  Fe35      1.0  0.08197  0.26412  0.24464  1.0000
  S   S70       1.0  0.08502  0.26034  0.22878  1.0000
  S   S71       1.0  0.07522  0.26780  0.27329  1.0000
  S   S72       1.0  0.06750  0.27545  0.25065  1.0000
  Fe  Fe36      1.0  0.06659  0.20743  0.21027  1.0000
  S   S73       1.0  0.07082  0.22271  0.20901  1.0000
  S   S74       1.0  0.08110  0.19425  0.21146  1.0000
  Fe  Fe37      1.0  0.04394  0.21795  0.20679  1.0000
  S   S75       1.0  0.04685  0.23401  0.20541  1.0000
  S   S76       1.0  0.02757  0.22026  0.20328  1.0000
  Fe  Fe38      1.0  0.06268  0.22885  0.19552  1.0000
  Fe  Fe39      1.0  0.05467  0.22652  0.21900  1.0000
  S   S77       1.0  0.05113  0.23457  0.23242  1.0000
  S   S78       1.0  0.05952  0.21326  0.19578  1.0000
  S   S79       1.0  0.05078  0.21075  0.22141  1.0000
  C   C59       1.0  0.05964  0.24304  0.23056  1.0000
  C   C60       1.0  0.05890  0.24807  0.23861  1.0000
  C   C61       1.0  0.06645  0.25378  0.23784  1.0000
  C   C62       1.0  0.07485  0.25436  0.22909  1.0000
  C   C63       1.0  0.07532  0.24975  0.22080  1.0000
  C   C64       1.0  0.06758  0.24428  0.22146  1.0000
  H   H60       1.0  0.05267  0.24731  0.24561  1.0000
  H   H61       1.0  0.06583  0.25751  0.24417  1.0000
  H   H62       1.0  0.08175  0.25023  0.21398  1.0000
  H   H63       1.0  0.06786  0.24093  0.21499  1.0000
  C   C65       1.0  0.01598  0.21493  0.20737  1.0000
  C   C66       1.0  0.00730  0.22026  0.20267  1.0000
  H   H64       1.0  0.00782  0.22745  0.19676  1.0000
  C   C67       1.0  0.02149  0.26650  0.25608  1.0000
  C   C68       1.0  0.03933  0.26049  0.26556  1.0000
  C   C69       1.0  0.03966  0.26720  0.25561  1.0000
  C   C70       1.0  0.03077  0.27027  0.25097  1.0000
  H   H65       1.0  0.04669  0.27020  0.25155  1.0000
  H   H66       1.0  0.03110  0.27558  0.24333  1.0000
  H   H67       1.0  0.00532  0.19447  0.22363  1.0000
  C   C71       1.0  0.01514  0.20567  0.21504  1.0000
  C   C72       1.0  0.22665  0.41317  0.23458  1.0000
  C   C73       1.0  0.18579  0.40143  0.27643  1.0000
  C   C74       1.0  0.09738  0.18754  0.23922  1.0000
  C   C75       1.0  0.08632  0.19019  0.24078  1.0000
  C   C76       1.0  0.08130  0.19264  0.23225  1.0000
  C   C77       1.0  0.08729  0.19222  0.22210  1.0000
  C   C78       1.0  0.09837  0.18959  0.22051  1.0000
  C   C79       1.0  0.10340  0.18746  0.22901  1.0000
  H   H68       1.0  0.08160  0.19017  0.24866  1.0000
  H   H69       1.0  0.07278  0.19440  0.23359  1.0000
  H   H70       1.0  0.10308  0.18908  0.21272  1.0000
  H   H71       1.0  0.11193  0.18542  0.22770  1.0000
  C   C80       1.0  0.12719  0.21797  0.20800  1.0000
  C   C81       1.0  0.12423  0.20868  0.21419  1.0000
  C   C82       1.0  0.13191  0.20003  0.21752  1.0000
  C   C83       1.0  0.14253  0.20070  0.21477  1.0000
  C   C84       1.0  0.14556  0.20980  0.20810  1.0000
  C   C85       1.0  0.13785  0.21848  0.20469  1.0000
  H   H72       1.0  0.11599  0.20824  0.21667  1.0000
  H   H73       1.0  0.12959  0.19293  0.22251  1.0000
  H   H74       1.0  0.15378  0.21032  0.20598  1.0000
  H   H75       1.0  0.14016  0.22564  0.19982  1.0000
  S   S80       1.0  0.23233  0.03395  0.23694  1.0000
  H   H76       1.0  0.08396  0.23928  0.19165  1.0000
  C   C86       1.0  0.15409  0.20724  0.28461  1.0000
  C   C87       1.0  0.14677  0.21629  0.28132  1.0000
  C   C88       1.0  0.13999  0.21594  0.27519  1.0000
  C   C89       1.0  0.14042  0.20654  0.27236  1.0000
  C   C90       1.0  0.14792  0.19754  0.27538  1.0000
  C   C91       1.0  0.15476  0.19790  0.28149  1.0000
  H   H77       1.0  0.14616  0.22350  0.28370  1.0000
  H   H78       1.0  0.13420  0.22289  0.27288  1.0000
  H   H79       1.0  0.14826  0.19023  0.27329  1.0000
  H   H80       1.0  0.16042  0.19087  0.28402  1.0000
  C   C92       1.0  0.12009  0.24936  0.29499  1.0000
  C   C93       1.0  0.12585  0.24449  0.28665  1.0000
  C   C94       1.0  0.12091  0.24412  0.27884  1.0000
  C   C95       1.0  0.11017  0.24861  0.27927  1.0000
  C   C96       1.0  0.10447  0.25389  0.28734  1.0000
  C   C97       1.0  0.10942  0.25424  0.29520  1.0000
  H   H81       1.0  0.13401  0.24067  0.28634  1.0000
  H   H82       1.0  0.12539  0.24016  0.27254  1.0000
  H   H83       1.0  0.09616  0.25736  0.28778  1.0000
  H   H84       1.0  0.10490  0.25807  0.30160  1.0000
  C   C98       1.0  0.14300  0.27928  0.22230  1.0000
  C   C99       1.0  0.13353  0.28676  0.22212  1.0000
  C   C100      1.0  0.12639  0.28606  0.21656  1.0000
  C   C101      1.0  0.12871  0.27792  0.21110  1.0000
  C   C102      1.0  0.13798  0.27020  0.21165  1.0000
  C   C103      1.0  0.14510  0.27086  0.21728  1.0000
  H   H85       1.0  0.13181  0.29326  0.22603  1.0000
  H   H86       1.0  0.11917  0.29201  0.21625  1.0000
  H   H87       1.0  0.13981  0.26386  0.20756  1.0000
  H   H88       1.0  0.15240  0.26502  0.21746  1.0000
  C   C104      1.0  0.08707  0.30329  0.25251  1.0000
  C   C105      1.0  0.09749  0.29771  0.24984  1.0000
  C   C106      1.0  0.10580  0.30319  0.24553  1.0000
  C   C107      1.0  0.10368  0.31424  0.24382  1.0000
  C   C108      1.0  0.09325  0.31973  0.24638  1.0000
  C   C109      1.0  0.08502  0.31429  0.25079  1.0000
  H   H89       1.0  0.09917  0.28922  0.25115  1.0000
  H   H90       1.0  0.11378  0.29889  0.24333  1.0000
  H   H91       1.0  0.09153  0.32824  0.24505  1.0000
  H   H92       1.0  0.07702  0.31867  0.25282  1.0000
  C   C110      1.0  0.15288  0.28567  0.27633  1.0000
  C   C111      1.0  0.16166  0.28186  0.26901  1.0000
  C   C112      1.0  0.16872  0.27245  0.27212  1.0000
  C   C113      1.0  0.16685  0.26670  0.28250  1.0000
  C   C114      1.0  0.15814  0.27058  0.28985  1.0000
  C   C115      1.0  0.15122  0.28010  0.28679  1.0000
  H   H93       1.0  0.16308  0.28613  0.26097  1.0000
  H   H94       1.0  0.17545  0.26948  0.26641  1.0000
  H   H95       1.0  0.15674  0.26630  0.29791  1.0000
  H   H96       1.0  0.14447  0.28305  0.29250  1.0000
  C   C116      1.0  0.17773  0.24123  0.35153  1.0000
  C   C117      1.0  0.21984  0.47698  0.29608  1.0000
  C   C118      1.0  0.18163  0.22712  0.34211  1.0000
  C   C119      1.0  0.17210  0.23113  0.33861  1.0000
  C   C120      1.0  0.16560  0.24047  0.34122  1.0000
  C   C121      1.0  0.16836  0.24543  0.34775  1.0000
  H   H97       1.0  0.18665  0.21983  0.34020  1.0000
  H   H98       1.0  0.15817  0.24354  0.33871  1.0000
  H   H99       1.0  0.16307  0.25241  0.35010  1.0000
  C   C122      1.0  0.22929  0.26271  0.34630  1.0000
  C   C123      1.0  0.22677  0.26543  0.35614  1.0000
  C   C124      1.0  0.22565  0.27589  0.35675  1.0000
  C   C125      1.0  0.22649  0.28374  0.34755  1.0000
  H   H100      1.0  0.22948  0.07357  0.28248  1.0000
  C   C126      1.0  0.16711  0.22538  0.37185  1.0000
  H   H101      1.0  0.22572  0.25946  0.36330  1.0000
  S   S81       1.0  0.01052  0.27088  0.24981  1.0000
  H   H102      1.0  0.11125  0.21718  0.19469  1.0000
  H   H103      1.0  0.21317  0.40402  0.28320  1.0000
  H   H104      1.0  0.04847  0.27766  0.28364  1.0000
  S   S82       1.0  0.99606  0.24921  0.24883  1.0000
  C   C127      1.0  0.19187  0.40434  0.28170  1.0000
  Fe  Fe40      1.0  0.11752  0.25953  0.17678  1.0000
  C   C128      1.0  0.14055  0.29592  0.19296  1.0000
  C   C129      1.0  0.14733  0.29692  0.19869  1.0000
  Fe  Fe41      1.0  0.24009  0.02605  0.22314  1.0000
  C   C130      1.0  0.02696  0.24531  0.24517  1.0000
  C   C131      1.0  0.02124  0.25957  0.26591  1.0000
  H   H105      1.0  0.17729  0.30581  0.24996  1.0000
  N   N5        1.0  0.15271  0.28040  0.18823  1.0000
  C   C132      1.0  0.02624  0.23426  0.23364  1.0000
  C   C133      1.0  0.17748  0.32727  0.25856  1.0000
  C   C134      1.0  0.17677  0.22168  0.37503  1.0000
  H   H106      1.0  0.24047  0.34096  0.31511  1.0000
  C   C135      1.0  0.23809  0.34433  0.34483  1.0000
  H   H107      1.0  0.02971  0.25146  0.27835  1.0000
  C   C136      1.0  0.17085  0.35105  0.24187  1.0000
  C   C137      1.0  0.17927  0.34551  0.23546  1.0000
  C   C138      1.0  0.17773  0.33753  0.23146  1.0000
  C   C139      1.0  0.16778  0.33500  0.23383  1.0000
  C   C140      1.0  0.15937  0.34041  0.24037  1.0000
  C   C141      1.0  0.16091  0.34843  0.24434  1.0000
  H   H108      1.0  0.18694  0.34745  0.23345  1.0000
  H   H109      1.0  0.18427  0.33341  0.22638  1.0000
  H   H110      1.0  0.15163  0.33862  0.24211  1.0000
  H   H111      1.0  0.15433  0.35271  0.24925  1.0000
  C   C142      1.0  0.20063  0.40897  0.24320  1.0000
  C   C143      1.0  0.20460  0.40293  0.25201  1.0000
  C   C144      1.0  0.20693  0.40788  0.25883  1.0000
  C   C145      1.0  0.20506  0.41888  0.25712  1.0000
  C   C146      1.0  0.20134  0.42496  0.24815  1.0000
  C   C147      1.0  0.19917  0.42001  0.24120  1.0000
  H   H112      1.0  0.20578  0.39445  0.25357  1.0000
  H   H113      1.0  0.21003  0.40323  0.26560  1.0000
  H   H114      1.0  0.19974  0.43348  0.24677  1.0000
  H   H115      1.0  0.19612  0.42478  0.23438  1.0000
  C   C148      1.0  0.22503  0.36174  0.26131  1.0000
  C   C149      1.0  0.23236  0.35771  0.26783  1.0000
  S   S83       1.0  0.23727  0.36052  0.32761  1.0000
  C   C150      1.0  0.22938  0.37496  0.27174  1.0000
  C   C151      1.0  0.22231  0.37894  0.26502  1.0000
  C   C152      1.0  0.22016  0.37240  0.25977  1.0000
  S   S84       1.0  0.99253  0.25227  0.22039  1.0000
  H   H116      1.0  0.22186  0.12678  0.27034  1.0000
  H   H117      1.0  0.21853  0.38713  0.26387  1.0000
  H   H118      1.0  0.21466  0.37560  0.25459  1.0000
  C   C153      1.0  0.22767  0.36419  0.19011  1.0000
  C   C154      1.0  0.22119  0.36918  0.19816  1.0000
  C   C155      1.0  0.22152  0.37951  0.19799  1.0000
  C   C156      1.0  0.22821  0.38490  0.18964  1.0000
  H   H119      1.0  0.01688  0.24097  0.21115  1.0000
  H   H120      1.0  0.21650  0.38341  0.20418  1.0000
  H   H121      1.0  0.03171  0.23794  0.24909  1.0000
  C   C157      1.0  0.09383  0.28133  0.18462  1.0000
  C   C158      1.0  0.09810  0.21175  0.19336  1.0000
  H   H122      1.0  0.02405  0.28571  0.26610  1.0000
  H   H123      1.0  0.13749  0.20791  0.31058  1.0000
  H   H124      1.0  0.12277  0.20057  0.28970  1.0000
  H   H125      1.0  0.07235  0.25950  0.19827  1.0000
  C   C159      1.0  0.20297  0.48157  0.28631  1.0000
  C   C160      1.0  0.17608  0.13350  0.24476  1.0000
  C   C161      1.0  0.17569  0.13206  0.25551  1.0000
  C   C162      1.0  0.16746  0.13820  0.26166  1.0000
  C   C163      1.0  0.15974  0.14598  0.25705  1.0000
  C   C164      1.0  0.16015  0.14742  0.24631  1.0000
  C   C165      1.0  0.16820  0.14110  0.24023  1.0000
  H   H126      1.0  0.18172  0.12622  0.25908  1.0000
  H   H127      1.0  0.16717  0.13703  0.26999  1.0000
  H   H128      1.0  0.15426  0.15337  0.24267  1.0000
  H   H129      1.0  0.16847  0.14225  0.23191  1.0000
  H   H130      1.0  0.07116  0.26710  0.18538  1.0000
  C   C166      1.0  0.17452  0.31231  0.25403  1.0000
  H   H131      1.0  0.22629  0.12734  0.21751  1.0000
  C   C167      1.0  0.22577  0.07000  0.22883  1.0000
  C   C168      1.0  0.22285  0.06466  0.23924  1.0000
  C   C169      1.0  0.22513  0.05356  0.24176  1.0000
  C   C170      1.0  0.23027  0.04781  0.23387  1.0000
  C   C171      1.0  0.23352  0.05321  0.22356  1.0000
  C   C172      1.0  0.23139  0.06425  0.22109  1.0000
  H   H132      1.0  0.21847  0.06907  0.24526  1.0000
  H   H133      1.0  0.22260  0.04943  0.24976  1.0000
  H   H134      1.0  0.22132  0.45278  0.29293  1.0000
  H   H135      1.0  0.23368  0.06835  0.21303  1.0000
  C   C173      1.0  0.21693  0.10014  0.28023  1.0000
  C   C174      1.0  0.22766  0.10013  0.27869  1.0000
  C   C175      1.0  0.17154  0.21113  0.36273  1.0000
  S   S85       1.0  0.23775  0.45313  0.25668  1.0000
  N   N6        1.0  0.16039  0.32283  0.26440  1.0000
  C   C176      1.0  0.16693  0.32925  0.26391  1.0000
  C   C177      1.0  0.16405  0.31447  0.25952  1.0000
  C   C178      1.0  0.14921  0.32536  0.26951  1.0000
  H   H136      1.0  0.16394  0.33616  0.26738  1.0000
  H   H137      1.0  0.15883  0.30950  0.25976  1.0000
  H   H138      1.0  0.14460  0.33052  0.26363  1.0000
  H   H139      1.0  0.14601  0.31807  0.27296  1.0000
  H   H140      1.0  0.14803  0.32940  0.27604  1.0000
  C   C179      1.0  0.08180  0.21878  0.23299  1.0000
  N   N7        1.0  0.21794  0.46938  0.29225  1.0000
  H   H141      1.0  0.01338  0.25869  0.21520  1.0000
  H   H142      1.0  0.22837  0.39294  0.18943  1.0000
  H   H143      1.0  0.23343  0.35674  0.21398  1.0000
  C   C180      1.0  0.15035  0.26098  0.26712  1.0000
  H   H144      1.0  0.16975  0.20723  0.35754  1.0000
  C   C181      1.0  0.22332  0.11153  0.29114  1.0000
  H   H145      1.0  0.23014  0.34821  0.34795  1.0000
  H   H146      1.0  0.23417  0.12257  0.25402  1.0000
  C   C182      1.0  0.20611  0.05465  0.22625  1.0000
  S   S86       1.0  0.13638  0.25020  0.19611  1.0000
  H   H147      1.0  0.11203  0.23041  0.29836  1.0000
  H   H148      1.0  0.18666  0.20080  0.36358  1.0000
  H   H149      1.0  0.08839  0.23537  0.24358  1.0000
  N   N8        1.0  0.11700  0.24580  0.23183  1.0000
  C   C183      1.0  0.12249  0.23835  0.22605  1.0000
  C   C184      1.0  0.11612  0.24353  0.24252  1.0000
  C   C185      1.0  0.12712  0.22827  0.23098  1.0000
  C   C186      1.0  0.12066  0.23352  0.24771  1.0000
  C   C187      1.0  0.12621  0.22588  0.24187  1.0000
  C   C188      1.0  0.11264  0.25644  0.22643  1.0000
  H   H150      1.0  0.12335  0.24019  0.21757  1.0000
  H   H151      1.0  0.11192  0.24947  0.24712  1.0000
  H   H152      1.0  0.13147  0.22236  0.22639  1.0000
  H   H153      1.0  0.11995  0.23173  0.25619  1.0000
  H   H154      1.0  0.12989  0.21813  0.24575  1.0000
  H   H155      1.0  0.10969  0.25624  0.21954  1.0000
  H   H156      1.0  0.10584  0.26050  0.23170  1.0000
  H   H157      1.0  0.11879  0.26123  0.22367  1.0000
  N   N9        1.0  0.17866  0.16229  0.23792  1.0000
  C   C189      1.0  0.18637  0.15428  0.23442  1.0000
  C   C190      1.0  0.17293  0.16956  0.23117  1.0000
  C   C191      1.0  0.17666  0.16330  0.24888  1.0000
  H   H158      1.0  0.19086  0.14842  0.23976  1.0000
  H   H159      1.0  0.16693  0.17603  0.23385  1.0000
  H   H160      1.0  0.16804  0.16531  0.25216  1.0000
  H   H161      1.0  0.17978  0.15576  0.25403  1.0000
  H   H162      1.0  0.18035  0.16957  0.24933  1.0000
  H   H163      1.0  0.22958  0.28713  0.33060  1.0000
  C   C192      1.0  0.18111  0.20760  0.36610  1.0000
  H   H164      1.0  0.08439  0.21505  0.22627  1.0000
  H   H165      1.0  0.21280  0.03947  0.22219  1.0000
  H   H166      1.0  0.22744  0.35619  0.19022  1.0000
  C   C193      1.0  0.23418  0.12401  0.21370  1.0000
  S   S87       1.0  0.20428  0.25459  0.36538  1.0000
  H   H167      1.0  0.12320  0.27787  0.26260  1.0000
  H   H168      1.0  0.19869  0.37587  0.27745  1.0000
  N   N10       1.0  0.18440  0.35583  0.20732  1.0000
  C   C194      1.0  0.17605  0.35146  0.20817  1.0000
  C   C195      1.0  0.18303  0.36417  0.21188  1.0000
  C   C196      1.0  0.16597  0.35552  0.21359  1.0000
  C   C197      1.0  0.17308  0.36838  0.21742  1.0000
  C   C198      1.0  0.16451  0.36401  0.21827  1.0000
  C   C199      1.0  0.19503  0.35125  0.20206  1.0000
  H   H169      1.0  0.17717  0.34456  0.20497  1.0000
  H   H170      1.0  0.18971  0.36746  0.21140  1.0000
  H   H171      1.0  0.15945  0.35179  0.21456  1.0000
  H   H172      1.0  0.17207  0.37476  0.22133  1.0000
  H   H173      1.0  0.15683  0.36698  0.22285  1.0000
  H   H174      1.0  0.19490  0.34588  0.19715  1.0000
  H   H175      1.0  0.19907  0.35758  0.19681  1.0000
  H   H176      1.0  0.19981  0.34678  0.20805  1.0000
  N   N11       1.0  0.21582  0.06291  0.20583  1.0000
  C   C200      1.0  0.21669  0.05224  0.20918  1.0000
  C   C201      1.0  0.21022  0.06954  0.21247  1.0000
  C   C202      1.0  0.21183  0.04795  0.21943  1.0000
  C   C203      1.0  0.20524  0.06551  0.22275  1.0000
  H   H177      1.0  0.03179  0.25141  0.24295  1.0000
  C   C204      1.0  0.22170  0.06711  0.19538  1.0000
  H   H178      1.0  0.22140  0.04700  0.20399  1.0000
  H   H179      1.0  0.20994  0.07795  0.21003  1.0000
  H   H180      1.0  0.07237  0.23189  0.25700  1.0000
  S   S88       1.0  0.22261  0.23575  0.37509  1.0000
  H   H181      1.0  0.22700  0.13608  0.28118  1.0000
  H   H182      1.0  0.22173  0.06261  0.18955  1.0000
  H   H183      1.0  0.21821  0.07552  0.19243  1.0000
  H   H184      1.0  0.23003  0.06636  0.19575  1.0000
  H   H185      1.0  0.23463  0.40543  0.26359  1.0000
  C   C205      1.0  0.19656  0.38384  0.27880  1.0000
  H   H186      1.0  0.13295  0.30133  0.19292  1.0000
  C   C206      1.0  0.20284  0.30101  0.37071  1.0000
  C   C207      1.0  0.23231  0.13433  0.27394  1.0000
  C   C208      1.0  0.23479  0.37986  0.18165  1.0000
  H   H187      1.0  0.20850  0.46581  0.28376  1.0000
  H   H188      1.0  0.20368  0.29048  0.36082  1.0000
  C   C209      1.0  0.23645  0.12669  0.25867  1.0000
  N   N12       1.0  0.04550  0.29624  0.26144  1.0000
  C   C210      1.0  0.04981  0.29028  0.26982  1.0000
  C   C211      1.0  0.03639  0.29464  0.26003  1.0000
  C   C212      1.0  0.04487  0.28263  0.27719  1.0000
  C   C213      1.0  0.03116  0.28714  0.26732  1.0000
  C   C214      1.0  0.03545  0.28112  0.27595  1.0000
  C   C215      1.0  0.05103  0.30396  0.25364  1.0000
  H   H189      1.0  0.05720  0.29132  0.27077  1.0000
  H   H190      1.0  0.03315  0.29907  0.25320  1.0000
  H   H191      1.0  0.22669  0.47544  0.29948  1.0000
  H   H192      1.0  0.23642  0.10130  0.21353  1.0000
  H   H193      1.0  0.23191  0.06166  0.29244  1.0000
  H   H194      1.0  0.05769  0.29986  0.24825  1.0000
  H   H195      1.0  0.04570  0.30998  0.24892  1.0000
  H   H196      1.0  0.05437  0.30820  0.25758  1.0000
  N   N13       1.0  0.11574  0.15492  0.25160  1.0000
  C   C216      1.0  0.11122  0.15754  0.26119  1.0000
  C   C217      1.0  0.12562  0.14862  0.24996  1.0000
  C   C218      1.0  0.11660  0.15379  0.26946  1.0000
  C   C219      1.0  0.13120  0.14471  0.25808  1.0000
  C   C220      1.0  0.12664  0.14732  0.26788  1.0000
  C   C221      1.0  0.11029  0.15929  0.24280  1.0000
  H   H197      1.0  0.10349  0.16271  0.26244  1.0000
  H   H198      1.0  0.12933  0.14678  0.24229  1.0000
  H   H199      1.0  0.11311  0.15609  0.27696  1.0000
  H   H200      1.0  0.13915  0.13993  0.25673  1.0000
  H   H201      1.0  0.13103  0.14456  0.27414  1.0000
  H   H202      1.0  0.10184  0.16291  0.24549  1.0000
  H   H203      1.0  0.11406  0.16558  0.23713  1.0000
  H   H204      1.0  0.11059  0.15306  0.23870  1.0000
  C   C222      1.0  0.22607  0.40370  0.23262  1.0000
  C   C223      1.0  0.23345  0.08803  0.30919  1.0000
  C   C224      1.0  0.10660  0.22443  0.17984  1.0000
  S   S89       1.0  0.23314  0.42937  0.26168  1.0000
  C   C225      1.0  0.07107  0.26768  0.19349  1.0000
  H   H205      1.0  0.23924  0.38674  0.25077  1.0000
  C   C226      1.0  0.22531  0.45912  0.29264  1.0000
  C   C227      1.0  0.15936  0.28125  0.19393  1.0000
  H   H206      1.0  0.24009  0.48068  0.27622  1.0000
  H   H207      1.0  0.02515  0.22525  0.22305  1.0000
  C   C228      1.0  0.23088  0.10576  0.28424  1.0000
  H   H208      1.0  0.24016  0.99282  0.19412  1.0000
  H   H209      1.0  0.22176  0.40378  0.22683  1.0000
  H   H210      1.0  0.01961  0.24774  0.25088  1.0000
  H   H211      1.0  0.23695  0.16151  0.33160  1.0000
  H   H212      1.0  0.20267  0.40687  0.29425  1.0000
  H   H213      1.0  0.15803  0.25642  0.26847  1.0000
  N   N14       1.0  0.18613  0.24728  0.31587  1.0000
  C   C229      1.0  0.17772  0.25517  0.31358  1.0000
  C   C230      1.0  0.19102  0.24732  0.32354  1.0000
  C   C231      1.0  0.17406  0.26344  0.31895  1.0000
  C   C232      1.0  0.18763  0.25551  0.32902  1.0000
  C   C233      1.0  0.17905  0.26358  0.32673  1.0000
  C   C234      1.0  0.18949  0.23838  0.31059  1.0000
  H   H214      1.0  0.17376  0.25508  0.30758  1.0000
  H   H215      1.0  0.19747  0.24089  0.32561  1.0000
  H   H216      1.0  0.16733  0.26962  0.31714  1.0000
  H   H217      1.0  0.19140  0.25541  0.33524  1.0000
  H   H218      1.0  0.17620  0.26983  0.33111  1.0000
  H   H219      1.0  0.18749  0.24072  0.30266  1.0000
  H   H220      1.0  0.19817  0.23539  0.30939  1.0000
  H   H221      1.0  0.18550  0.23189  0.31543  1.0000
  C   C235      1.0  0.08038  0.27397  0.20308  1.0000
  H   H222      1.0  0.09616  0.22708  0.21827  1.0000
  H   H223      1.0  0.20265  0.05138  0.23433  1.0000
  C   C236      1.0  0.09124  0.21246  0.18690  1.0000
  C   C237      1.0  0.03008  0.25665  0.27064  1.0000
  C   C238      1.0  0.23456  0.36947  0.18194  1.0000
  H   H224      1.0  0.20114  0.10601  0.28823  1.0000
  C   C239      1.0  0.99720  0.20697  0.21296  1.0000
  H   H225      1.0  0.11706  0.27433  0.28212  1.0000
  C   C240      1.0  0.06929  0.22145  0.24911  1.0000
  C   C241      1.0  0.23175  0.41293  0.24245  1.0000
  C   C242      1.0  0.09370  0.24984  0.18094  1.0000
  C   C243      1.0  0.99796  0.21634  0.20546  1.0000
  C   C244      1.0  0.10584  0.21774  0.18978  1.0000
  C   C245      1.0  0.14826  0.26381  0.25702  1.0000
  C   C246      1.0  0.22926  0.47904  0.26780  1.0000
  H   H226      1.0  0.15251  0.26453  0.18895  1.0000
  H   H227      1.0  0.20918  0.38140  0.28670  1.0000
  S   S90       1.0  0.22686  0.11822  0.29872  1.0000
  C   C247      1.0  0.18822  0.15315  0.22402  1.0000
  C   C248      1.0  0.17463  0.16872  0.22070  1.0000
  C   C249      1.0  0.20247  0.38702  0.28405  1.0000
  N   N15       1.0  0.20012  0.39717  0.28538  1.0000
  C   C250      1.0  0.20714  0.40068  0.28974  1.0000
  C   C251      1.0  0.18450  0.23221  0.34844  1.0000
  C   C252      1.0  0.13138  0.21001  0.30606  1.0000
  C   C253      1.0  0.00582  0.20171  0.21779  1.0000
  H   H228      1.0  0.16996  0.17445  0.21543  1.0000
  Fe  Fe42      1.0  0.23121  0.29755  0.36146  1.0000
  C   C254      1.0  0.18821  0.39113  0.27493  1.0000
  H   H229      1.0  0.18379  0.38886  0.27054  1.0000
  H   H230      1.0  0.14426  0.26222  0.28327  1.0000
  H   H231      1.0  0.01811  0.26051  0.23109  1.0000
  N   N16       1.0  0.09201  0.21908  0.17717  1.0000
  H   H232      1.0  0.22969  0.35083  0.23339  1.0000
  C   C255      1.0  0.18127  0.31875  0.25356  1.0000
  H   H233      1.0  0.19402  0.14650  0.22145  1.0000
  H   H234      1.0  0.21134  0.39404  0.29507  1.0000
  C   C256      1.0  0.22424  0.08776  0.30647  1.0000
  C   C257      1.0  0.13838  0.26976  0.25542  1.0000
  H   H235      1.0  0.13675  0.27212  0.24756  1.0000
  C   C258      1.0  0.14254  0.26431  0.27547  1.0000
  S   S91       1.0  0.18028  0.24710  0.36061  1.0000
  H   H236      1.0  0.07514  0.27114  0.21035  1.0000
  H   H237      1.0  0.18255  0.33255  0.25796  1.0000
  H   H238      1.0  0.20675  0.11629  0.29765  1.0000
  H   H239      1.0  0.23320  0.09333  0.31410  1.0000
  C   C259      1.0  0.18228  0.16041  0.21714  1.0000
  H   H240      1.0  0.23005  0.38675  0.23715  1.0000
  H   H241      1.0  0.21762  0.08149  0.29725  1.0000
  C   C260      1.0  0.20943  0.10604  0.28699  1.0000
  C   C261      1.0  0.20969  0.47160  0.28733  1.0000
  H   H242      1.0  0.10380  0.22207  0.22839  1.0000
  H   H243      1.0  0.19033  0.41252  0.28229  1.0000
  H   H244      1.0  0.17956  0.40726  0.27313  1.0000
  C   C262      1.0  0.23325  0.33054  0.32842  1.0000
  C   C263      1.0  0.07268  0.21674  0.24041  1.0000
  H   H245      1.0  0.19173  0.22889  0.35130  1.0000
  N   N17       1.0  0.13293  0.27029  0.27380  1.0000
  C   C264      1.0  0.13077  0.27298  0.26395  1.0000
  H   H246      1.0  0.18933  0.31731  0.24912  1.0000
  C   C265      1.0  0.02358  0.23300  0.22477  1.0000
  H   H247      1.0  0.06206  0.22019  0.25474  1.0000
  H   H248      1.0  0.09892  0.24857  0.18621  1.0000
  C   C266      1.0  0.23968  0.35537  0.21819  1.0000
  N   N18       1.0  0.02436  0.24406  0.23576  1.0000
  H   H249      1.0  0.09754  0.23592  0.22530  1.0000
  S   S92       1.0  0.22438  0.29690  0.34836  1.0000
  S   S93       1.0  0.21383  0.47666  0.25903  1.0000
  H   H250      1.0  0.18356  0.15957  0.20909  1.0000
  C   C267      1.0  0.15529  0.27137  0.18322  1.0000
  H   H251      1.0  0.13780  0.28654  0.18378  1.0000
  H   H252      1.0  0.12661  0.26984  0.29024  1.0000
  H   H253      1.0  0.12568  0.28280  0.28176  1.0000
  C   C268      1.0  0.23053  0.27050  0.33709  1.0000
  C   C269      1.0  0.01714  0.25181  0.22027  1.0000
  C   C270      1.0  0.23044  0.20596  0.36318  1.0000
  C   C271      1.0  0.22943  0.12911  0.26785  1.0000
  H   H254      1.0  0.01416  0.25662  0.26997  1.0000
  C   C272      1.0  0.12460  0.21992  0.30533  1.0000
  H   H255      1.0  0.06812  0.21177  0.23928  1.0000
  H   H256      1.0  0.03001  0.22737  0.23868  1.0000
  C   C273      1.0  0.08409  0.23001  0.24272  1.0000
  H   H257      1.0  0.20008  0.21206  0.36863  1.0000
  H   H258      1.0  0.10140  0.28579  0.19448  1.0000
  S   S94       1.0  0.23010  0.31345  0.36418  1.0000
  C   C274      1.0  0.23828  0.98536  0.19864  1.0000
  N   N19       1.0  0.11652  0.21573  0.29351  1.0000
  H   H259      1.0  0.12529  0.22558  0.30939  1.0000
  C   C275      1.0  0.23067  0.39415  0.23844  1.0000
  C   C276      1.0  0.21261  0.11181  0.29234  1.0000
  C   C277      1.0  0.12301  0.20593  0.29434  1.0000
  C   C278      1.0  0.11714  0.22264  0.29902  1.0000
  C   C279      1.0  0.13051  0.20291  0.30064  1.0000
  H   H260      1.0  0.13598  0.19533  0.30086  1.0000
  N   N20       1.0  0.07927  0.27291  0.19364  1.0000
  C   C280      1.0  0.24040  0.18511  0.37033  1.0000
  H   H261      1.0  0.11402  0.22242  0.27806  1.0000
  C   C281      1.0  0.10956  0.21917  0.28597  1.0000
  H   H262      1.0  0.10656  0.21249  0.28535  1.0000
  Fe  Fe43      1.0  0.23499  0.44264  0.24775  1.0000
  Fe  Fe44      1.0  0.21871  0.24330  0.35931  1.0000
  H   H263      1.0  0.10266  0.22543  0.28827  1.0000
  C   C282      1.0  0.09510  0.28232  0.19422  1.0000
  H   H264      1.0  0.99856  0.22628  0.22376  1.0000
  S   S95       1.0  0.20988  0.23146  0.35912  1.0000
  H   H265      1.0  0.08935  0.27919  0.21106  1.0000
  H   H266      1.0  0.20117  0.07078  0.22811  1.0000
  N   N21       1.0  0.23420  0.07537  0.29565  1.0000
  H   H267      1.0  0.16654  0.27533  0.19469  1.0000
  C   C283      1.0  0.23458  0.36436  0.27302  1.0000
  C   C284      1.0  0.08522  0.24458  0.18404  1.0000
  C   C285      1.0  0.15680  0.28954  0.19920  1.0000
  C   C286      1.0  0.23637  0.12376  0.20301  1.0000
  H   H268      1.0  0.03173  0.27496  0.28142  1.0000
  C   C287      1.0  0.22890  0.28106  0.33772  1.0000
  S   S96       1.0  0.12920  0.24413  0.17728  1.0000
  Fe  Fe45      1.0  0.14053  0.25326  0.17832  1.0000
  H   H269      1.0  0.23242  0.26842  0.32948  1.0000
  H   H270      1.0  0.16187  0.28997  0.20406  1.0000
  S   S97       1.0  0.23130  0.38346  0.27853  1.0000
  H   H271      1.0  0.22383  0.27790  0.36437  1.0000
  C   C288      1.0  0.99379  0.22453  0.23164  1.0000
  H   H272      1.0  0.23581  0.10148  0.19538  1.0000
  C   C289      1.0  0.23461  0.06906  0.28817  1.0000
  H   H273      1.0  0.22289  0.42064  0.23028  1.0000
  H   H274      1.0  0.23267  0.47080  0.26788  1.0000
  C   C290      1.0  0.23751  0.35201  0.22916  1.0000
  H   H275      1.0  0.14506  0.30313  0.20310  1.0000
  H   H276      1.0  0.08529  0.20770  0.18974  1.0000
  H   H277      1.0  0.23872  0.33161  0.35846  1.0000
  C   C291      1.0  0.23461  0.32060  0.33507  1.0000
  H   H278      1.0  0.24026  0.36124  0.27800  1.0000
  H   H279      1.0  0.99206  0.22609  0.25682  1.0000
  H   H280      1.0  0.20438  0.30751  0.36413  1.0000
  H   H281      1.0  0.24032  0.20428  0.34798  1.0000
  H   H282      1.0  0.23348  0.09547  0.27353  1.0000
  H   H283      1.0  0.21682  0.09285  0.30927  1.0000
  H   H284      1.0  0.23180  0.45944  0.28552  1.0000
  H   H285      1.0  0.23731  0.04893  0.21738  1.0000
  C   C292      1.0  0.22475  0.08134  0.29966  1.0000
  H   H286      1.0  0.22589  0.33626  0.32978  1.0000
  Fe  Fe46      1.0  0.19561  0.24213  0.36647  1.0000
  C   C293      1.0  0.07853  0.24609  0.17713  1.0000
  H   H287      1.0  0.09918  0.28394  0.17733  1.0000
  C   C294      1.0  0.23815  0.20044  0.35616  1.0000
  H   H288      1.0  0.23916  0.10549  0.28331  1.0000
  H   H289      1.0  0.00324  0.22997  0.23877  1.0000
  N   N22       1.0  0.18357  0.21282  0.37225  1.0000
  Fe  Fe47      1.0  0.99537  0.26543  0.25096  1.0000
  Fe  Fe48      1.0  0.23394  0.44052  0.27091  1.0000
  C   C295      1.0  0.16451  0.22009  0.36563  1.0000
  S   S98       1.0  0.23897  0.11874  0.23314  1.0000
  C   C296      1.0  0.99646  0.22654  0.24010  1.0000
  H   H290      1.0  0.22822  0.31844  0.34151  1.0000
  H   H291      1.0  0.22883  0.45676  0.29971  1.0000
  N   N23       1.0  0.23623  0.40352  0.24813  1.0000
  C   C297      1.0  0.23579  0.39421  0.24619  1.0000
  C   C298      1.0  0.23590  0.98347  0.20965  1.0000
  H   H292      1.0  0.23624  0.34946  0.26894  1.0000
  C   C299      1.0  0.19385  0.20924  0.37526  1.0000
  S   S99       1.0  0.23614  0.99281  0.21670  1.0000
  H   H293      1.0  0.20087  0.27540  0.37592  1.0000
  H   H294      1.0  0.16193  0.23263  0.37376  1.0000
  H   H295      1.0  0.99142  0.22052  0.20170  1.0000
  C   C300      1.0  0.22741  0.20097  0.37370  1.0000
  H   H296      1.0  0.15155  0.27320  0.17633  1.0000
  H   H297      1.0  0.23013  0.18666  0.38542  1.0000
  Fe  Fe49      1.0  0.20746  0.24613  0.38140  1.0000
  S   S100      1.0  0.23495  0.24987  0.47760  1.0000
  S   S101      1.0  0.20764  0.25664  0.39195  1.0000
  H   H298      1.0  0.22213  0.30090  0.55277  1.0000
  H   H299      1.0  0.23136  0.24884  0.49981  1.0000
  S   S102      1.0  0.21722  0.20757  0.38237  1.0000
  H   H300      1.0  0.19603  0.20050  0.37746  1.0000
  S   S103      1.0  0.19728  0.23465  0.38324  1.0000
  N   N24       1.0  0.21365  0.27452  0.47850  1.0000
  H   H301      1.0  0.21308  0.27193  0.55979  1.0000
  Fe  Fe50      1.0  0.22556  0.28161  0.53948  1.0000
  H   H302      1.0  0.23009  0.28350  0.41951  1.0000
  S   S104      1.0  0.20956  0.29147  0.54442  1.0000
  H   H303      1.0  0.22571  0.29268  0.46020  1.0000
  H   H304      1.0  0.23840  0.24628  0.53126  1.0000
  Fe  Fe51      1.0  0.22984  0.25064  0.44122  1.0000
  C   C301      1.0  0.22161  0.30892  0.54763  1.0000
  S   S105      1.0  0.22269  0.24029  0.43557  1.0000
  C   C302      1.0  0.23244  0.19055  0.37728  1.0000
  C   C303      1.0  0.23895  0.25688  0.48471  1.0000
  H   H305      1.0  0.21349  0.31359  0.54981  1.0000
  Fe  Fe52      1.0  0.22982  0.27287  0.44215  1.0000
  S   S106      1.0  0.22147  0.28991  0.43969  1.0000
  C   C304      1.0  0.23894  0.23762  0.39870  1.0000
  H   H306      1.0  0.23619  0.23640  0.39235  1.0000
  S   S107      1.0  0.22147  0.26053  0.45326  1.0000
  C   C305      1.0  0.20161  0.30199  0.38107  1.0000
  N   N25       1.0  0.20006  0.29365  0.38932  1.0000
  C   C306      1.0  0.23518  0.32291  0.55876  1.0000
  H   H307      1.0  0.21482  0.28002  0.46190  1.0000
  S   S108      1.0  0.21604  0.31320  0.39343  1.0000
  H   H308      1.0  0.23361  0.32647  0.56552  1.0000
  H   H309      1.0  0.20218  0.30938  0.38244  1.0000
  H   H310      1.0  0.21979  0.31943  0.56237  1.0000
  H   H311      1.0  0.20320  0.26888  0.47287  1.0000
  S   S109      1.0  0.22907  0.26783  0.53182  1.0000
  H   H312      1.0  0.23253  0.29864  0.57361  1.0000
  H   H313      1.0  0.23966  0.25385  0.39155  1.0000
  C   C307      1.0  0.22561  0.22964  0.56964  1.0000
  C   C308      1.0  0.21983  0.29604  0.42677  1.0000
  H   H314      1.0  0.19872  0.27755  0.39406  1.0000
  C   C309      1.0  0.23298  0.22194  0.56483  1.0000
  C   C310      1.0  0.19974  0.28422  0.38754  1.0000
  H   H315      1.0  0.20165  0.26592  0.48691  1.0000
  H   H316      1.0  0.20938  0.30995  0.43148  1.0000
  H   H317      1.0  0.20729  0.29091  0.40221  1.0000
  C   C311      1.0  0.22247  0.28255  0.48657  1.0000
  C   C312      1.0  0.21190  0.25186  0.40402  1.0000
  C   C313      1.0  0.21447  0.25891  0.40846  1.0000
  C   C314      1.0  0.21773  0.25547  0.41813  1.0000
  C   C315      1.0  0.21834  0.24496  0.42352  1.0000
  C   C316      1.0  0.21566  0.23793  0.41914  1.0000
  C   C317      1.0  0.21255  0.24133  0.40937  1.0000
  H   H318      1.0  0.21401  0.26706  0.40438  1.0000
  H   H319      1.0  0.21967  0.26099  0.42145  1.0000
  H   H320      1.0  0.21602  0.22981  0.42330  1.0000
  H   H321      1.0  0.21048  0.23585  0.40608  1.0000
  H   H322      1.0  0.23166  0.21997  0.55807  1.0000
  C   C318      1.0  0.22408  0.29651  0.40796  1.0000
  Fe  Fe53      1.0  0.23621  0.25488  0.45986  1.0000
  S   S110      1.0  0.22737  0.28999  0.37858  1.0000
  H   H323      1.0  0.22823  0.29275  0.40142  1.0000
  C   C319      1.0  0.21762  0.30658  0.40620  1.0000
  C   C320      1.0  0.19948  0.29449  0.40009  1.0000
  H   H324      1.0  0.22478  0.28305  0.49352  1.0000
  H   H325      1.0  0.19348  0.29036  0.40581  1.0000
  H   H326      1.0  0.20725  0.31915  0.41335  1.0000
  C   C321      1.0  0.19947  0.29630  0.56354  1.0000
  C   C322      1.0  0.20550  0.28837  0.55819  1.0000
  C   C323      1.0  0.20868  0.27816  0.56390  1.0000
  C   C324      1.0  0.23595  0.25479  0.49577  1.0000
  C   C325      1.0  0.21346  0.30615  0.42495  1.0000
  H   H327      1.0  0.19689  0.30417  0.55915  1.0000
  C   C326      1.0  0.21693  0.28067  0.46888  1.0000
  H   H328      1.0  0.21296  0.25887  0.47897  1.0000
  H   H329      1.0  0.21419  0.27015  0.49481  1.0000
  C   C327      1.0  0.22309  0.28790  0.46788  1.0000
  C   C328      1.0  0.22508  0.29121  0.41826  1.0000
  C   C329      1.0  0.21644  0.27529  0.48726  1.0000
  C   C330      1.0  0.20756  0.26668  0.47935  1.0000
  Fe  Fe54      1.0  0.22804  0.30548  0.38122  1.0000
  H   H330      1.0  0.22273  0.30814  0.53937  1.0000
  H   H331      1.0  0.23919  0.30891  0.41893  1.0000
  C   C331      1.0  0.24021  0.22953  0.40759  1.0000
  C   C332      1.0  0.21226  0.31136  0.41470  1.0000
  H   H332      1.0  0.23076  0.29429  0.47614  1.0000
  H   H333      1.0  0.19733  0.30285  0.40089  1.0000
  C   C333      1.0  0.22586  0.28883  0.47680  1.0000
  S   S111      1.0  0.23710  0.26341  0.42969  1.0000
  S   S112      1.0  0.23549  0.27361  0.55151  1.0000
  C   C334      1.0  0.22741  0.31887  0.55697  1.0000
  H   H334      1.0  0.23622  0.25890  0.51015  1.0000
  Fe  Fe55      1.0  0.24023  0.26051  0.54285  1.0000
  N   N26       1.0  0.22956  0.31386  0.54881  1.0000
  C   C335      1.0  0.23869  0.26048  0.50165  1.0000
  H   H335      1.0  0.19386  0.21221  0.38220  1.0000
  H   H336      1.0  0.23851  0.22199  0.40799  1.0000
  H   H337      1.0  0.23626  0.22028  0.42859  1.0000
  H   H338      1.0  0.17890  0.22613  0.37946  1.0000
  C   C336      1.0  0.23937  0.31264  0.54234  1.0000
  C   C337      1.0  0.19702  0.29414  0.57458  1.0000
  H   H339      1.0  0.23911  0.29036  0.55813  1.0000
  S   S113      1.0  0.23806  0.28944  0.52792  1.0000
  H   H340      1.0  0.21849  0.23365  0.56671  1.0000
  C   C338      1.0  0.20601  0.27595  0.57495  1.0000
  C   C339      1.0  0.20092  0.28297  0.37729  1.0000
  C   C340      1.0  0.10367  0.25984  0.70902  1.0000
  S   S114      1.0  0.19587  0.25411  0.61296  1.0000
  H   H341      1.0  0.99403  0.26469  0.70970  1.0000
  C   C341      1.0  0.09408  0.24422  0.73581  1.0000
  S   S115      1.0  0.21396  0.26562  0.61485  1.0000
  C   C342      1.0  0.14253  0.26844  0.65182  1.0000
  Fe  Fe56      1.0  0.20553  0.25282  0.62465  1.0000
  S   S116      1.0  0.19928  0.25249  0.64192  1.0000
  Fe  Fe57      1.0  0.20539  0.26587  0.60260  1.0000
  S   S117      1.0  0.19797  0.28178  0.59413  1.0000
  C   C343      1.0  0.21057  0.06301  0.75544  1.0000
  S   S118      1.0  0.23116  0.04720  0.76747  1.0000
  Fe  Fe58      1.0  0.14669  0.18395  0.73388  1.0000
  S   S119      1.0  0.15325  0.16873  0.74410  1.0000
  S   S120      1.0  0.14466  0.18663  0.71734  1.0000
  S   S121      1.0  0.17808  0.17189  0.75155  1.0000
  S   S122      1.0  0.20683  0.04317  0.75946  1.0000
  Fe  Fe59      1.0  0.14585  0.24612  0.67434  1.0000
  S   S123      1.0  0.12821  0.25147  0.67780  1.0000
  S   S124      1.0  0.15510  0.23957  0.66009  1.0000
  Fe  Fe60      1.0  0.14830  0.25039  0.69432  1.0000
  S   S125      1.0  0.13097  0.25643  0.69975  1.0000
  S   S126      1.0  0.16151  0.24683  0.70282  1.0000
  Fe  Fe61      1.0  0.12907  0.24289  0.69435  1.0000
  S   S127      1.0  0.11830  0.23271  0.70507  1.0000
  Fe  Fe62      1.0  0.13126  0.26472  0.68288  1.0000
  S   S128      1.0  0.12243  0.28138  0.67826  1.0000
  S   S129      1.0  0.14628  0.23608  0.69039  1.0000
  S   S130      1.0  0.14891  0.26019  0.67793  1.0000
  Fe  Fe63      1.0  0.11829  0.29493  0.75142  1.0000
  S   S131      1.0  0.11523  0.30610  0.73628  1.0000
  Fe  Fe64      1.0  0.13751  0.28153  0.74069  1.0000
  S   S132      1.0  0.13587  0.29137  0.72479  1.0000
  S   S133      1.0  0.15174  0.26842  0.74145  1.0000
  Fe  Fe65      1.0  0.13280  0.30518  0.73231  1.0000
  S   S134      1.0  0.14232  0.31757  0.72288  1.0000
  Fe  Fe66      1.0  0.11860  0.29113  0.73045  1.0000
  S   S135      1.0  0.10964  0.28866  0.71956  1.0000
  S   S136      1.0  0.13548  0.29523  0.74798  1.0000
  S   S137      1.0  0.12058  0.28006  0.74582  1.0000
  H   H342      1.0  0.16211  0.30662  0.76115  1.0000
  H   H343      1.0  0.20575  0.06987  0.72705  1.0000
  H   H344      1.0  0.22966  0.42340  0.76869  1.0000
  C   C344      1.0  0.23367  0.42994  0.76631  1.0000
  H   H345      1.0  0.16989  0.26189  0.62373  1.0000
  C   C345      1.0  0.16598  0.30701  0.75293  1.0000
  N   N27       1.0  0.15335  0.26863  0.64584  1.0000
  S   S138      1.0  0.20279  0.13582  0.72673  1.0000
  H   H346      1.0  0.11615  0.25957  0.72157  1.0000
  C   C346      1.0  0.16295  0.30194  0.74677  1.0000
  Fe  Fe67      1.0  0.06566  0.27448  0.69630  1.0000
  S   S139      1.0  0.05455  0.27902  0.71087  1.0000
  S   S140      1.0  0.07298  0.28680  0.68367  1.0000
  Fe  Fe68      1.0  0.06467  0.25160  0.70418  1.0000
  S   S141      1.0  0.05412  0.25401  0.71969  1.0000
  S   S142      1.0  0.06959  0.23617  0.69923  1.0000
  Fe  Fe69      1.0  0.04517  0.26787  0.70975  1.0000
  S   S143      1.0  0.02720  0.27110  0.71303  1.0000
  Fe  Fe70      1.0  0.06448  0.26483  0.71934  1.0000
  S   S144      1.0  0.07132  0.26529  0.73280  1.0000
  S   S145      1.0  0.05530  0.26491  0.69424  1.0000
  S   S146      1.0  0.07592  0.26079  0.70486  1.0000
  H   H347      1.0  0.17564  0.16716  0.73278  1.0000
  Fe  Fe71      1.0  0.17932  0.34583  0.73892  1.0000
  S   S147      1.0  0.19342  0.33379  0.74351  1.0000
  S   S148      1.0  0.16365  0.34049  0.74493  1.0000
  Fe  Fe72      1.0  0.19258  0.36280  0.72831  1.0000
  S   S149      1.0  0.20750  0.35178  0.73172  1.0000
  S   S150      1.0  0.19367  0.37957  0.71964  1.0000
  Fe  Fe73      1.0  0.20175  0.33991  0.72718  1.0000
  S   S151      1.0  0.21407  0.32907  0.71797  1.0000
  Fe  Fe74      1.0  0.19778  0.34684  0.74772  1.0000
  S   S152      1.0  0.20357  0.34435  0.76262  1.0000
  S   S153      1.0  0.18752  0.35129  0.72217  1.0000
  S   S154      1.0  0.18296  0.35852  0.74468  1.0000
  C   C347      1.0  0.21747  0.37947  0.68595  1.0000
  C   C348      1.0  0.21256  0.07248  0.74861  1.0000
  H   H348      1.0  0.11252  0.18161  0.73996  1.0000
  C   C349      1.0  0.15446  0.21489  0.76914  1.0000
  C   C350      1.0  0.20165  0.39382  0.75015  1.0000
  C   C351      1.0  0.22310  0.34895  0.68526  1.0000
  Fe  Fe75      1.0  0.21171  0.12101  0.73559  1.0000
  S   S155      1.0  0.22070  0.11994  0.74775  1.0000
  C   C352      1.0  0.15752  0.24070  0.75074  1.0000
  H   H349      1.0  0.04658  0.20091  0.75391  1.0000
  C   C353      1.0  0.10127  0.24474  0.74132  1.0000
  S   S156      1.0  0.08346  0.19946  0.73604  1.0000
  S   S157      1.0  0.22481  0.11069  0.72645  1.0000
  Fe  Fe76      1.0  0.21759  0.09734  0.73674  1.0000
  H   H350      1.0  0.21637  0.99492  0.75715  1.0000
  H   H351      1.0  0.14187  0.26020  0.65579  1.0000
  C   C354      1.0  0.20283  0.38564  0.72176  1.0000
  C   C355      1.0  0.20963  0.38028  0.72863  1.0000
  C   C356      1.0  0.21662  0.38541  0.73042  1.0000
  C   C357      1.0  0.21684  0.39595  0.72540  1.0000
  C   C358      1.0  0.21031  0.40121  0.71825  1.0000
  C   C359      1.0  0.20331  0.39607  0.71647  1.0000
  H   H352      1.0  0.20929  0.37231  0.73283  1.0000
  H   H353      1.0  0.22162  0.38130  0.73598  1.0000
  H   H354      1.0  0.21037  0.40935  0.71437  1.0000
  H   H355      1.0  0.19811  0.40026  0.71110  1.0000
  C   C360      1.0  0.16685  0.23328  0.75179  1.0000
  C   C361      1.0  0.99748  0.23227  0.72130  1.0000
  C   C362      1.0  0.10150  0.17680  0.77011  1.0000
  H   H356      1.0  0.10791  0.26641  0.70685  1.0000
  C   C363      1.0  0.20966  0.34361  0.70035  1.0000
  C   C364      1.0  0.21249  0.34989  0.69036  1.0000
  H   H357      1.0  0.14008  0.27328  0.65792  1.0000
  S   S158      1.0  0.15641  0.19340  0.73711  1.0000
  H   H358      1.0  0.20147  0.34443  0.70430  1.0000
  H   H359      1.0  0.20646  0.35565  0.68671  1.0000
  H   H360      1.0  0.99382  0.22061  0.75803  1.0000
  H   H361      1.0  0.21648  0.35657  0.74542  1.0000
  C   C365      1.0  0.08003  0.20977  0.72571  1.0000
  C   C366      1.0  0.07998  0.20752  0.71620  1.0000
  C   C367      1.0  0.07703  0.21571  0.70793  1.0000
  C   C368      1.0  0.07425  0.22614  0.70916  1.0000
  C   C369      1.0  0.07463  0.22843  0.71855  1.0000
  C   C370      1.0  0.07749  0.22023  0.72685  1.0000
  H   H362      1.0  0.08207  0.19943  0.71528  1.0000
  H   H363      1.0  0.07679  0.21396  0.70063  1.0000
  H   H364      1.0  0.07269  0.23651  0.71944  1.0000
  H   H365      1.0  0.07796  0.22203  0.73400  1.0000
  C   C371      1.0  0.00741  0.25590  0.70052  1.0000
  C   C372      1.0  0.01850  0.25355  0.69759  1.0000
  C   C373      1.0  0.02466  0.25811  0.70137  1.0000
  C   C374      1.0  0.01978  0.26497  0.70826  1.0000
  C   C375      1.0  0.00870  0.26728  0.71124  1.0000
  H   H366      1.0  0.19258  0.30037  0.57869  1.0000
  H   H367      1.0  0.02234  0.24827  0.69224  1.0000
  H   H368      1.0  0.03315  0.25646  0.69881  1.0000
  H   H369      1.0  0.17583  0.31730  0.75287  1.0000
  C   C376      1.0  0.20041  0.28400  0.58032  1.0000
  H   H370      1.0  0.20181  0.05333  0.73929  1.0000
  H   H371      1.0  0.00485  0.27264  0.71650  1.0000
  C   C377      1.0  0.19543  0.37470  0.75837  1.0000
  S   S159      1.0  0.00004  0.24989  0.69556  1.0000
  C   C378      1.0  0.15683  0.26485  0.63677  1.0000
  H   H372      1.0  0.18352  0.12965  0.74674  1.0000
  H   H373      1.0  0.23877  0.33853  0.74806  1.0000
  C   C379      1.0  0.14814  0.32401  0.72906  1.0000
  C   C380      1.0  0.15629  0.32920  0.72304  1.0000
  C   C381      1.0  0.16116  0.33428  0.72775  1.0000
  C   C382      1.0  0.15775  0.33438  0.73849  1.0000
  C   C383      1.0  0.14950  0.32931  0.74445  1.0000
  C   C384      1.0  0.14481  0.32404  0.73980  1.0000
  H   H374      1.0  0.15887  0.32929  0.71471  1.0000
  H   H375      1.0  0.16744  0.33821  0.72305  1.0000
  H   H376      1.0  0.14676  0.32940  0.75274  1.0000
  H   H377      1.0  0.13848  0.32017  0.74451  1.0000
  C   C385      1.0  0.09846  0.28286  0.72377  1.0000
  C   C386      1.0  0.09545  0.27746  0.73416  1.0000
  C   C387      1.0  0.08693  0.27232  0.73694  1.0000
  C   C388      1.0  0.08133  0.27262  0.72940  1.0000
  C   C389      1.0  0.08415  0.27829  0.71912  1.0000
  C   C390      1.0  0.09273  0.28330  0.71631  1.0000
  H   H378      1.0  0.09981  0.27707  0.73997  1.0000
  H   H379      1.0  0.08478  0.26792  0.74489  1.0000
  H   H380      1.0  0.07987  0.27865  0.71325  1.0000
  H   H381      1.0  0.09501  0.28740  0.70824  1.0000
  C   C391      1.0  0.15881  0.25331  0.71321  1.0000
  C   C392      1.0  0.16663  0.25186  0.71882  1.0000
  C   C393      1.0  0.16451  0.25668  0.72739  1.0000
  C   C394      1.0  0.15453  0.26288  0.73041  1.0000
  C   C395      1.0  0.14667  0.26424  0.72486  1.0000
  C   C396      1.0  0.14883  0.25952  0.71622  1.0000
  H   H382      1.0  0.17435  0.24702  0.71654  1.0000
  H   H383      1.0  0.17058  0.25555  0.73172  1.0000
  H   H384      1.0  0.13885  0.26879  0.72732  1.0000
  H   H385      1.0  0.14276  0.26066  0.71195  1.0000
  C   C397      1.0  0.10872  0.28266  0.67980  1.0000
  C   C398      1.0  0.10232  0.29268  0.67739  1.0000
  C   C399      1.0  0.09139  0.29388  0.67858  1.0000
  C   C400      1.0  0.08676  0.28506  0.68224  1.0000
  C   C401      1.0  0.09319  0.27501  0.68450  1.0000
  C   C402      1.0  0.10412  0.27382  0.68335  1.0000
  H   H386      1.0  0.10582  0.29955  0.67451  1.0000
  H   H387      1.0  0.08652  0.30165  0.67667  1.0000
  H   H388      1.0  0.08983  0.26811  0.68679  1.0000
  H   H389      1.0  0.10899  0.26604  0.68508  1.0000
  C   C403      1.0  0.18514  0.16204  0.74451  1.0000
  C   C404      1.0  0.19621  0.14591  0.73361  1.0000
  C   C405      1.0  0.19925  0.14656  0.74253  1.0000
  C   C406      1.0  0.19375  0.15466  0.74793  1.0000
  H   H390      1.0  0.20583  0.14086  0.74526  1.0000
  H   H391      1.0  0.19610  0.15515  0.75483  1.0000
  C   C407      1.0  0.13766  0.19957  0.71376  1.0000
  C   C408      1.0  0.13519  0.20655  0.72052  1.0000
  C   C409      1.0  0.12941  0.21681  0.71775  1.0000
  C   C410      1.0  0.12616  0.22015  0.70816  1.0000
  C   C411      1.0  0.12881  0.21327  0.70126  1.0000
  C   C412      1.0  0.13450  0.20295  0.70410  1.0000
  H   H392      1.0  0.13768  0.20407  0.72794  1.0000
  H   H393      1.0  0.12736  0.22212  0.72309  1.0000
  H   H394      1.0  0.12625  0.21585  0.69385  1.0000
  H   H395      1.0  0.13637  0.19756  0.69886  1.0000
  C   C413      1.0  0.18761  0.24774  0.64734  1.0000
  C   C414      1.0  0.18359  0.24309  0.64157  1.0000
  C   C415      1.0  0.17371  0.24034  0.64565  1.0000
  C   C416      1.0  0.16782  0.24225  0.65548  1.0000
  C   C417      1.0  0.17206  0.24646  0.66143  1.0000
  C   C418      1.0  0.18193  0.24919  0.65737  1.0000
  H   H396      1.0  0.18803  0.24174  0.63392  1.0000
  H   H397      1.0  0.17054  0.23693  0.64108  1.0000
  H   H398      1.0  0.16777  0.24762  0.66917  1.0000
  H   H399      1.0  0.18507  0.25267  0.66192  1.0000
  H   H400      1.0  0.23790  0.42916  0.65701  1.0000
  H   H401      1.0  0.13316  0.29132  0.69015  1.0000
  C   C419      1.0  0.22484  0.28392  0.59452  1.0000
  H   H402      1.0  0.10050  0.24102  0.74962  1.0000
  S   S160      1.0  0.14875  0.18288  0.76213  1.0000
  H   H403      1.0  0.18539  0.15296  0.72318  1.0000
  H   H404      1.0  0.15024  0.23532  0.72428  1.0000
  C   C420      1.0  0.03809  0.20210  0.75635  1.0000
  C   C421      1.0  0.22789  0.35951  0.75214  1.0000
  S   S161      1.0  0.20938  0.22788  0.60118  1.0000
  H   H405      1.0  0.22238  0.36078  0.70106  1.0000
  H   H406      1.0  0.17871  0.30929  0.72339  1.0000
  Fe  Fe77      1.0  0.14250  0.19662  0.75018  1.0000
  C   C422      1.0  0.21647  0.36775  0.70335  1.0000
  H   H407      1.0  0.08935  0.24885  0.72095  1.0000
  Fe  Fe78      1.0  0.20958  0.24215  0.60656  1.0000
  H   H408      1.0  0.20418  0.40124  0.74670  1.0000
  H   H409      1.0  0.21903  0.38996  0.67063  1.0000
  H   H410      1.0  0.22424  0.38249  0.70703  1.0000
  C   C423      1.0  0.23948  0.06611  0.73732  1.0000
  C   C424      1.0  0.00254  0.26279  0.70738  1.0000
  H   H411      1.0  0.18430  0.31844  0.73395  1.0000
  C   C425      1.0  0.23527  0.43430  0.77394  1.0000
  C   C426      1.0  0.20695  0.06805  0.73502  1.0000
  C   C427      1.0  0.21555  0.45559  0.68962  1.0000
  H   H412      1.0  0.22858  0.39866  0.69455  1.0000
  N   N28       1.0  0.11011  0.19652  0.72922  1.0000
  S   S162      1.0  0.21563  0.08540  0.72904  1.0000
  C   C428      1.0  0.10829  0.20158  0.71942  1.0000
  C   C429      1.0  0.10474  0.21303  0.73478  1.0000
  C   C430      1.0  0.10444  0.21248  0.71713  1.0000
  C   C431      1.0  0.10270  0.21822  0.72486  1.0000
  C   C432      1.0  0.11426  0.18510  0.73138  1.0000
  H   H413      1.0  0.22119  0.28994  0.61250  1.0000
  H   H414      1.0  0.10976  0.19720  0.71333  1.0000
  C   C433      1.0  0.09508  0.24915  0.72514  1.0000
  H   H415      1.0  0.10296  0.21650  0.70937  1.0000
  H   H416      1.0  0.09988  0.22668  0.72305  1.0000
  C   C434      1.0  0.23154  0.20275  0.61963  1.0000
  S   S163      1.0  0.22087  0.43066  0.70770  1.0000
  H   H417      1.0  0.99760  0.23314  0.71303  1.0000
  H   H418      1.0  0.23960  0.19859  0.60472  1.0000
  C   C435      1.0  0.14041  0.21721  0.76010  1.0000
  S   S164      1.0  0.13210  0.16224  0.76983  1.0000
  H   H419      1.0  0.23126  0.23182  0.59666  1.0000
  H   H420      1.0  0.16929  0.28958  0.72980  1.0000
  H   H421      1.0  0.22186  0.23841  0.58174  1.0000
  H   H422      1.0  0.18390  0.38076  0.74859  1.0000
  S   S165      1.0  0.03958  0.21281  0.77070  1.0000
  H   H423      1.0  0.19314  0.36713  0.76159  1.0000
  H   H424      1.0  0.21920  0.44780  0.68747  1.0000
  Fe  Fe79      1.0  0.07737  0.21727  0.76677  1.0000
  H   H425      1.0  0.23398  0.32903  0.70337  1.0000
  C   C436      1.0  0.19020  0.38236  0.75114  1.0000
  H   H426      1.0  0.21255  0.45411  0.69830  1.0000
  N   N29       1.0  0.04358  0.29386  0.68405  1.0000
  C   C437      1.0  0.04929  0.28922  0.67580  1.0000
  C   C438      1.0  0.03423  0.29121  0.68971  1.0000
  C   C439      1.0  0.04548  0.28199  0.67282  1.0000
  C   C440      1.0  0.03013  0.28413  0.68685  1.0000
  C   C441      1.0  0.03581  0.27947  0.67838  1.0000
  C   C442      1.0  0.04765  0.30138  0.68713  1.0000
  H   H427      1.0  0.05692  0.29098  0.67157  1.0000
  H   H428      1.0  0.02991  0.29449  0.69655  1.0000
  H   H429      1.0  0.05011  0.27823  0.66638  1.0000
  H   H430      1.0  0.02268  0.28211  0.69134  1.0000
  H   H431      1.0  0.03280  0.27377  0.67628  1.0000
  H   H432      1.0  0.05362  0.30481  0.68059  1.0000
  H   H433      1.0  0.04120  0.30799  0.68944  1.0000
  H   H434      1.0  0.05157  0.29733  0.69385  1.0000
  N   N30       1.0  0.16432  0.21405  0.68328  1.0000
  C   C443      1.0  0.16048  0.20844  0.69302  1.0000
  C   C444      1.0  0.16994  0.22148  0.68230  1.0000
  C   C445      1.0  0.16219  0.21025  0.70211  1.0000
  C   C446      1.0  0.17177  0.22352  0.69123  1.0000
  C   C447      1.0  0.16168  0.21265  0.67395  1.0000
  H   H435      1.0  0.15593  0.20262  0.69383  1.0000
  H   H436      1.0  0.17276  0.22611  0.67461  1.0000
  H   H437      1.0  0.16196  0.20421  0.67445  1.0000
  H   H438      1.0  0.15362  0.21734  0.67325  1.0000
  H   H439      1.0  0.16726  0.21542  0.66660  1.0000
  H   H440      1.0  0.15170  0.26157  0.63415  1.0000
  C   C448      1.0  0.00446  0.22321  0.73683  1.0000
  C   C449      1.0  0.23883  0.22701  0.63181  1.0000
  Fe  Fe80      1.0  0.22980  0.41705  0.71795  1.0000
  H   H441      1.0  0.13685  0.27164  0.64650  1.0000
  H   H442      1.0  0.12807  0.23110  0.76145  1.0000
  C   C450      1.0  0.14945  0.22422  0.77269  1.0000
  H   H443      1.0  0.21557  0.07777  0.75123  1.0000
  S   S166      1.0  0.21845  0.23987  0.61914  1.0000
  H   H444      1.0  0.08758  0.24030  0.73985  1.0000
  Fe  Fe81      1.0  0.07703  0.19402  0.77439  1.0000
  C   C451      1.0  0.08695  0.25752  0.77505  1.0000
  H   H445      1.0  0.16441  0.30225  0.72172  1.0000
  S   S167      1.0  0.10732  0.29745  0.76664  1.0000
  Fe  Fe82      1.0  0.22888  0.44119  0.71207  1.0000
  H   H446      1.0  0.17589  0.22970  0.69046  1.0000
  C   C452      1.0  0.16415  0.29754  0.72991  1.0000
  C   C453      1.0  0.22643  0.35279  0.77089  1.0000
  H   H447      1.0  0.12301  0.27784  0.76912  1.0000
  S   S168      1.0  0.22070  0.45746  0.71559  1.0000
  H   H448      1.0  0.16894  0.21965  0.70816  1.0000
  Fe  Fe83      1.0  0.07728  0.20409  0.75161  1.0000
  H   H449      1.0  0.15899  0.20585  0.70981  1.0000
  H   H450      1.0  0.23597  0.13125  0.72751  1.0000
  N   N31       1.0  0.16742  0.30288  0.73626  1.0000
  C   C454      1.0  0.22551  0.39328  0.69204  1.0000
  S   S169      1.0  0.06696  0.19407  0.76359  1.0000
  H   H451      1.0  0.22793  0.29998  0.60361  1.0000
  C   C455      1.0  0.20697  0.05597  0.75198  1.0000
  Fe  Fe84      1.0  0.23563  0.42801  0.69524  1.0000
  N   N32       1.0  0.20700  0.38610  0.75693  1.0000
  C   C456      1.0  0.17374  0.31294  0.74831  1.0000
  N   N33       1.0  0.23486  0.33599  0.73474  1.0000
  C   C457      1.0  0.23083  0.34139  0.68994  1.0000
  H   H452      1.0  0.09599  0.28009  0.76981  1.0000
  Fe  Fe85      1.0  0.23318  0.10835  0.73943  1.0000
  S   S170      1.0  0.06726  0.21952  0.75505  1.0000
  C   C458      1.0  0.22246  0.99091  0.76158  1.0000
  H   H453      1.0  0.08321  0.25337  0.77168  1.0000
  S   S171      1.0  0.22659  0.35756  0.67327  1.0000
  H   H454      1.0  0.17154  0.23378  0.75699  1.0000
  H   H455      1.0  0.23175  0.36377  0.74473  1.0000
  C   C459      1.0  0.16103  0.15176  0.76793  1.0000
  H   H456      1.0  0.20880  0.45934  0.68566  1.0000
  C   C460      1.0  0.17670  0.13907  0.77284  1.0000
  N   N34       1.0  0.11156  0.30824  0.70008  1.0000
  C   C461      1.0  0.11614  0.31322  0.70472  1.0000
  C   C462      1.0  0.11759  0.30049  0.69489  1.0000
  C   C463      1.0  0.12707  0.31063  0.70401  1.0000
  C   C464      1.0  0.12851  0.29764  0.69409  1.0000
  C   C465      1.0  0.13327  0.30278  0.69866  1.0000
  C   C466      1.0  0.10005  0.31083  0.70129  1.0000
  H   H457      1.0  0.11133  0.31907  0.70919  1.0000
  H   H458      1.0  0.11392  0.29618  0.69167  1.0000
  H   H459      1.0  0.13066  0.31449  0.70783  1.0000
  H   H460      1.0  0.14171  0.30052  0.69829  1.0000
  H   H461      1.0  0.09632  0.30765  0.70956  1.0000
  H   H462      1.0  0.09712  0.31950  0.69935  1.0000
  H   H463      1.0  0.09751  0.30730  0.69606  1.0000
  N   N35       1.0  0.15428  0.23163  0.73921  1.0000
  C   C467      1.0  0.15131  0.23977  0.74436  1.0000
  C   C468      1.0  0.16351  0.22439  0.74006  1.0000
  C   C469      1.0  0.21603  0.38799  0.75974  1.0000
  C   C470      1.0  0.16991  0.22508  0.74640  1.0000
  H   H464      1.0  0.23274  0.33427  0.72021  1.0000
  C   C471      1.0  0.14775  0.23087  0.73242  1.0000
  H   H465      1.0  0.14409  0.24563  0.74359  1.0000
  H   H466      1.0  0.16586  0.21793  0.73600  1.0000
  N   N36       1.0  0.23218  0.28527  0.59908  1.0000
  H   H467      1.0  0.22685  0.23559  0.64253  1.0000
  H   H468      1.0  0.12114  0.21257  0.77197  1.0000
  H   H469      1.0  0.22646  0.34380  0.65954  1.0000
  H   H470      1.0  0.22608  0.40244  0.67617  1.0000
  H   H471      1.0  0.02797  0.18431  0.77444  1.0000
  N   N37       1.0  0.04327  0.23181  0.72051  1.0000
  C   C472      1.0  0.04995  0.22325  0.72507  1.0000
  C   C473      1.0  0.03648  0.23869  0.72638  1.0000
  C   C474      1.0  0.04999  0.22144  0.73577  1.0000
  C   C475      1.0  0.03631  0.23712  0.73712  1.0000
  C   C476      1.0  0.04313  0.22843  0.74182  1.0000
  C   C477      1.0  0.04355  0.23392  0.70920  1.0000
  H   H472      1.0  0.05544  0.21786  0.72042  1.0000
  H   H473      1.0  0.03137  0.24563  0.72270  1.0000
  H   H474      1.0  0.05544  0.21475  0.73930  1.0000
  H   H475      1.0  0.03110  0.24272  0.74170  1.0000
  H   H476      1.0  0.04318  0.22718  0.75011  1.0000
  H   H477      1.0  0.04644  0.24129  0.70520  1.0000
  H   H478      1.0  0.04903  0.22753  0.70543  1.0000
  H   H479      1.0  0.03556  0.23477  0.70782  1.0000
  C   C478      1.0  0.23779  0.46736  0.70772  1.0000
  S   S172      1.0  0.08817  0.20278  0.76200  1.0000
  S   S173      1.0  0.22457  0.40255  0.72907  1.0000
  N   N38       1.0  0.23376  0.13219  0.71217  1.0000
  H   H480      1.0  0.10783  0.25403  0.70401  1.0000
  C   C479      1.0  0.23286  0.20344  0.60883  1.0000
  H   H481      1.0  0.11490  0.25075  0.74036  1.0000
  N   N39       1.0  0.21894  0.37742  0.69601  1.0000
  C   C480      1.0  0.21114  0.07479  0.73827  1.0000
  S   S174      1.0  0.13467  0.21307  0.75217  1.0000
  C   C481      1.0  0.03276  0.20770  0.76428  1.0000
  Fe  Fe86      1.0  0.99678  0.19495  0.75308  1.0000
  C   C482      1.0  0.19323  0.39204  0.74710  1.0000
  Fe  Fe87      1.0  0.22608  0.25266  0.60826  1.0000
  H   H482      1.0  0.03939  0.17821  0.76607  1.0000
  H   H483      1.0  0.13927  0.23405  0.73545  1.0000
  Fe  Fe88      1.0  0.21371  0.10580  0.75627  1.0000
  C   C483      1.0  0.99647  0.22807  0.75387  1.0000
  H   H484      1.0  0.09685  0.18160  0.76447  1.0000
  C   C484      1.0  0.21741  0.33618  0.70510  1.0000
  C   C485      1.0  0.22742  0.04643  0.73217  1.0000
  H   H485      1.0  0.22483  0.04576  0.71731  1.0000
  H   H486      1.0  0.21638  0.36781  0.71159  1.0000
  C   C486      1.0  0.16002  0.27223  0.64946  1.0000
  C   C487      1.0  0.16709  0.26500  0.63085  1.0000
  C   C488      1.0  0.17035  0.27242  0.64378  1.0000
  C   C489      1.0  0.17386  0.26886  0.63438  1.0000
  H   H487      1.0  0.15741  0.27488  0.65684  1.0000
  H   H488      1.0  0.17573  0.27502  0.64677  1.0000
  H   H489      1.0  0.18195  0.26872  0.63004  1.0000
  H   H490      1.0  0.01063  0.21895  0.72165  1.0000
  N   N40       1.0  0.17029  0.14335  0.76573  1.0000
  H   H491      1.0  0.09575  0.26336  0.70721  1.0000
  H   H492      1.0  0.22380  0.00521  0.76506  1.0000
  H   H493      1.0  0.10998  0.19811  0.74458  1.0000
  C   C490      1.0  0.11843  0.16663  0.77386  1.0000
  C   C491      1.0  0.17274  0.14016  0.75639  1.0000
  C   C492      1.0  0.18559  0.13106  0.77087  1.0000
  H   H494      1.0  0.00436  0.22756  0.75532  1.0000
  Fe  Fe89      1.0  0.05752  0.20932  0.76783  1.0000
  C   C493      1.0  0.23262  0.45997  0.67985  1.0000
  H   H495      1.0  0.23082  0.04918  0.74570  1.0000
  H   H496      1.0  0.15382  0.20415  0.76012  1.0000
  H   H497      1.0  0.23832  0.11973  0.68817  1.0000
  C   C494      1.0  0.20467  0.05873  0.74195  1.0000
  N   N41       1.0  0.23663  0.22747  0.58178  1.0000
  C   C495      1.0  0.23123  0.05190  0.73732  1.0000
  C   C496      1.0  0.23440  0.99166  0.77196  1.0000
  H   H498      1.0  0.15505  0.24707  0.75496  1.0000
  H   H499      1.0  0.00762  0.20572  0.76544  1.0000
  C   C497      1.0  0.02173  0.20908  0.76741  1.0000
  C   C498      1.0  0.22006  0.38846  0.67865  1.0000
  C   C499      1.0  0.22168  0.47749  0.71632  1.0000
  C   C500      1.0  0.21788  0.34850  0.77121  1.0000
  H   H500      1.0  0.22615  0.10836  0.76945  1.0000
  S   S175      1.0  0.23454  0.42987  0.67850  1.0000
  Fe  Fe90      1.0  0.22114  0.03676  0.76660  1.0000
  H   H501      1.0  0.22359  0.13907  0.72486  1.0000
  H   H502      1.0  0.21869  0.14013  0.70865  1.0000
  C   C501      1.0  0.23152  0.35818  0.76132  1.0000
  S   S176      1.0  0.20366  0.10781  0.74474  1.0000
  C   C502      1.0  0.10933  0.25019  0.73613  1.0000
  S   S177      1.0  0.13242  0.18804  0.74633  1.0000
  C   C503      1.0  0.13540  0.22653  0.76364  1.0000
  Fe  Fe91      1.0  0.16169  0.17859  0.74856  1.0000
  C   C504      1.0  0.22406  0.39542  0.68175  1.0000
  Fe  Fe92      1.0  0.13994  0.17390  0.75699  1.0000
  C   C505      1.0  0.22759  0.13027  0.69776  1.0000
  S   S178      1.0  0.01460  0.19366  0.74879  1.0000
  C   C506      1.0  0.11002  0.25514  0.72549  1.0000
  N   N42       1.0  0.10286  0.25466  0.72017  1.0000
  H   H503      1.0  0.03659  0.19367  0.74545  1.0000
  H   H504      1.0  0.10344  0.21742  0.74084  1.0000
  H   H505      1.0  0.11615  0.17568  0.75857  1.0000
  H   H506      1.0  0.23372  0.22206  0.63164  1.0000
  H   H507      1.0  0.23471  0.45276  0.67690  1.0000
  C   C507      1.0  0.11242  0.17336  0.76673  1.0000
  C   C508      1.0  0.03241  0.19798  0.75159  1.0000
  C   C509      1.0  0.21927  0.35537  0.75250  1.0000
  C   C510      1.0  0.01607  0.20480  0.76277  1.0000
  C   C511      1.0  0.18772  0.15339  0.73011  1.0000
  C   C512      1.0  0.22609  0.13473  0.70644  1.0000
  C   C513      1.0  0.10849  0.20210  0.73684  1.0000
  C   C514      1.0  0.16781  0.21790  0.70119  1.0000
  C   C515      1.0  0.21431  0.34975  0.76200  1.0000
  C   C516      1.0  0.02138  0.19922  0.75483  1.0000
  C   C517      1.0  0.18215  0.16139  0.73558  1.0000
  H   H508      1.0  0.08754  0.27075  0.76179  1.0000
  C   C518      1.0  0.22300  0.38412  0.69908  1.0000
  S   S179      1.0  0.21827  0.25402  0.59514  1.0000
  C   C519      1.0  0.17519  0.30850  0.73172  1.0000
  S   S180      1.0  0.22706  0.09402  0.74911  1.0000
  H   H509      1.0  0.21653  0.28733  0.59698  1.0000
  C   C520      1.0  0.22881  0.29144  0.60730  1.0000
  C   C521      1.0  0.17845  0.31363  0.73766  1.0000
  H   H510      1.0  0.21354  0.47812  0.72052  1.0000
  C   C522      1.0  0.22050  0.47157  0.69022  1.0000
  C   C523      1.0  0.00482  0.22433  0.72612  1.0000
  H   H511      1.0  0.23315  0.26080  0.62172  1.0000
  H   H512      1.0  0.22185  0.33394  0.74767  1.0000
  H   H513      1.0  0.16794  0.14389  0.75054  1.0000
  H   H514      1.0  0.22140  0.13215  0.69337  1.0000
  H   H515      1.0  0.22656  0.21120  0.59491  1.0000
  H   H516      1.0  0.23899  0.34046  0.68600  1.0000
  H   H517      1.0  0.21327  0.39213  0.76639  1.0000
  H   H518      1.0  0.12295  0.18340  0.72835  1.0000
  C   C524      1.0  0.22798  0.33489  0.69979  1.0000
  H   H519      1.0  0.15585  0.29666  0.73308  1.0000
  H   H520      1.0  0.22059  0.39282  0.75290  1.0000
  H   H521      1.0  0.20889  0.22134  0.62338  1.0000
  H   H522      1.0  0.22422  0.33612  0.64558  1.0000
  C   C525      1.0  0.21554  0.21631  0.61931  1.0000
  H   H523      1.0  0.21308  0.47342  0.69573  1.0000
  H   H524      1.0  0.22159  0.32919  0.73659  1.0000
  C   C526      1.0  0.22783  0.04988  0.72138  1.0000
  H   H525      1.0  0.11053  0.18114  0.72755  1.0000
  H   H526      1.0  0.23656  0.07477  0.73502  1.0000
  H   H527      1.0  0.21189  0.06107  0.76334  1.0000
  H   H528      1.0  0.18933  0.39797  0.74133  1.0000
  C   C527      1.0  0.22730  0.46800  0.71320  1.0000
  C   C528      1.0  0.18154  0.13213  0.75419  1.0000
  C   C529      1.0  0.23212  0.13692  0.72124  1.0000
  S   S181      1.0  0.23464  0.02570  0.75867  1.0000
  H   H529      1.0  0.20834  0.26803  0.57928  1.0000
  H   H530      1.0  0.10705  0.20653  0.76831  1.0000
  C   C530      1.0  0.20379  0.37677  0.76129  1.0000
  H   H531      1.0  0.17708  0.21918  0.74730  1.0000
  H   H532      1.0  0.22399  0.03970  0.73662  1.0000
  C   C531      1.0  0.14990  0.21134  0.76289  1.0000
  C   C532      1.0  0.21702  0.21726  0.60846  1.0000
  C   C533      1.0  0.09414  0.27247  0.77398  1.0000
  C   C534      1.0  0.22276  0.20902  0.62491  1.0000
  C   C535      1.0  0.22548  0.21058  0.60328  1.0000
  N   N43       1.0  0.99694  0.22978  0.74257  1.0000
  N   N44       1.0  0.22313  0.46248  0.68653  1.0000
  C   C536      1.0  0.23706  0.12328  0.69487  1.0000
  H   H533      1.0  0.01003  0.21686  0.74059  1.0000
  C   C537      1.0  0.18797  0.12756  0.76151  1.0000
  H   H534      1.0  0.23845  0.32191  0.63885  1.0000
  H   H535      1.0  0.19488  0.12142  0.75988  1.0000
  S   S182      1.0  0.23623  0.42776  0.72373  1.0000
  H   H536      1.0  0.15469  0.15169  0.76410  1.0000
  H   H537      1.0  0.22163  0.38046  0.76208  1.0000
  H   H538      1.0  0.21432  0.37411  0.68350  1.0000
  H   H539      1.0  0.22165  0.07105  0.76994  1.0000
  H   H540      1.0  0.14838  0.22251  0.73225  1.0000
  H   H541      1.0  0.20847  0.36695  0.70328  1.0000
  H   H542      1.0  0.22166  0.20841  0.63329  1.0000
  H   H543      1.0  0.15681  0.29746  0.75039  1.0000
  C   C538      1.0  0.23258  0.33755  0.65656  1.0000
  S   S183      1.0  0.08632  0.22924  0.76718  1.0000
  C   C539      1.0  0.22692  0.32996  0.74126  1.0000
  H   H544      1.0  0.01754  0.21335  0.77358  1.0000
  C   C540      1.0  0.22667  0.99677  0.76605  1.0000
  C   C541      1.0  0.23494  0.23455  0.63807  1.0000
  C   C542      1.0  0.23704  0.33739  0.72400  1.0000
  H   H545      1.0  0.23902  0.27189  0.63006  1.0000
  C   C543      1.0  0.22791  0.27800  0.58671  1.0000
  C   C544      1.0  0.03533  0.17810  0.77444  1.0000
  C   C545      1.0  0.23130  0.33321  0.64879  1.0000
  H   H546      1.0  0.10388  0.23632  0.76935  1.0000
  C   C546      1.0  0.23923  0.32518  0.64508  1.0000
  H   H547      1.0  0.23544  0.14412  0.71876  1.0000
  H   H548      1.0  0.23085  0.32192  0.74481  1.0000
  H   H549      1.0  0.16187  0.21042  0.77122  1.0000
  C   C547      1.0  0.23575  0.06400  0.72131  1.0000
  C   C548      1.0  0.08940  0.26723  0.76950  1.0000
  H   H550      1.0  0.22206  0.27687  0.58320  1.0000
  H   H551      1.0  0.13618  0.23737  0.77240  1.0000
  C   C549      1.0  0.13989  0.23000  0.76997  1.0000
  H   H552      1.0  0.16329  0.15954  0.76498  1.0000
  H   H553      1.0  0.20781  0.37077  0.76690  1.0000
  H   H554      1.0  0.23467  0.28930  0.61239  1.0000
  C   C550      1.0  0.23203  0.05872  0.71589  1.0000
  H   H555      1.0  0.23656  0.07556  0.77209  1.0000
  C   C551      1.0  0.23759  0.43381  0.75568  1.0000
  C   C552      1.0  0.10967  0.20309  0.77566  1.0000
  H   H556      1.0  0.23692  0.06381  0.74602  1.0000
  H   H557      1.0  0.23650  0.43047  0.74967  1.0000
  N   N45       1.0  0.23529  0.06058  0.73190  1.0000
  C   C553      1.0  0.22762  0.23238  0.57810  1.0000
  H   H558      1.0  0.23232  0.06152  0.70751  1.0000
  C   C554      1.0  0.24042  0.33975  0.73953  1.0000
  H   H559      1.0  0.23883  0.07097  0.71705  1.0000
  Fe  Fe93      1.0  0.23563  0.01662  0.77505  1.0000
  C   C555      1.0  0.22752  0.47836  0.68736  1.0000
  H   H560      1.0  0.23856  0.24687  0.64306  1.0000
  C   C556      1.0  0.23732  0.47574  0.68076  1.0000
  H   H561      1.0  0.99078  0.23452  0.75740  1.0000
  S   S184      1.0  0.20565  0.10333  0.77330  1.0000
  C   C557      1.0  0.23855  0.27359  0.58347  1.0000
  C   C558      1.0  0.23863  0.23058  0.59057  1.0000
  C   C559      1.0  0.23990  0.46651  0.67694  1.0000
  H   H562      1.0  0.23185  0.27049  0.83263  1.0000
  H   H563      1.0  0.20141  0.25960  0.87036  1.0000
  C   C560      1.0  0.23523  0.26966  0.91601  1.0000
  Fe  Fe94      1.0  0.20304  0.23722  0.86451  1.0000
  S   S185      1.0  0.18597  0.24441  0.87007  1.0000
  S   S186      1.0  0.21799  0.24283  0.86232  1.0000
  Fe  Fe95      1.0  0.19803  0.21705  0.86308  1.0000
  S   S187      1.0  0.18066  0.22218  0.86884  1.0000
  S   S188      1.0  0.20504  0.20183  0.85783  1.0000
  Fe  Fe96      1.0  0.18271  0.23761  0.85790  1.0000
  S   S189      1.0  0.17270  0.24582  0.84567  1.0000
  Fe  Fe97      1.0  0.18545  0.22830  0.88047  1.0000
  S   S190      1.0  0.17708  0.22631  0.89751  1.0000
  S   S191      1.0  0.19992  0.23202  0.85139  1.0000
  S   S192      1.0  0.20265  0.22160  0.87570  1.0000
  S   S193      1.0  0.23940  0.40178  0.78077  1.0000
  H   H564      1.0  0.16825  0.21304  0.82085  1.0000
  C   C561      1.0  0.10824  0.19131  0.79272  1.0000
  S   S194      1.0  0.20068  0.20532  0.93534  1.0000
  Fe  Fe98      1.0  0.12150  0.22823  0.80576  1.0000
  S   S195      1.0  0.12599  0.24148  0.79263  1.0000
  S   S196      1.0  0.10867  0.22022  0.80574  1.0000
  Fe  Fe99      1.0  0.13803  0.22895  0.81776  1.0000
  S   S197      1.0  0.14383  0.24207  0.80526  1.0000
  S   S198      1.0  0.14450  0.22230  0.83272  1.0000
  Fe  Fe100     1.0  0.12669  0.24890  0.80535  1.0000
  S   S199      1.0  0.11899  0.26530  0.80746  1.0000
  Fe  Fe101     1.0  0.14259  0.23312  0.79395  1.0000
  H   H565      1.0  0.23645  0.26642  0.86833  1.0000
  S   S200      1.0  0.12082  0.23634  0.81857  1.0000
  S   S201      1.0  0.13811  0.21934  0.80641  1.0000
  H   H566      1.0  0.24045  0.32374  0.84448  1.0000
  H   H567      1.0  0.22891  0.17807  0.86595  1.0000
  H   H568      1.0  0.22871  0.14205  0.82826  1.0000
  H   H569      1.0  0.18882  0.22891  0.83613  1.0000
  H   H570      1.0  0.10454  0.18538  0.79861  1.0000
  H   H571      1.0  0.12520  0.23781  0.84026  1.0000
  H   H572      1.0  0.14765  0.27226  0.82532  1.0000
  H   H573      1.0  0.06640  0.16932  0.78615  1.0000
  H   H574      1.0  0.13520  0.26796  0.81714  1.0000
  H   H575      1.0  0.23545  0.45367  0.78051  1.0000
  C   C562      1.0  0.05574  0.18307  0.79099  1.0000
  S   S202      1.0  0.24046  0.19357  0.96044  1.0000
  C   C563      1.0  0.24045  0.17593  0.89884  1.0000
  N   N46       1.0  0.21104  0.19448  0.97190  1.0000
  Fe  Fe102     1.0  0.24019  0.20099  0.92172  1.0000
  H   H576      1.0  0.20898  0.07570  0.77758  1.0000
  H   H577      1.0  0.16324  0.20029  0.83739  1.0000
  C   C564      1.0  0.20483  0.24189  0.89355  1.0000
  C   C565      1.0  0.17446  0.20270  0.84489  1.0000
  H   H578      1.0  0.22432  0.24962  0.88941  1.0000
  H   H579      1.0  0.20957  0.19676  0.95592  1.0000
  Fe  Fe103     1.0  0.21751  0.20643  0.93284  1.0000
  H   H580      1.0  0.23240  0.43107  0.78219  1.0000
  H   H581      1.0  0.21396  0.28951  0.85497  1.0000
  H   H582      1.0  0.11930  0.24493  0.85077  1.0000
  C   C566      1.0  0.11347  0.16326  0.78434  1.0000
  H   H583      1.0  0.22919  0.35176  0.77802  1.0000
  H   H584      1.0  0.21733  0.31203  0.84295  1.0000
  S   S203      1.0  0.22687  0.21451  0.91785  1.0000
  C   C567      1.0  0.14334  0.26610  0.82954  1.0000
  H   H585      1.0  0.18197  0.22281  0.81926  1.0000
  C   C568      1.0  0.16952  0.20429  0.83654  1.0000
  N   N47       1.0  0.23668  0.12961  0.83881  1.0000
  S   S204      1.0  0.22068  0.21503  0.94344  1.0000
  H   H586      1.0  0.03174  0.19360  0.78484  1.0000
  C   C569      1.0  0.10484  0.19555  0.78326  1.0000
  C   C570      1.0  0.19285  0.22134  0.83364  1.0000
  H   H587      1.0  0.21711  0.06320  0.78269  1.0000
  H   H588      1.0  0.19808  0.10780  0.79385  1.0000
  S   S205      1.0  0.23022  0.04552  0.79619  1.0000
  H   H589      1.0  0.03306  0.17037  0.77807  1.0000
  C   C571      1.0  0.23115  0.27351  0.90686  1.0000
  C   C572      1.0  0.09647  0.26784  0.78393  1.0000
  H   H590      1.0  0.08988  0.25544  0.80586  1.0000
  H   H591      1.0  0.20260  0.27546  0.87577  1.0000
  C   C573      1.0  0.20408  0.20376  0.97323  1.0000
  H   H592      1.0  0.12568  0.25375  0.82677  1.0000
  H   H593      1.0  0.14060  0.24801  0.85253  1.0000
  C   C574      1.0  0.23967  0.34135  0.82092  1.0000
  C   C575      1.0  0.11770  0.20646  0.77776  1.0000
  N   N48       1.0  0.18501  0.21524  0.83455  1.0000
  H   H594      1.0  0.22729  0.13019  0.81764  1.0000
  S   S206      1.0  0.22749  0.11583  0.80266  1.0000
  C   C576      1.0  0.13106  0.25557  0.83041  1.0000
  C   C577      1.0  0.22878  0.26504  0.86874  1.0000
  S   S207      1.0  0.08330  0.17932  0.78542  1.0000
  H   H595      1.0  0.15030  0.26217  0.84316  1.0000
  C   C578      1.0  0.20603  0.10913  0.79099  1.0000
  H   H596      1.0  0.12826  0.21481  0.78637  1.0000
  H   H597      1.0  0.09838  0.19313  0.78188  1.0000
  H   H598      1.0  0.23423  0.09035  0.79732  1.0000
  C   C579      1.0  0.22811  0.25615  0.86566  1.0000
  C   C580      1.0  0.21961  0.27206  0.87231  1.0000
  C   C581      1.0  0.13927  0.25246  0.84483  1.0000
  H   H599      1.0  0.17216  0.19732  0.85226  1.0000
  C   C582      1.0  0.21249  0.19049  0.96239  1.0000
  H   H600      1.0  0.19742  0.22306  0.82542  1.0000
  H   H601      1.0  0.13162  0.23524  0.85089  1.0000
  N   N49       1.0  0.13265  0.24998  0.84016  1.0000
  N   N50       1.0  0.12087  0.20243  0.78712  1.0000
  C   C583      1.0  0.08938  0.25316  0.78500  1.0000
  C   C584      1.0  0.04598  0.18994  0.79055  1.0000
  H   H602      1.0  0.23677  0.22545  0.94494  1.0000
  C   C585      1.0  0.03928  0.18815  0.78518  1.0000
  S   S208      1.0  0.22054  0.28369  0.87523  1.0000
  N   N51       1.0  0.22188  0.07676  0.78323  1.0000
  N   N52       1.0  0.21292  0.24070  0.89841  1.0000
  H   H603      1.0  0.20149  0.98551  0.77935  1.0000
  H   H604      1.0  0.21740  0.20525  0.89280  1.0000
  S   S209      1.0  0.23266  0.37360  0.78741  1.0000
  C   C586      1.0  0.20091  0.23911  0.91527  1.0000
  C   C587      1.0  0.11658  0.27437  0.79589  1.0000
  C   C588      1.0  0.10911  0.28375  0.79673  1.0000
  C   C589      1.0  0.23194  0.07832  0.77913  1.0000
  H   H605      1.0  0.04368  0.19674  0.79416  1.0000
  C   C590      1.0  0.22996  0.27780  0.83535  1.0000
  C   C591      1.0  0.09663  0.17383  0.78070  1.0000
  H   H606      1.0  0.10519  0.28543  0.80441  1.0000
  S   S210      1.0  0.23500  0.35488  0.81595  1.0000
  H   H607      1.0  0.12947  0.20428  0.79754  1.0000
  C   C592      1.0  0.10646  0.29086  0.78768  1.0000
  N   N53       1.0  0.09433  0.25819  0.78919  1.0000
  C   C593      1.0  0.21084  0.11204  0.79747  1.0000
  H   H608      1.0  0.24007  0.26614  0.93464  1.0000
  H   H609      1.0  0.23817  0.29730  0.89931  1.0000
  H   H610      1.0  0.22907  0.28658  0.89367  1.0000
  H   H611      1.0  0.12750  0.26503  0.78524  1.0000
  C   C594      1.0  0.18219  0.20832  0.84377  1.0000
  H   H612      1.0  0.23839  0.14447  0.84017  1.0000
  N   N54       1.0  0.04231  0.17987  0.78020  1.0000
  H   H613      1.0  0.19067  0.12757  0.77651  1.0000
  C   C595      1.0  0.10271  0.22280  0.79482  1.0000
  C   C596      1.0  0.10617  0.22937  0.78521  1.0000
  H   H614      1.0  0.22738  0.26870  0.90435  1.0000
  C   C597      1.0  0.21718  0.07140  0.77810  1.0000
  C   C598      1.0  0.08938  0.21980  0.78734  1.0000
  C   C599      1.0  0.09434  0.21799  0.79581  1.0000
  H   H615      1.0  0.11271  0.23300  0.78426  1.0000
  C   C600      1.0  0.09272  0.22648  0.77780  1.0000
  C   C601      1.0  0.23185  0.13365  0.83041  1.0000
  H   H616      1.0  0.09165  0.21285  0.80319  1.0000
  C   C602      1.0  0.21997  0.28855  0.84790  1.0000
  C   C603      1.0  0.13642  0.26366  0.82493  1.0000
  C   C604      1.0  0.11913  0.27949  0.77681  1.0000
  C   C605      1.0  0.18009  0.21698  0.82639  1.0000
  C   C606      1.0  0.16556  0.23867  0.84193  1.0000
  C   C607      1.0  0.16149  0.23030  0.84904  1.0000
  C   C608      1.0  0.15503  0.22539  0.84611  1.0000
  C   C609      1.0  0.15265  0.22872  0.83605  1.0000
  C   C610      1.0  0.15690  0.23694  0.82889  1.0000
  C   C611      1.0  0.16332  0.24189  0.83182  1.0000
  H   H617      1.0  0.16307  0.22782  0.85689  1.0000
  H   H618      1.0  0.15181  0.21901  0.85171  1.0000
  H   H619      1.0  0.15524  0.23953  0.82109  1.0000
  H   H620      1.0  0.16642  0.24836  0.82628  1.0000
  C   C612      1.0  0.21850  0.20144  0.85258  1.0000
  C   C613      1.0  0.22322  0.20906  0.85365  1.0000
  C   C614      1.0  0.11634  0.19485  0.79454  1.0000
  C   C615      1.0  0.14475  0.26052  0.83958  1.0000
  C   C616      1.0  0.12687  0.24162  0.84583  1.0000
  C   C617      1.0  0.22462  0.19327  0.84761  1.0000
  H   H621      1.0  0.21855  0.21543  0.85743  1.0000
  H   H622      1.0  0.20629  0.24275  0.88509  1.0000
  C   C618      1.0  0.05873  0.17459  0.78598  1.0000
  H   H623      1.0  0.22098  0.18744  0.84664  1.0000
  C   C619      1.0  0.18406  0.21980  0.90763  1.0000
  C   C620      1.0  0.19512  0.21680  0.90566  1.0000
  C   C621      1.0  0.20036  0.21235  0.91409  1.0000
  C   C622      1.0  0.19454  0.21074  0.92449  1.0000
  C   C623      1.0  0.18352  0.21354  0.92640  1.0000
  C   C624      1.0  0.17832  0.21813  0.91802  1.0000
  H   H624      1.0  0.19962  0.21812  0.89770  1.0000
  H   H625      1.0  0.20886  0.21006  0.91255  1.0000
  H   H626      1.0  0.17897  0.21227  0.93440  1.0000
  H   H627      1.0  0.16979  0.22041  0.91962  1.0000
  C   C625      1.0  0.21624  0.07982  0.79237  1.0000
  H   H628      1.0  0.20659  0.11295  0.80533  1.0000
  H   H629      1.0  0.23098  0.05882  0.80933  1.0000
  N   N55       1.0  0.22694  0.18812  0.87648  1.0000
  H   H630      1.0  0.13713  0.20239  0.78464  1.0000
  C   C626      1.0  0.20972  0.27002  0.87303  1.0000
  C   C627      1.0  0.20904  0.26107  0.86996  1.0000
  C   C628      1.0  0.21826  0.25415  0.86623  1.0000
  C   C629      1.0  0.23711  0.28959  0.90407  1.0000
  C   C630      1.0  0.12164  0.27223  0.78593  1.0000
  H   H631      1.0  0.22458  0.17258  0.87968  1.0000
  H   H632      1.0  0.21556  0.18254  0.87228  1.0000
  H   H633      1.0  0.21741  0.23874  0.91298  1.0000
  C   C631      1.0  0.22126  0.11336  0.79398  1.0000
  S   S211      1.0  0.23052  0.19226  0.93598  1.0000
  H   H634      1.0  0.21190  0.19245  0.88635  1.0000
  H   H635      1.0  0.18586  0.20720  0.85036  1.0000
  C   C632      1.0  0.23797  0.05880  0.80307  1.0000
  H   H636      1.0  0.11884  0.19164  0.80197  1.0000
  C   C633      1.0  0.17236  0.21145  0.82722  1.0000
  H   H637      1.0  0.20813  0.18407  0.96418  1.0000
  Fe  Fe104     1.0  0.23119  0.22189  0.92870  1.0000
  C   C634      1.0  0.21104  0.23952  0.90912  1.0000
  H   H638      1.0  0.22726  0.21374  0.96467  1.0000
  S   S212      1.0  0.06670  0.20841  0.78002  1.0000
  H   H639      1.0  0.21403  0.34421  0.77861  1.0000
  H   H640      1.0  0.10052  0.29802  0.78839  1.0000
  H   H641      1.0  0.22051  0.30433  0.85542  1.0000
  C   C635      1.0  0.23077  0.08654  0.79335  1.0000
  H   H642      1.0  0.23719  0.30133  0.82940  1.0000
  H   H643      1.0  0.10350  0.25635  0.80057  1.0000
  H   H644      1.0  0.23469  0.11346  0.78097  1.0000
  H   H645      1.0  0.22988  0.13776  0.85130  1.0000
  C   C636      1.0  0.21991  0.19370  0.88348  1.0000
  C   C637      1.0  0.12939  0.20610  0.78901  1.0000
  C   C638      1.0  0.22381  0.17992  0.87347  1.0000
  S   S213      1.0  0.15522  0.22882  0.78025  1.0000
  C   C639      1.0  0.23649  0.08334  0.78405  1.0000
  H   H646      1.0  0.18817  0.24269  0.89556  1.0000
  S   S214      1.0  0.23953  0.99866  0.77817  1.0000
  C   C640      1.0  0.19455  0.24187  0.89943  1.0000
  C   C641      1.0  0.22297  0.20097  0.88714  1.0000
  C   C642      1.0  0.22335  0.30589  0.84671  1.0000
  H   H647      1.0  0.19865  0.21690  0.83866  1.0000
  C   C643      1.0  0.23705  0.18964  0.87290  1.0000
  C   C644      1.0  0.23553  0.19251  0.84407  1.0000
  C   C645      1.0  0.23101  0.12702  0.82439  1.0000
  C   C646      1.0  0.23412  0.20832  0.85008  1.0000
  S   S215      1.0  0.23354  0.23843  0.92486  1.0000
  C   C647      1.0  0.22353  0.24126  0.89205  1.0000
  H   H648      1.0  0.20830  0.07849  0.79564  1.0000
  H   H649      1.0  0.11808  0.15795  0.78985  1.0000
  H   H650      1.0  0.23301  0.34249  0.83711  1.0000
  H   H651      1.0  0.09889  0.16454  0.79596  1.0000
  H   H652      1.0  0.22100  0.18738  0.95940  1.0000
  C   C648      1.0  0.23723  0.13665  0.84518  1.0000
  H   H653      1.0  0.09998  0.27204  0.78743  1.0000
  H   H654      1.0  0.21787  0.27301  0.84860  1.0000
  N   N56       1.0  0.22554  0.29625  0.84271  1.0000
  H   H655      1.0  0.23527  0.25080  0.86283  1.0000
  H   H656      1.0  0.23065  0.30897  0.84501  1.0000
  Fe  Fe105     1.0  0.23246  0.03681  0.78324  1.0000
  C   C649      1.0  0.19262  0.24034  0.91037  1.0000
  C   C650      1.0  0.23294  0.29512  0.83366  1.0000
  H   H657      1.0  0.22970  0.23673  0.89660  1.0000
  H   H658      1.0  0.23584  0.20795  0.88651  1.0000
  C   C651      1.0  0.24031  0.19989  0.84551  1.0000
  H   H659      1.0  0.23293  0.17375  0.90031  1.0000
  C   C652      1.0  0.22672  0.11221  0.78379  1.0000
  H   H660      1.0  0.19952  0.23776  0.92379  1.0000
  C   C653      1.0  0.09688  0.25346  0.79959  1.0000
  C   C654      1.0  0.22213  0.27920  0.84433  1.0000
  H   H661      1.0  0.22507  0.23790  0.88495  1.0000
  H   H662      1.0  0.08289  0.21609  0.78826  1.0000
  H   H663      1.0  0.18475  0.23985  0.91503  1.0000
  H   H664      1.0  0.09942  0.24472  0.80071  1.0000
  H   H665      1.0  0.23511  0.18581  0.91034  1.0000
  C   C655      1.0  0.23209  0.28355  0.90087  1.0000
  C   C656      1.0  0.23537  0.28584  0.82991  1.0000
  H   H666      1.0  0.08736  0.24566  0.78932  1.0000
  H   H667      1.0  0.21609  0.08725  0.80477  1.0000
  N   N57       1.0  0.24007  0.27568  0.91914  1.0000
  H   H668      1.0  0.06107  0.18441  0.79506  1.0000
  H   H669      1.0  0.17496  0.14185  0.78008  1.0000
  Fe  Fe106     1.0  0.23458  0.20165  0.94533  1.0000
  C   C657      1.0  0.10261  0.16693  0.78778  1.0000
  C   C658      1.0  0.23764  0.33731  0.83185  1.0000
  Fe  Fe107     1.0  0.23715  0.28624  0.86928  1.0000
  H   H670      1.0  0.21419  0.98690  0.78908  1.0000
  C   C659      1.0  0.22185  0.10944  0.77723  1.0000
  H   H671      1.0  0.23777  0.21406  0.85119  1.0000
  C   C660      1.0  0.21157  0.10772  0.78092  1.0000
  S   S216      1.0  0.22127  0.02705  0.78294  1.0000
  C   C661      1.0  0.22060  0.08474  0.79758  1.0000
  C   C662      1.0  0.23964  0.05282  0.79546  1.0000
  C   C663      1.0  0.23507  0.11622  0.82707  1.0000
  C   C664      1.0  0.05190  0.17313  0.78054  1.0000
  C   C665      1.0  0.23741  0.19965  0.97136  1.0000
  C   C666      1.0  0.23046  0.20943  0.97153  1.0000
  H   H672      1.0  0.24025  0.18620  0.84021  1.0000
  C   C667      1.0  0.11144  0.28875  0.77772  1.0000
  H   H673      1.0  0.23452  0.26181  0.92058  1.0000
  C   C668      1.0  0.23329  0.20252  0.88357  1.0000
  H   H674      1.0  0.23447  0.11103  0.82244  1.0000
  C   C669      1.0  0.23996  0.11216  0.83565  1.0000
  C   C670      1.0  0.10117  0.23121  0.77674  1.0000
  H   H675      1.0  0.19981  0.20838  0.96714  1.0000
  H   H676      1.0  0.15753  0.15079  0.77650  1.0000
  H   H677      1.0  0.05436  0.16662  0.77651  1.0000
  C   C671      1.0  0.24037  0.19687  0.87635  1.0000
  H   H678      1.0  0.99400  0.78006  0.17272  1.0000
  C   C672      1.0  0.15969  0.71978  0.15441  1.0000
  H   H679      1.0  0.21537  0.77958  0.08634  1.0000
  H   H680      1.0  0.13958  0.75175  0.14719  1.0000
  S   S217      1.0  0.23323  0.76437  0.05222  1.0000
  H   H681      1.0  0.21598  0.75676  0.06594  1.0000
  C   C673      1.0  0.10356  0.77587  0.16876  1.0000
  C   C674      1.0  0.23795  0.80247  0.06228  1.0000
  H   H682      1.0  0.17344  0.76939  0.15258  1.0000
  C   C675      1.0  0.23567  0.76912  0.99638  1.0000
  C   C676      1.0  0.23805  0.73495  0.06162  1.0000
  C   C677      1.0  0.22798  0.75523  0.99504  1.0000
  C   C678      1.0  0.23661  0.71989  0.08022  1.0000
  S   S218      1.0  0.21856  0.71826  0.11854  1.0000
  C   C679      1.0  0.20941  0.77747  0.01138  1.0000
  Fe  Fe108     1.0  0.21578  0.74848  0.11214  1.0000
  S   S219      1.0  0.20210  0.74134  0.11346  1.0000
  S   S220      1.0  0.21533  0.76579  0.10893  1.0000
  Fe  Fe109     1.0  0.20744  0.73007  0.12758  1.0000
  S   S221      1.0  0.19701  0.72483  0.14328  1.0000
  Fe  Fe110     1.0  0.21413  0.73015  0.10433  1.0000
  S   S222      1.0  0.21021  0.72444  0.09197  1.0000
  S   S223      1.0  0.22006  0.73823  0.12710  1.0000
  S   S224      1.0  0.22735  0.73841  0.10158  1.0000
  H   H683      1.0  0.11041  0.77970  0.16676  1.0000
  H   H684      1.0  0.23402  0.75098  0.11430  1.0000
  C   C680      1.0  0.09303  0.79171  0.17510  1.0000
  C   C681      1.0  0.20291  0.76141  0.01875  1.0000
  S   S225      1.0  0.20933  0.75516  0.04767  1.0000
  H   H685      1.0  0.22150  0.78828  0.07492  1.0000
  S   S226      1.0  0.22231  0.77942  0.03258  1.0000
  S   S227      1.0  0.15512  0.75754  0.15637  1.0000
  C   C682      1.0  0.15729  0.72972  0.14790  1.0000
  C   C683      1.0  0.23139  0.76017  0.00114  1.0000
  C   C684      1.0  0.23735  0.78241  0.08434  1.0000
  H   H686      1.0  0.21372  0.78289  0.98505  1.0000
  H   H687      1.0  0.20083  0.75522  0.02548  1.0000
  C   C685      1.0  0.18151  0.76743  0.14821  1.0000
  H   H688      1.0  0.09787  0.73397  0.16730  1.0000
  H   H689      1.0  0.20996  0.89120  0.17093  1.0000
  C   C686      1.0  0.20203  0.76121  0.00872  1.0000
  H   H690      1.0  0.22449  0.74844  0.99882  1.0000
  H   H691      1.0  0.22624  0.73419  0.04934  1.0000
  H   H692      1.0  0.17921  0.78003  0.13472  1.0000
  C   C687      1.0  0.23774  0.90686  0.17384  1.0000
  C   C688      1.0  0.22869  0.75926  0.98416  1.0000
  N   N58       1.0  0.14717  0.73556  0.14907  1.0000
  Fe  Fe111     1.0  0.23070  0.72757  0.11665  1.0000
  H   H693      1.0  0.21433  0.74732  0.14813  1.0000
  N   N59       1.0  0.23291  0.72705  0.06294  1.0000
  C   C689      1.0  0.22786  0.77764  0.11134  1.0000
  H   H694      1.0  0.22161  0.72274  0.05732  1.0000
  C   C690      1.0  0.18536  0.73392  0.14689  1.0000
  C   C691      1.0  0.17926  0.73200  0.15715  1.0000
  C   C692      1.0  0.16994  0.73922  0.16018  1.0000
  C   C693      1.0  0.16668  0.74833  0.15292  1.0000
  C   C694      1.0  0.17273  0.75021  0.14266  1.0000
  C   C695      1.0  0.18209  0.74306  0.13968  1.0000
  H   H695      1.0  0.18179  0.72494  0.16277  1.0000
  H   H696      1.0  0.21822  0.78832  0.99333  1.0000
  H   H697      1.0  0.17022  0.75726  0.13702  1.0000
  H   H698      1.0  0.18674  0.74463  0.13179  1.0000
  C   C696      1.0  0.23642  0.89799  0.17122  1.0000
  N   N60       1.0  0.23207  0.77574  0.08286  1.0000
  C   C697      1.0  0.15161  0.71572  0.16199  1.0000
  H   H699      1.0  0.22129  0.77544  0.07394  1.0000
  C   C698      1.0  0.18472  0.77334  0.13816  1.0000
  Fe  Fe112     1.0  0.22324  0.76288  0.04207  1.0000
  H   H700      1.0  0.16364  0.73281  0.14205  1.0000
  C   C699      1.0  0.20883  0.73387  0.08033  1.0000
  C   C700      1.0  0.21296  0.74295  0.07778  1.0000
  C   C701      1.0  0.21281  0.74977  0.06787  1.0000
  C   C702      1.0  0.20843  0.74758  0.06058  1.0000
  C   C703      1.0  0.20383  0.73879  0.06337  1.0000
  C   C704      1.0  0.20417  0.73187  0.07316  1.0000
  H   H701      1.0  0.21646  0.74459  0.08334  1.0000
  H   H702      1.0  0.20985  0.75954  0.13246  1.0000
  H   H703      1.0  0.20035  0.73711  0.05780  1.0000
  H   H704      1.0  0.20092  0.72489  0.07514  1.0000
  H   H705      1.0  0.08005  0.74556  0.16763  1.0000
  H   H706      1.0  0.20487  0.73954  0.14934  1.0000
  C   C705      1.0  0.23218  0.71955  0.07208  1.0000
  C   C706      1.0  0.22669  0.76752  0.11173  1.0000
  C   C707      1.0  0.23332  0.76798  0.97935  1.0000
  C   C708      1.0  0.07443  0.79743  0.17518  1.0000
  H   H707      1.0  0.20430  0.76894  0.99237  1.0000
  H   H708      1.0  0.20453  0.79242  0.99217  1.0000
  Fe  Fe113     1.0  0.23673  0.77233  0.02169  1.0000
  H   H709      1.0  0.23481  0.72128  0.04927  1.0000
  S   S228      1.0  0.23074  0.85610  0.17212  1.0000
  C   C709      1.0  0.23468  0.75879  0.11426  1.0000
  C   C710      1.0  0.14127  0.72158  0.16290  1.0000
  C   C711      1.0  0.14473  0.74605  0.14235  1.0000
  C   C712      1.0  0.23579  0.76507  0.08516  1.0000
  C   C713      1.0  0.23705  0.77901  0.11338  1.0000
  H   H710      1.0  0.20719  0.76984  0.02789  1.0000
  H   H711      1.0  0.19756  0.77491  0.12460  1.0000
  C   C714      1.0  0.09527  0.74005  0.17185  1.0000
  C   C715      1.0  0.13918  0.73156  0.15635  1.0000
  H   H712      1.0  0.13490  0.71857  0.16881  1.0000
  H   H713      1.0  0.01323  0.77734  0.17091  1.0000
  H   H714      1.0  0.14071  0.74572  0.13629  1.0000
  C   C716      1.0  0.23683  0.77285  0.98543  1.0000
  H   H715      1.0  0.23027  0.80772  0.06314  1.0000
  H   H716      1.0  0.23857  0.74093  0.05443  1.0000
  C   C717      1.0  0.19498  0.77047  0.13249  1.0000
  H   H717      1.0  0.22789  0.71342  0.07327  1.0000
  C   C718      1.0  0.20483  0.76926  0.00018  1.0000
  N   N61       1.0  0.19872  0.75600  0.14686  1.0000
  C   C719      1.0  0.18862  0.75865  0.15241  1.0000
  C   C720      1.0  0.20191  0.76172  0.13698  1.0000
  H   H718      1.0  0.22169  0.78442  0.10943  1.0000
  C   C721      1.0  0.22871  0.72627  0.05427  1.0000
  H   H719      1.0  0.18593  0.75386  0.16005  1.0000
  H   H720      1.0  0.15338  0.70808  0.16719  1.0000
  H   H721      1.0  0.13113  0.73614  0.15723  1.0000
  H   H722      1.0  0.23786  0.78682  0.11320  1.0000
  N   N62       1.0  0.20860  0.77717  0.00156  1.0000
  C   C722      1.0  0.20655  0.76962  0.02010  1.0000
  C   C723      1.0  0.22204  0.77997  0.07939  1.0000
  Fe  Fe114     1.0  0.23349  0.78041  0.04195  1.0000
  S   S229      1.0  0.23032  0.79358  0.05058  1.0000
  C   C724      1.0  0.00788  0.78299  0.17537  1.0000
  H   H723      1.0  0.19932  0.75481  0.00753  1.0000
  S   S230      1.0  0.23916  0.77623  0.00381  1.0000
  S   S231      1.0  0.22305  0.75360  0.97709  1.0000
  H   H724      1.0  0.23047  0.75718  0.00955  1.0000
  H   H725      1.0  0.21245  0.91021  0.17057  1.0000
  H   H726      1.0  0.21243  0.78372  0.01247  1.0000
  H   H727      1.0  0.20448  0.74542  0.16001  1.0000
  H   H728      1.0  0.23129  0.75978  0.08449  1.0000
  H   H729      1.0  0.10409  0.77210  0.16220  1.0000
  C   C725      1.0  0.21136  0.78564  0.99258  1.0000
  H   H730      1.0  0.23414  0.79082  0.08303  1.0000
  H   H731      1.0  0.15197  0.74920  0.13835  1.0000
  H   H732      1.0  0.23758  0.84640  0.11395  1.0000
  C   C726      1.0  0.20596  0.74662  0.15131  1.0000
  H   H733      1.0  0.08509  0.77532  0.16540  1.0000
  H   H734      1.0  0.23563  0.71414  0.08759  1.0000
  H   H735      1.0  0.16533  0.73776  0.16814  1.0000
  H   H736      1.0  0.06801  0.78757  0.16939  1.0000
  H   H737      1.0  0.23635  0.85854  0.10400  1.0000
  S   S232      1.0  0.23682  0.75574  0.03056  1.0000
  C   C727      1.0  0.07503  0.78895  0.17083  1.0000
  C   C728      1.0  0.08474  0.78201  0.16861  1.0000
  N   N63       1.0  0.09359  0.78351  0.17066  1.0000
  H   H738      1.0  0.16780  0.71535  0.15365  1.0000
  H   H739      1.0  0.22912  0.89533  0.17437  1.0000
  S   S233      1.0  0.12697  0.75784  0.17099  1.0000
  Fe  Fe115     1.0  0.14408  0.75242  0.17162  1.0000
  C   C729      1.0  0.08519  0.74659  0.17205  1.0000
  H   H740      1.0  0.19835  0.91061  0.17446  1.0000
  C   C730      1.0  0.24018  0.79467  0.05640  1.0000
  H   H741      1.0  0.24044  0.86325  0.12010  1.0000
  H   H742      1.0  0.10417  0.76965  0.17601  1.0000
  H   H743      1.0  0.24019  0.77973  0.98166  1.0000
  Fe  Fe116     1.0  0.22270  0.86905  0.28555  1.0000
  C   C731      1.0  0.99776  0.72200  0.21090  1.0000
  S   S234      1.0  0.20508  0.87168  0.28793  1.0000
  C   C732      1.0  0.22790  0.85197  0.18587  1.0000
  C   C733      1.0  0.19900  0.77197  0.35016  1.0000
  C   C734      1.0  0.21361  0.69111  0.36489  1.0000
  C   C735      1.0  0.23254  0.83897  0.31890  1.0000
  C   C736      1.0  0.21241  0.69574  0.34654  1.0000
  H   H744      1.0  0.23658  0.52315  0.24222  1.0000
  H   H745      1.0  0.22586  0.73036  0.32877  1.0000
  C   C737      1.0  0.21250  0.62661  0.20830  1.0000
  Fe  Fe117     1.0  0.18675  0.87433  0.22680  1.0000
  S   S235      1.0  0.19857  0.86491  0.23646  1.0000
  S   S236      1.0  0.18565  0.89176  0.22011  1.0000
  Fe  Fe118     1.0  0.17870  0.85495  0.22702  1.0000
  S   S237      1.0  0.18995  0.84403  0.23686  1.0000
  S   S238      1.0  0.16973  0.84801  0.21937  1.0000
  Fe  Fe119     1.0  0.18565  0.85674  0.24607  1.0000
  S   S239      1.0  0.18303  0.85258  0.26374  1.0000
  Fe  Fe120     1.0  0.20194  0.85315  0.22646  1.0000
  S   S240      1.0  0.21913  0.84603  0.22165  1.0000
  S   S241      1.0  0.17325  0.86704  0.23718  1.0000
  S   S242      1.0  0.19118  0.86325  0.21582  1.0000
  H   H746      1.0  0.07433  0.76529  0.24241  1.0000
  H   H747      1.0  0.22871  0.84361  0.31254  1.0000
  H   H748      1.0  0.23734  0.73991  0.33255  1.0000
  H   H749      1.0  0.20403  0.60405  0.22145  1.0000
  Fe  Fe121     1.0  0.22448  0.92377  0.21525  1.0000
  S   S243      1.0  0.21427  0.91667  0.23020  1.0000
  Fe  Fe122     1.0  0.21405  0.61476  0.26069  1.0000
  S   S244      1.0  0.20275  0.61437  0.25128  1.0000
  S   S245      1.0  0.21006  0.61484  0.27787  1.0000
  C   C738      1.0  0.23506  0.59135  0.28418  1.0000
  S   S246      1.0  0.22332  0.61458  0.23123  1.0000
  H   H750      1.0  0.20704  0.84802  0.20621  1.0000
  Fe  Fe123     1.0  0.21064  0.62638  0.23894  1.0000
  S   S247      1.0  0.20230  0.64099  0.22927  1.0000
  Fe  Fe124     1.0  0.21613  0.60267  0.24413  1.0000
  S   S248      1.0  0.21475  0.58865  0.23916  1.0000
  S   S249      1.0  0.22070  0.62795  0.24900  1.0000
  S   S250      1.0  0.22661  0.60168  0.25489  1.0000
  C   C739      1.0  0.23644  0.92570  0.25934  1.0000
  H   H751      1.0  0.12026  0.67318  0.29466  1.0000
  S   S251      1.0  0.20384  0.55418  0.27995  1.0000
  H   H752      1.0  0.22495  0.56452  0.31064  1.0000
  C   C740      1.0  0.20871  0.58428  0.29633  1.0000
  C   C741      1.0  0.22064  0.61795  0.28085  1.0000
  H   H753      1.0  0.10383  0.71200  0.23791  1.0000
  H   H754      1.0  0.23585  0.56508  0.23929  1.0000
  H   H755      1.0  0.18883  0.70906  0.37374  1.0000
  H   H756      1.0  0.20546  0.78391  0.33802  1.0000
  H   H757      1.0  0.18126  0.70322  0.32193  1.0000
  S   S252      1.0  0.23209  0.79029  0.36708  1.0000
  H   H758      1.0  0.03006  0.76059  0.24358  1.0000
  C   C742      1.0  0.22921  0.75900  0.35530  1.0000
  C   C743      1.0  0.21950  0.60489  0.21163  1.0000
  H   H759      1.0  0.10355  0.79626  0.19600  1.0000
  C   C744      1.0  0.20932  0.69804  0.35658  1.0000
  S   S253      1.0  0.12183  0.74642  0.19607  1.0000
  H   H760      1.0  0.03145  0.76921  0.23065  1.0000
  H   H761      1.0  0.23795  0.59861  0.19990  1.0000
  C   C745      1.0  0.21173  0.87971  0.18521  1.0000
  Fe  Fe125     1.0  0.13934  0.74178  0.19455  1.0000
  S   S254      1.0  0.14582  0.73224  0.20867  1.0000
  C   C746      1.0  0.22897  0.49532  0.27275  1.0000
  Fe  Fe126     1.0  0.12678  0.81057  0.20988  1.0000
  S   S255      1.0  0.11356  0.82242  0.21707  1.0000
  S   S256      1.0  0.13317  0.81200  0.19260  1.0000
  Fe  Fe127     1.0  0.12924  0.79597  0.23084  1.0000
  S   S257      1.0  0.11634  0.80667  0.23972  1.0000
  S   S258      1.0  0.13852  0.78086  0.23880  1.0000
  Fe  Fe128     1.0  0.10754  0.80808  0.22717  1.0000
  S   S259      1.0  0.09115  0.80458  0.23214  1.0000
  Fe  Fe129     1.0  0.12385  0.81970  0.22873  1.0000
  S   S260      1.0  0.12680  0.83230  0.23527  1.0000
  S   S261      1.0  0.12010  0.79645  0.21910  1.0000
  S   S262      1.0  0.13740  0.80880  0.22073  1.0000
  Fe  Fe130     1.0  0.13163  0.68258  0.24183  1.0000
  S   S263      1.0  0.12769  0.66661  0.24825  1.0000
  S   S264      1.0  0.12256  0.69450  0.23047  1.0000
  Fe  Fe131     1.0  0.14926  0.67742  0.25346  1.0000
  S   S265      1.0  0.14670  0.66112  0.26102  1.0000
  S   S266      1.0  0.16353  0.68127  0.25592  1.0000
  Fe  Fe132     1.0  0.14518  0.66053  0.24511  1.0000
  S   S267      1.0  0.15297  0.64546  0.23962  1.0000
  Fe  Fe133     1.0  0.12955  0.66867  0.26351  1.0000
  S   S268      1.0  0.11890  0.66323  0.27882  1.0000
  S   S269      1.0  0.14905  0.67631  0.23724  1.0000
  S   S270      1.0  0.13210  0.68519  0.25746  1.0000
  Fe  Fe134     1.0  0.12070  0.72050  0.29013  1.0000
  S   S271      1.0  0.12533  0.73275  0.27590  1.0000
  S   S272      1.0  0.11229  0.70858  0.28856  1.0000
  Fe  Fe135     1.0  0.13311  0.72661  0.30325  1.0000
  S   S273      1.0  0.13833  0.73948  0.28997  1.0000
  S   S274      1.0  0.14027  0.72058  0.31786  1.0000
  Fe  Fe136     1.0  0.12178  0.74317  0.28740  1.0000
  S   S275      1.0  0.11282  0.75958  0.28209  1.0000
  Fe  Fe137     1.0  0.14130  0.72793  0.27975  1.0000
  S   S276      1.0  0.15638  0.72521  0.26787  1.0000
  S   S277      1.0  0.11603  0.73120  0.30164  1.0000
  S   S278      1.0  0.13720  0.71474  0.29306  1.0000
  H   H762      1.0  0.11904  0.68460  0.28398  1.0000
  S   S279      1.0  0.00428  0.68308  0.24443  1.0000
  Fe  Fe138     1.0  0.06194  0.77041  0.19159  1.0000
  S   S280      1.0  0.05050  0.78606  0.19046  1.0000
  C   C747      1.0  0.22734  0.57735  0.28283  1.0000
  Fe  Fe139     1.0  0.05965  0.76733  0.21490  1.0000
  S   S281      1.0  0.04782  0.78245  0.21597  1.0000
  S   S282      1.0  0.06610  0.75765  0.22892  1.0000
  Fe  Fe140     1.0  0.04056  0.77785  0.20499  1.0000
  S   S283      1.0  0.02270  0.77960  0.20811  1.0000
  Fe  Fe141     1.0  0.05881  0.78912  0.20152  1.0000
  S   S284      1.0  0.06545  0.80352  0.19917  1.0000
  S   S285      1.0  0.05150  0.76202  0.20538  1.0000
  S   S286      1.0  0.07105  0.77421  0.20120  1.0000
  Fe  Fe142     1.0  0.06626  0.70498  0.24545  1.0000
  S   S287      1.0  0.05424  0.71691  0.25367  1.0000
  S   S288      1.0  0.07418  0.70996  0.22858  1.0000
  Fe  Fe143     1.0  0.06567  0.68806  0.26519  1.0000
  S   S289      1.0  0.05357  0.69859  0.27502  1.0000
  S   S290      1.0  0.07221  0.67146  0.27288  1.0000
  Fe  Fe144     1.0  0.04551  0.70375  0.26120  1.0000
  S   S291      1.0  0.02766  0.70733  0.26269  1.0000
  Fe  Fe145     1.0  0.06354  0.71059  0.26648  1.0000
  S   S292      1.0  0.06859  0.72113  0.27399  1.0000
  S   S293      1.0  0.05699  0.69223  0.25203  1.0000
  S   S294      1.0  0.07605  0.69968  0.25763  1.0000
  C   C748      1.0  0.07051  0.74447  0.22791  1.0000
  C   C749      1.0  0.07265  0.73686  0.23683  1.0000
  C   C750      1.0  0.07461  0.72618  0.23669  1.0000
  C   C751      1.0  0.07438  0.72309  0.22768  1.0000
  C   C752      1.0  0.07299  0.73068  0.21849  1.0000
  C   C753      1.0  0.07107  0.74141  0.21861  1.0000
  H   H763      1.0  0.07229  0.73919  0.24403  1.0000
  H   H764      1.0  0.07592  0.72036  0.24375  1.0000
  H   H765      1.0  0.07280  0.72831  0.21149  1.0000
  H   H766      1.0  0.06969  0.74729  0.21160  1.0000
  C   C754      1.0  0.01070  0.69041  0.24889  1.0000
  C   C755      1.0  0.02155  0.68686  0.24875  1.0000
  C   C756      1.0  0.02690  0.69212  0.25268  1.0000
  C   C757      1.0  0.02147  0.70110  0.25669  1.0000
  C   C758      1.0  0.01068  0.70487  0.25653  1.0000
  C   C759      1.0  0.00529  0.69952  0.25270  1.0000
  H   H767      1.0  0.02580  0.67985  0.24577  1.0000
  H   H768      1.0  0.03517  0.68911  0.25277  1.0000
  H   H769      1.0  0.00643  0.71183  0.25959  1.0000
  H   H770      1.0  0.16432  0.72327  0.33835  1.0000
  C   C760      1.0  0.99950  0.76938  0.20207  1.0000
  C   C761      1.0  0.00507  0.77426  0.20620  1.0000
  C   C762      1.0  0.01615  0.77252  0.20344  1.0000
  H   H771      1.0  0.21123  0.82500  0.25417  1.0000
  H   H772      1.0  0.00075  0.77961  0.21137  1.0000
  H   H773      1.0  0.10507  0.78202  0.23264  1.0000
  H   H774      1.0  0.10904  0.66080  0.24628  1.0000
  H   H775      1.0  0.08598  0.76192  0.18800  1.0000
  C   C763      1.0  0.23385  0.82386  0.33371  1.0000
  C   C764      1.0  0.10100  0.71296  0.28289  1.0000
  C   C765      1.0  0.09826  0.70608  0.27836  1.0000
  C   C766      1.0  0.08861  0.70872  0.27509  1.0000
  C   C767      1.0  0.08154  0.71826  0.27637  1.0000
  C   C768      1.0  0.08447  0.72532  0.28050  1.0000
  C   C769      1.0  0.09417  0.72270  0.28372  1.0000
  H   H776      1.0  0.10349  0.69854  0.27763  1.0000
  H   H777      1.0  0.08649  0.70317  0.27198  1.0000
  H   H778      1.0  0.07910  0.73273  0.28150  1.0000
  H   H779      1.0  0.09618  0.72808  0.28719  1.0000
  C   C770      1.0  0.16128  0.69377  0.25872  1.0000
  C   C771      1.0  0.16986  0.69837  0.25726  1.0000
  C   C772      1.0  0.16830  0.70813  0.25990  1.0000
  C   C773      1.0  0.15819  0.71313  0.26437  1.0000
  C   C774      1.0  0.14960  0.70847  0.26596  1.0000
  C   C775      1.0  0.15111  0.69891  0.26292  1.0000
  H   H780      1.0  0.17773  0.69442  0.25401  1.0000
  H   H781      1.0  0.17495  0.71172  0.25865  1.0000
  H   H782      1.0  0.14176  0.71229  0.26942  1.0000
  H   H783      1.0  0.14447  0.69534  0.26421  1.0000
  C   C776      1.0  0.10600  0.66552  0.27706  1.0000
  C   C777      1.0  0.09898  0.65951  0.28402  1.0000
  C   C778      1.0  0.08862  0.66133  0.28265  1.0000
  C   C779      1.0  0.08521  0.66932  0.27446  1.0000
  C   C780      1.0  0.09227  0.67528  0.26749  1.0000
  C   C781      1.0  0.10267  0.67336  0.26875  1.0000
  H   H784      1.0  0.10158  0.65337  0.29041  1.0000
  H   H785      1.0  0.08323  0.65660  0.28799  1.0000
  H   H786      1.0  0.08991  0.68112  0.26089  1.0000
  H   H787      1.0  0.10809  0.67800  0.26331  1.0000
  C   C782      1.0  0.13100  0.77451  0.25033  1.0000
  C   C783      1.0  0.13607  0.76569  0.25674  1.0000
  C   C784      1.0  0.13037  0.76087  0.26630  1.0000
  C   C785      1.0  0.11966  0.76506  0.26967  1.0000
  C   C786      1.0  0.11455  0.77386  0.26324  1.0000
  C   C787      1.0  0.12018  0.77848  0.25348  1.0000
  H   H788      1.0  0.14445  0.76269  0.25449  1.0000
  H   H789      1.0  0.13438  0.75410  0.27120  1.0000
  H   H790      1.0  0.10626  0.77713  0.26585  1.0000
  H   H791      1.0  0.11617  0.78519  0.24851  1.0000
  C   C788      1.0  0.08433  0.80416  0.22275  1.0000
  C   C789      1.0  0.08705  0.80899  0.21212  1.0000
  C   C790      1.0  0.08125  0.80874  0.20493  1.0000
  C   C791      1.0  0.07293  0.80334  0.20824  1.0000
  C   C792      1.0  0.07045  0.79821  0.21880  1.0000
  C   C793      1.0  0.07599  0.79881  0.22606  1.0000
  H   H792      1.0  0.09343  0.81319  0.20949  1.0000
  H   H793      1.0  0.08319  0.81280  0.19681  1.0000
  H   H794      1.0  0.06400  0.79412  0.22147  1.0000
  H   H795      1.0  0.07378  0.79512  0.23428  1.0000
  C   C794      1.0  0.13975  0.72144  0.21446  1.0000
  C   C795      1.0  0.14185  0.71491  0.22400  1.0000
  C   C796      1.0  0.13667  0.70653  0.22889  1.0000
  C   C797      1.0  0.12938  0.70470  0.22425  1.0000
  C   C798      1.0  0.12744  0.71110  0.21461  1.0000
  C   C799      1.0  0.13261  0.71946  0.20973  1.0000
  H   H796      1.0  0.14752  0.71629  0.22757  1.0000
  H   H797      1.0  0.13829  0.70154  0.23628  1.0000
  H   H798      1.0  0.12211  0.70948  0.21081  1.0000
  H   H799      1.0  0.13118  0.72427  0.20223  1.0000
  H   H800      1.0  0.03017  0.76411  0.19462  1.0000
  H   H801      1.0  0.22706  0.71130  0.33660  1.0000
  C   C800      1.0  0.09861  0.78097  0.21596  1.0000
  H   H802      1.0  0.20060  0.83645  0.25541  1.0000
  N   N64       1.0  0.23929  0.71013  0.34447  1.0000
  C   C801      1.0  0.09865  0.74942  0.18316  1.0000
  C   C802      1.0  0.11826  0.78713  0.18897  1.0000
  C   C803      1.0  0.11191  0.79585  0.19294  1.0000
  C   C804      1.0  0.11645  0.80385  0.19349  1.0000
  C   C805      1.0  0.12729  0.80332  0.18970  1.0000
  C   C806      1.0  0.13352  0.79498  0.18501  1.0000
  C   C807      1.0  0.12900  0.78684  0.18470  1.0000
  H   H803      1.0  0.19572  0.76948  0.34492  1.0000
  H   H804      1.0  0.11162  0.81028  0.19713  1.0000
  Fe  Fe146     1.0  0.23944  0.79978  0.35171  1.0000
  H   H805      1.0  0.23043  0.91427  0.25530  1.0000
  H   H806      1.0  0.04286  0.76301  0.23617  1.0000
  C   C808      1.0  0.14759  0.73822  0.31726  1.0000
  C   C809      1.0  0.14754  0.72758  0.32174  1.0000
  C   C810      1.0  0.15357  0.72226  0.32941  1.0000
  H   H807      1.0  0.14289  0.74245  0.31145  1.0000
  C   C811      1.0  0.17291  0.71368  0.31013  1.0000
  N   N65       1.0  0.20906  0.78301  0.35277  1.0000
  C   C812      1.0  0.20944  0.88677  0.20052  1.0000
  H   H808      1.0  0.14191  0.79452  0.18216  1.0000
  C   C813      1.0  0.21327  0.48704  0.29521  1.0000
  H   H809      1.0  0.02458  0.75984  0.22232  1.0000
  C   C814      1.0  0.13742  0.68823  0.29032  1.0000
  C   C815      1.0  0.23817  0.62184  0.27535  1.0000
  H   H810      1.0  0.20369  0.70519  0.35792  1.0000
  C   C816      1.0  0.15355  0.74347  0.32047  1.0000
  C   C817      1.0  0.21617  0.49474  0.26325  1.0000
  C   C818      1.0  0.22047  0.50042  0.26784  1.0000
  H   H811      1.0  0.20933  0.49862  0.25984  1.0000
  H   H812      1.0  0.15353  0.71405  0.33297  1.0000
  C   C819      1.0  0.18869  0.64193  0.23112  1.0000
  C   C820      1.0  0.18217  0.65174  0.22812  1.0000
  C   C821      1.0  0.17118  0.65284  0.23051  1.0000
  C   C822      1.0  0.16670  0.64407  0.23565  1.0000
  C   C823      1.0  0.17325  0.63415  0.23807  1.0000
  C   C824      1.0  0.18423  0.63310  0.23589  1.0000
  H   H813      1.0  0.18560  0.65855  0.22420  1.0000
  H   H814      1.0  0.16617  0.66046  0.22835  1.0000
  H   H815      1.0  0.16982  0.62732  0.24192  1.0000
  H   H816      1.0  0.18919  0.62545  0.23788  1.0000
  C   C825      1.0  0.21054  0.57932  0.25029  1.0000
  C   C826      1.0  0.20538  0.58231  0.25987  1.0000
  C   C827      1.0  0.20255  0.57465  0.26887  1.0000
  C   C828      1.0  0.20534  0.56398  0.26839  1.0000
  C   C829      1.0  0.21037  0.56106  0.25877  1.0000
  C   C830      1.0  0.21278  0.56873  0.24969  1.0000
  H   H817      1.0  0.20355  0.59051  0.26034  1.0000
  H   H818      1.0  0.19853  0.57697  0.27623  1.0000
  H   H819      1.0  0.21243  0.55285  0.25831  1.0000
  H   H820      1.0  0.21661  0.56640  0.24228  1.0000
  C   C831      1.0  0.15515  0.67954  0.28347  1.0000
  C   C832      1.0  0.10213  0.66660  0.24432  1.0000
  H   H821      1.0  0.13007  0.83122  0.20045  1.0000
  C   C833      1.0  0.23495  0.92043  0.25239  1.0000
  H   H822      1.0  0.08200  0.77183  0.22368  1.0000
  C   C834      1.0  0.99721  0.73288  0.20853  1.0000
  H   H823      1.0  0.15134  0.69415  0.28868  1.0000
  C   C835      1.0  0.22266  0.84736  0.20795  1.0000
  H   H824      1.0  0.11796  0.68611  0.29714  1.0000
  N   N66       1.0  0.09226  0.66460  0.24871  1.0000
  H   H825      1.0  0.20560  0.83560  0.27209  1.0000
  H   H826      1.0  0.02738  0.74464  0.21422  1.0000
  H   H827      1.0  0.04897  0.74358  0.23909  1.0000
  Fe  Fe147     1.0  0.12487  0.76206  0.18644  1.0000
  C   C836      1.0  0.21759  0.85109  0.19115  1.0000
  H   H828      1.0  0.00778  0.79926  0.19077  1.0000
  H   H829      1.0  0.15776  0.72132  0.29955  1.0000
  H   H830      1.0  0.13712  0.66622  0.28332  1.0000
  C   C837      1.0  0.15877  0.84213  0.22579  1.0000
  C   C838      1.0  0.15736  0.83409  0.22183  1.0000
  C   C839      1.0  0.14779  0.83065  0.22507  1.0000
  C   C840      1.0  0.13948  0.83526  0.23229  1.0000
  C   C841      1.0  0.14106  0.84291  0.23670  1.0000
  C   C842      1.0  0.15069  0.84633  0.23348  1.0000
  H   H831      1.0  0.16357  0.83080  0.21588  1.0000
  H   H832      1.0  0.14673  0.82481  0.22157  1.0000
  H   H833      1.0  0.13469  0.84650  0.24233  1.0000
  H   H834      1.0  0.15164  0.85260  0.23652  1.0000
  C   C843      1.0  0.19416  0.89824  0.22270  1.0000
  C   C844      1.0  0.19460  0.90856  0.21713  1.0000
  C   C845      1.0  0.20105  0.91409  0.21918  1.0000
  C   C846      1.0  0.20678  0.90948  0.22712  1.0000
  C   C847      1.0  0.20633  0.89916  0.23274  1.0000
  C   C848      1.0  0.20019  0.89348  0.23040  1.0000
  H   H835      1.0  0.18991  0.91234  0.21122  1.0000
  H   H836      1.0  0.20133  0.92207  0.21484  1.0000
  H   H837      1.0  0.21077  0.89555  0.23888  1.0000
  H   H838      1.0  0.19979  0.88562  0.23488  1.0000
  H   H839      1.0  0.22188  0.74692  0.36650  1.0000
  H   H840      1.0  0.10223  0.78780  0.21493  1.0000
  N   N67       1.0  0.22610  0.61132  0.20533  1.0000
  H   H841      1.0  0.01464  0.67516  0.27324  1.0000
  H   H842      1.0  0.20144  0.58715  0.30153  1.0000
  C   C849      1.0  0.08555  0.77255  0.22974  1.0000
  Fe  Fe148     1.0  0.23172  0.92184  0.19246  1.0000
  S   S295      1.0  0.18355  0.72252  0.35185  1.0000
  C   C850      1.0  0.22039  0.48395  0.26342  1.0000
  H   H843      1.0  0.22232  0.82784  0.32407  1.0000
  H   H844      1.0  0.23614  0.57894  0.24789  1.0000
  H   H845      1.0  0.02038  0.75540  0.18741  1.0000
  C   C851      1.0  0.20003  0.86544  0.28111  1.0000
  C   C852      1.0  0.20389  0.86571  0.27033  1.0000
  C   C853      1.0  0.19878  0.86176  0.26483  1.0000
  C   C854      1.0  0.18995  0.85737  0.27017  1.0000
  C   C855      1.0  0.18635  0.85685  0.28099  1.0000
  C   C856      1.0  0.19126  0.86102  0.28640  1.0000
  H   H846      1.0  0.21061  0.86922  0.26618  1.0000
  H   H847      1.0  0.20174  0.86206  0.25654  1.0000
  H   H848      1.0  0.17956  0.85347  0.28518  1.0000
  H   H849      1.0  0.18819  0.86089  0.29471  1.0000
  H   H850      1.0  0.06275  0.71262  0.31051  1.0000
  H   H851      1.0  0.15638  0.66542  0.27825  1.0000
  H   H852      1.0  0.04112  0.72856  0.21878  1.0000
  H   H853      1.0  0.16921  0.70768  0.30957  1.0000
  H   H854      1.0  0.05179  0.72805  0.23139  1.0000
  H   H855      1.0  0.99097  0.77101  0.20408  1.0000
  N   N68       1.0  0.14090  0.84872  0.20567  1.0000
  C   C857      1.0  0.13342  0.84347  0.20586  1.0000
  C   C858      1.0  0.15098  0.84616  0.20002  1.0000
  C   C859      1.0  0.13599  0.83536  0.20036  1.0000
  C   C860      1.0  0.15385  0.83797  0.19458  1.0000
  C   C861      1.0  0.14627  0.83255  0.19476  1.0000
  C   C862      1.0  0.13798  0.85740  0.21122  1.0000
  H   H856      1.0  0.12545  0.84542  0.21041  1.0000
  H   H857      1.0  0.15696  0.85023  0.19999  1.0000
  H   H858      1.0  0.16191  0.83578  0.19034  1.0000
  H   H859      1.0  0.14833  0.82614  0.19062  1.0000
  H   H860      1.0  0.14493  0.85849  0.21349  1.0000
  H   H861      1.0  0.13465  0.86484  0.20612  1.0000
  H   H862      1.0  0.13205  0.85573  0.21866  1.0000
  H   H863      1.0  0.10095  0.73031  0.24028  1.0000
  H   H864      1.0  0.22837  0.62178  0.30136  1.0000
  H   H865      1.0  0.23972  0.97923  0.18495  1.0000
  N   N69       1.0  0.17073  0.72371  0.30427  1.0000
  C   C863      1.0  0.10141  0.71703  0.22197  1.0000
  S   S296      1.0  0.22273  0.53113  0.26583  1.0000
  H   H866      1.0  0.09647  0.74210  0.20851  1.0000
  H   H867      1.0  0.21361  0.74358  0.35378  1.0000
  C   C864      1.0  0.09890  0.72347  0.20380  1.0000
  H   H868      1.0  0.09728  0.74545  0.22541  1.0000
  H   H869      1.0  0.09562  0.71638  0.20505  1.0000
  C   C865      1.0  0.22102  0.68191  0.36316  1.0000
  Fe  Fe149     1.0  0.23386  0.94131  0.19879  1.0000
  C   C866      1.0  0.16385  0.72620  0.29675  1.0000
  C   C867      1.0  0.17969  0.71111  0.31714  1.0000
  N   N70       1.0  0.14324  0.73880  0.23918  1.0000
  C   C868      1.0  0.14859  0.74490  0.24152  1.0000
  C   C869      1.0  0.13885  0.74226  0.23049  1.0000
  C   C870      1.0  0.14953  0.75482  0.23511  1.0000
  C   C871      1.0  0.13964  0.75213  0.22391  1.0000
  C   C872      1.0  0.14494  0.75848  0.22632  1.0000
  C   C873      1.0  0.14261  0.72834  0.24587  1.0000
  H   H870      1.0  0.15215  0.74210  0.24839  1.0000
  H   H871      1.0  0.13482  0.73733  0.22849  1.0000
  H   H872      1.0  0.15369  0.75972  0.23699  1.0000
  H   H873      1.0  0.13632  0.75474  0.21691  1.0000
  H   H874      1.0  0.14551  0.76623  0.22139  1.0000
  H   H875      1.0  0.13669  0.72493  0.24426  1.0000
  H   H876      1.0  0.15043  0.72288  0.24450  1.0000
  H   H877      1.0  0.14029  0.72883  0.25431  1.0000
  C   C874      1.0  0.21715  0.58940  0.29362  1.0000
  S   S297      1.0  0.22735  0.91336  0.18245  1.0000
  S   S298      1.0  0.22946  0.81233  0.34135  1.0000
  S   S299      1.0  0.16727  0.74507  0.33156  1.0000
  H   H878      1.0  0.21506  0.49317  0.29785  1.0000
  N   N71       1.0  0.22636  0.58581  0.28708  1.0000
  C   C875      1.0  0.15970  0.72746  0.33247  1.0000
  S   S300      1.0  0.23396  0.76192  0.36487  1.0000
  H   H879      1.0  0.21159  0.85235  0.18671  1.0000
  C   C876      1.0  0.20565  0.62012  0.21458  1.0000
  H   H880      1.0  0.16856  0.72478  0.28893  1.0000
  H   H881      1.0  0.08302  0.80526  0.18100  1.0000
  C   C877      1.0  0.22974  0.61926  0.27307  1.0000
  H   H882      1.0  0.09762  0.77559  0.25141  1.0000
  H   H883      1.0  0.20992  0.63512  0.20725  1.0000
  C   C878      1.0  0.08353  0.67182  0.24611  1.0000
  C   C879      1.0  0.08456  0.68145  0.23912  1.0000
  C   C880      1.0  0.09117  0.65449  0.25598  1.0000
  H   H884      1.0  0.07569  0.67026  0.24959  1.0000
  H   H885      1.0  0.07766  0.68720  0.23707  1.0000
  H   H886      1.0  0.09646  0.65248  0.26163  1.0000
  H   H887      1.0  0.08300  0.65480  0.26080  1.0000
  C   C881      1.0  0.23225  0.71539  0.33814  1.0000
  C   C882      1.0  0.08348  0.79884  0.17733  1.0000
  C   C883      1.0  0.08174  0.75445  0.17794  1.0000
  H   H888      1.0  0.16355  0.67939  0.28099  1.0000
  C   C884      1.0  0.08846  0.75578  0.18359  1.0000
  C   C885      1.0  0.22771  0.84549  0.26556  1.0000
  N   N72       1.0  0.21548  0.83801  0.25674  1.0000
  S   S301      1.0  0.22965  0.87693  0.29402  1.0000
  C   C886      1.0  0.22433  0.84139  0.25057  1.0000
  C   C887      1.0  0.23282  0.56305  0.30582  1.0000
  C   C888      1.0  0.21270  0.83815  0.26724  1.0000
  C   C889      1.0  0.01179  0.78839  0.18046  1.0000
  C   C890      1.0  0.23806  0.97763  0.19347  1.0000
  H   H889      1.0  0.23761  0.84787  0.25005  1.0000
  H   H890      1.0  0.23798  0.94641  0.26294  1.0000
  H   H891      1.0  0.99452  0.70259  0.22800  1.0000
  C   C891      1.0  0.23152  0.72615  0.33369  1.0000
  C   C892      1.0  0.20843  0.77776  0.36305  1.0000
  S   S302      1.0  0.23305  0.85295  0.28921  1.0000
  H   H892      1.0  0.23242  0.84852  0.26895  1.0000
  C   C893      1.0  0.24023  0.57115  0.23488  1.0000
  N   N73       1.0  0.18600  0.89353  0.26299  1.0000
  C   C894      1.0  0.18532  0.90121  0.25403  1.0000
  C   C895      1.0  0.18139  0.88511  0.26495  1.0000
  C   C896      1.0  0.17973  0.90064  0.24688  1.0000
  C   C897      1.0  0.17609  0.88408  0.25778  1.0000
  C   C898      1.0  0.17527  0.89192  0.24868  1.0000
  C   C899      1.0  0.19228  0.89396  0.27017  1.0000
  H   H893      1.0  0.18925  0.90773  0.25225  1.0000
  H   H894      1.0  0.18192  0.87904  0.27204  1.0000
  H   H895      1.0  0.17927  0.90670  0.23974  1.0000
  H   H896      1.0  0.17277  0.87718  0.25922  1.0000
  H   H897      1.0  0.17135  0.89117  0.24292  1.0000
  H   H898      1.0  0.20058  0.88978  0.26779  1.0000
  H   H899      1.0  0.19219  0.90222  0.27020  1.0000
  H   H900      1.0  0.18918  0.89008  0.27842  1.0000
  N   N74       1.0  0.18550  0.65527  0.25070  1.0000
  C   C900      1.0  0.19360  0.64803  0.25456  1.0000
  C   C901      1.0  0.17561  0.65319  0.25324  1.0000
  C   C902      1.0  0.19193  0.63832  0.26101  1.0000
  C   C903      1.0  0.17373  0.64345  0.25942  1.0000
  C   C904      1.0  0.18197  0.63597  0.26332  1.0000
  C   C905      1.0  0.18744  0.66539  0.24398  1.0000
  H   H901      1.0  0.20144  0.64966  0.25252  1.0000
  H   H902      1.0  0.16920  0.65894  0.25016  1.0000
  H   H903      1.0  0.19837  0.63258  0.26407  1.0000
  H   H904      1.0  0.16600  0.64164  0.26094  1.0000
  H   H905      1.0  0.18068  0.62834  0.26804  1.0000
  H   H906      1.0  0.19478  0.66412  0.23785  1.0000
  H   H907      1.0  0.18091  0.66961  0.23981  1.0000
  H   H908      1.0  0.18810  0.67056  0.24885  1.0000
  N   N75       1.0  0.13541  0.80151  0.25598  1.0000
  C   C906      1.0  0.13644  0.79124  0.26134  1.0000
  C   C907      1.0  0.12683  0.80898  0.25918  1.0000
  C   C908      1.0  0.12860  0.78814  0.26997  1.0000
  C   C909      1.0  0.11877  0.80612  0.26768  1.0000
  C   C910      1.0  0.11965  0.79561  0.27306  1.0000
  C   C911      1.0  0.14377  0.80456  0.24701  1.0000
  H   H909      1.0  0.14324  0.78531  0.25880  1.0000
  H   H910      1.0  0.12607  0.81717  0.25503  1.0000
  H   H911      1.0  0.12934  0.77994  0.27408  1.0000
  H   H912      1.0  0.11184  0.81202  0.27000  1.0000
  H   H913      1.0  0.11341  0.79322  0.27958  1.0000
  H   H914      1.0  0.14685  0.79842  0.24218  1.0000
  H   H915      1.0  0.14079  0.81202  0.24170  1.0000
  H   H916      1.0  0.15033  0.80568  0.24985  1.0000
  N   N76       1.0  0.03680  0.75270  0.23093  1.0000
  C   C912      1.0  0.04420  0.74384  0.23364  1.0000
  C   C913      1.0  0.03062  0.75292  0.22426  1.0000
  C   C914      1.0  0.04583  0.73503  0.22932  1.0000
  C   C915      1.0  0.03212  0.74430  0.21971  1.0000
  C   C916      1.0  0.03981  0.73531  0.22225  1.0000
  C   C917      1.0  0.03518  0.76182  0.23558  1.0000
  C   C918      1.0  0.12213  0.68111  0.29131  1.0000
  C   C919      1.0  0.09457  0.68369  0.23485  1.0000
  H   H917      1.0  0.09317  0.64815  0.25150  1.0000
  H   H918      1.0  0.10265  0.70901  0.22105  1.0000
  C   C920      1.0  0.02164  0.76553  0.19681  1.0000
  H   H919      1.0  0.09544  0.69121  0.22957  1.0000
  C   C921      1.0  0.21518  0.79130  0.34855  1.0000
  H   H920      1.0  0.23908  0.84634  0.20716  1.0000
  S   S303      1.0  0.21989  0.93417  0.20038  1.0000
  C   C922      1.0  0.23348  0.48468  0.27250  1.0000
  C   C923      1.0  0.18201  0.72906  0.31207  1.0000
  C   C924      1.0  0.10343  0.67620  0.23740  1.0000
  H   H921      1.0  0.21280  0.87018  0.20068  1.0000
  H   H922      1.0  0.08682  0.70386  0.30595  1.0000
  H   H923      1.0  0.09369  0.73020  0.19955  1.0000
  C   C925      1.0  0.23794  0.73154  0.33586  1.0000
  C   C926      1.0  0.14829  0.68784  0.28775  1.0000
  H   H924      1.0  0.13208  0.69487  0.29335  1.0000
  H   H925      1.0  0.11126  0.67785  0.23407  1.0000
  C   C927      1.0  0.21499  0.84875  0.20218  1.0000
  C   C928      1.0  0.00496  0.76264  0.19519  1.0000
  H   H926      1.0  0.23239  0.87204  0.20545  1.0000
  N   N77       1.0  0.13354  0.68043  0.28889  1.0000
  H   H927      1.0  0.09249  0.78376  0.21111  1.0000
  C   C929      1.0  0.01607  0.76060  0.19273  1.0000
  N   N78       1.0  0.09932  0.72538  0.21387  1.0000
  C   C930      1.0  0.10210  0.71868  0.23155  1.0000
  H   H928      1.0  0.15343  0.75174  0.31706  1.0000
  C   C931      1.0  0.14022  0.67228  0.28467  1.0000
  C   C932      1.0  0.15111  0.67171  0.28189  1.0000
  H   H929      1.0  0.21290  0.79671  0.34132  1.0000
  C   C933      1.0  0.99791  0.67991  0.27377  1.0000
  H   H930      1.0  0.10696  0.72235  0.19872  1.0000
  C   C934      1.0  0.23560  0.96787  0.19920  1.0000
  H   H931      1.0  0.18520  0.73526  0.31301  1.0000
  C   C935      1.0  0.06773  0.71412  0.30248  1.0000
  H   H932      1.0  0.15950  0.73455  0.29584  1.0000
  C   C936      1.0  0.21854  0.74930  0.35118  1.0000
  H   H933      1.0  0.17338  0.73934  0.30063  1.0000
  C   C937      1.0  0.08115  0.76885  0.24032  1.0000
  H   H934      1.0  0.21628  0.59626  0.29678  1.0000
  C   C938      1.0  0.09806  0.73548  0.21497  1.0000
  C   C939      1.0  0.10060  0.72895  0.23282  1.0000
  C   C940      1.0  0.17524  0.73134  0.30511  1.0000
  H   H935      1.0  0.18938  0.71702  0.32365  1.0000
  C   C941      1.0  0.18426  0.71887  0.31810  1.0000
  C   C942      1.0  0.20570  0.90916  0.17736  1.0000
  H   H936      1.0  0.20677  0.71312  0.37343  1.0000
  C   C943      1.0  0.23960  0.69898  0.34943  1.0000
  C   C944      1.0  0.21147  0.87811  0.19593  1.0000
  Fe  Fe150     1.0  0.19084  0.73093  0.35962  1.0000
  C   C945      1.0  0.09858  0.73742  0.22448  1.0000
  H   H937      1.0  0.99696  0.70239  0.25280  1.0000
  C   C946      1.0  0.23950  0.92300  0.24170  1.0000
  H   H938      1.0  0.23565  0.77045  0.34235  1.0000
  Fe  Fe151     1.0  0.21847  0.54164  0.27745  1.0000
  C   C947      1.0  0.22634  0.76250  0.33755  1.0000
  C   C948      1.0  0.06961  0.69900  0.29474  1.0000
  Fe  Fe152     1.0  0.23258  0.61480  0.24262  1.0000
  H   H939      1.0  0.23060  0.54968  0.30132  1.0000
  C   C949      1.0  0.15969  0.73812  0.32803  1.0000
  S   S304      1.0  0.14217  0.75798  0.18645  1.0000
  S   S305      1.0  0.21386  0.75294  0.33175  1.0000
  H   H940      1.0  0.22812  0.62714  0.19898  1.0000
  H   H941      1.0  0.21689  0.50861  0.26800  1.0000
  C   C950      1.0  0.22001  0.75499  0.34077  1.0000
  H   H942      1.0  0.23046  0.61804  0.26533  1.0000
  Fe  Fe153     1.0  0.20268  0.74188  0.33905  1.0000
  S   S306      1.0  0.23294  0.87397  0.26998  1.0000
  S   S307      1.0  0.23252  0.54903  0.27061  1.0000
  H   H943      1.0  0.23909  0.63536  0.20558  1.0000
  H   H944      1.0  0.22638  0.63593  0.32838  1.0000
  S   S308      1.0  0.19683  0.73454  0.32928  1.0000
  S   S309      1.0  0.18660  0.74665  0.34879  1.0000
  N   N79       1.0  0.09400  0.77726  0.22708  1.0000
  S   S310      1.0  0.20758  0.70480  0.33607  1.0000
  C   C951      1.0  0.20292  0.76959  0.36718  1.0000
  S   S311      1.0  0.22574  0.52940  0.29002  1.0000
  H   H945      1.0  0.19673  0.48339  0.28200  1.0000
  H   H946      1.0  0.23408  0.62970  0.33844  1.0000
  C   C952      1.0  0.10208  0.74155  0.17729  1.0000
  C   C953      1.0  0.24046  0.57894  0.23984  1.0000
  Fe  Fe154     1.0  0.18095  0.73783  0.34000  1.0000
  H   H947      1.0  0.22757  0.76686  0.32947  1.0000
  Fe  Fe155     1.0  0.19971  0.71982  0.34149  1.0000
  C   C954      1.0  0.00742  0.68081  0.27540  1.0000
  C   C955      1.0  0.08515  0.68498  0.29453  1.0000
  C   C956      1.0  0.20456  0.78011  0.34629  1.0000
  H   H948      1.0  0.23796  0.69479  0.34418  1.0000
  H   H949      1.0  0.08214  0.76716  0.25642  1.0000
  S   S312      1.0  0.20720  0.72671  0.35026  1.0000
  C   C957      1.0  0.08343  0.69974  0.30222  1.0000
  C   C958      1.0  0.20974  0.57551  0.29222  1.0000
  H   H950      1.0  0.07206  0.68548  0.28792  1.0000
  C   C959      1.0  0.22321  0.75124  0.35840  1.0000
  H   H951      1.0  0.21318  0.61779  0.29715  1.0000
  H   H952      1.0  0.08969  0.67764  0.29232  1.0000
  H   H953      1.0  0.22213  0.68471  0.33705  1.0000
  C   C960      1.0  0.22015  0.61888  0.29106  1.0000
  H   H954      1.0  0.00317  0.73631  0.20239  1.0000
  C   C961      1.0  0.21907  0.57205  0.28538  1.0000
  H   H955      1.0  0.06261  0.71862  0.29680  1.0000
  H   H956      1.0  0.21985  0.56529  0.28211  1.0000
  C   C962      1.0  0.23308  0.84770  0.20269  1.0000
  C   C963      1.0  0.20917  0.83375  0.25224  1.0000
  Fe  Fe156     1.0  0.23129  0.51937  0.27768  1.0000
  S   S313      1.0  0.23535  0.91110  0.20744  1.0000
  H   H957      1.0  0.20267  0.76527  0.37526  1.0000
  H   H958      1.0  0.09703  0.68688  0.30146  1.0000
  H   H959      1.0  0.13389  0.78026  0.18137  1.0000
  C   C964      1.0  0.09423  0.77459  0.24538  1.0000
  H   H960      1.0  0.10477  0.77457  0.21287  1.0000
  C   C965      1.0  0.09843  0.77819  0.23473  1.0000
  C   C966      1.0  0.23057  0.84519  0.25489  1.0000
  C   C967      1.0  0.22892  0.83003  0.32546  1.0000
  S   S314      1.0  0.11274  0.77641  0.19003  1.0000
  H   H961      1.0  0.21391  0.79626  0.35436  1.0000
  S   S315      1.0  0.11489  0.73370  0.17655  1.0000
  H   H962      1.0  0.23301  0.92350  0.26767  1.0000
  C   C968      1.0  0.21972  0.68647  0.34483  1.0000
  S   S316      1.0  0.14268  0.73582  0.17972  1.0000
  H   H963      1.0  0.02022  0.78699  0.17999  1.0000
  H   H964      1.0  0.20907  0.88561  0.20888  1.0000
  C   C969      1.0  0.20916  0.60918  0.21628  1.0000
  C   C970      1.0  0.08553  0.76990  0.24818  1.0000
  Fe  Fe157     1.0  0.23744  0.53754  0.26019  1.0000
  S   S317      1.0  0.22679  0.67372  0.37346  1.0000
  C   C971      1.0  0.20975  0.89001  0.17926  1.0000
  C   C972      1.0  0.22410  0.67958  0.35314  1.0000
  H   H965      1.0  0.22658  0.84120  0.24225  1.0000
  H   H966      1.0  0.21055  0.83643  0.24353  1.0000
  H   H967      1.0  0.23461  0.57453  0.27758  1.0000
  H   H968      1.0  0.06202  0.70252  0.29259  1.0000
  H   H969      1.0  0.20330  0.57141  0.29422  1.0000
  C   C973      1.0  0.23089  0.76456  0.34483  1.0000
  C   C974      1.0  0.20768  0.89696  0.19429  1.0000
  H   H970      1.0  0.23365  0.69827  0.35695  1.0000
  H   H971      1.0  0.22224  0.59638  0.21329  1.0000
  H   H972      1.0  0.20484  0.91528  0.18185  1.0000
  H   H973      1.0  0.07308  0.71927  0.30218  1.0000
  H   H974      1.0  0.20624  0.90365  0.19789  1.0000
  C   C975      1.0  0.07525  0.68939  0.29205  1.0000
  H   H975      1.0  0.18951  0.69517  0.37553  1.0000
  C   C976      1.0  0.08926  0.69013  0.29970  1.0000
  C   C977      1.0  0.22277  0.62205  0.20372  1.0000
  H   H976      1.0  0.22372  0.78770  0.34663  1.0000
  H   H977      1.0  0.10383  0.75068  0.18735  1.0000
  H   H978      1.0  0.99879  0.70354  0.28429  1.0000
  C   C978      1.0  0.21874  0.84193  0.27180  1.0000
  H   H979      1.0  0.00430  0.71704  0.20661  1.0000
  C   C979      1.0  0.23570  0.85002  0.19165  1.0000
  C   C980      1.0  0.00767  0.68926  0.27938  1.0000
  C   C981      1.0  0.23598  0.55469  0.30050  1.0000
  H   H980      1.0  0.23468  0.62284  0.32869  1.0000
  S   S318      1.0  0.99829  0.75701  0.18907  1.0000
  H   H981      1.0  0.23160  0.97217  0.22390  1.0000
  C   C982      1.0  0.23859  0.88619  0.19867  1.0000
  N   N80       1.0  0.07379  0.70410  0.29963  1.0000
  C   C983      1.0  0.22873  0.62115  0.29344  1.0000
  C   C984      1.0  0.23706  0.60677  0.20088  1.0000
  C   C985      1.0  0.99086  0.70627  0.22102  1.0000
  H   H982      1.0  0.19774  0.62358  0.21833  1.0000
  H   H983      1.0  0.06692  0.80277  0.17717  1.0000
  H   H984      1.0  0.23981  0.61152  0.19295  1.0000
  Fe  Fe158     1.0  0.12530  0.74184  0.18056  1.0000
  C   C986      1.0  0.19815  0.76671  0.36069  1.0000
  C   C987      1.0  0.23341  0.96592  0.21021  1.0000
  H   H985      1.0  0.23467  0.59566  0.29031  1.0000
  H   H986      1.0  0.22982  0.67244  0.35181  1.0000
  H   H987      1.0  0.19413  0.76016  0.36369  1.0000
  H   H988      1.0  0.99771  0.67353  0.27037  1.0000
  C   C988      1.0  0.00479  0.79528  0.18653  1.0000
  C   C989      1.0  0.20479  0.48933  0.29028  1.0000
  H   H989      1.0  0.23146  0.95849  0.21473  1.0000
  H   H990      1.0  0.19990  0.49722  0.28916  1.0000
  N   N81       1.0  0.20777  0.89847  0.18382  1.0000
  H   H991      1.0  0.21634  0.84235  0.28007  1.0000
  S   S319      1.0  0.23513  0.95855  0.19226  1.0000
  S   S320      1.0  0.23350  0.50155  0.28022  1.0000
  H   H992      1.0  0.21246  0.77968  0.36804  1.0000
  H   H993      1.0  0.21150  0.69308  0.37254  1.0000
  C   C990      1.0  0.99392  0.79669  0.18740  1.0000
  H   H994      1.0  0.21342  0.87303  0.18152  1.0000
  S   S321      1.0  0.06932  0.76295  0.17756  1.0000
  C   C991      1.0  0.23399  0.63083  0.32998  1.0000
  H   H995      1.0  0.01511  0.69024  0.28030  1.0000
  S   S322      1.0  0.23729  0.93190  0.21443  1.0000
  H   H996      1.0  0.23733  0.63002  0.22492  1.0000
  Fe  Fe159     1.0  0.24016  0.53623  0.28228  1.0000
  C   C992      1.0  0.99840  0.69682  0.28154  1.0000
  C   C993      1.0  0.23769  0.62274  0.28554  1.0000
  H   H997      1.0  0.23965  0.55787  0.22443  1.0000
  H   H998      1.0  0.99567  0.70256  0.21435  1.0000
  H   H999      1.0  0.23105  0.89158  0.20039  1.0000
  H   H1000     1.0  0.09997  0.79270  0.17706  1.0000
  C   C994      1.0  0.23934  0.87529  0.20149  1.0000
  C   C995      1.0  0.23346  0.97372  0.21539  1.0000
  H   H1001     1.0  0.23832  0.91900  0.23624  1.0000
  C   C996      1.0  0.99696  0.78453  0.17647  1.0000
  S   S323      1.0  0.23593  0.57917  0.31265  1.0000
  H   H1002     1.0  0.23466  0.59710  0.27659  1.0000
  C   C997      1.0  0.23986  0.56935  0.30514  1.0000
  C   C998      1.0  0.21333  0.70882  0.38736  1.0000
  C   C999      1.0  0.19832  0.69134  0.40258  1.0000
  C   C1000     1.0  0.20583  0.72021  0.39982  1.0000
  S   S324      1.0  0.22520  0.70064  0.45672  1.0000
  C   C1001     1.0  0.21756  0.72806  0.47179  1.0000
  C   C1002     1.0  0.23417  0.76532  0.56570  1.0000
  C   C1003     1.0  0.22463  0.72791  0.48651  1.0000
  C   C1004     1.0  0.21932  0.71638  0.56521  1.0000
  C   C1005     1.0  0.21290  0.71119  0.39703  1.0000
  H   H1003     1.0  0.19299  0.73305  0.39580  1.0000
  N   N82       1.0  0.23152  0.73392  0.47997  1.0000
  H   H1004     1.0  0.21943  0.69671  0.47940  1.0000
  C   C1006     1.0  0.23152  0.73712  0.46945  1.0000
  H   H1005     1.0  0.22651  0.67754  0.39615  1.0000
  H   H1006     1.0  0.21227  0.71994  0.48769  1.0000
  H   H1007     1.0  0.23711  0.74171  0.46423  1.0000
  H   H1008     1.0  0.23263  0.75865  0.40586  1.0000
  C   C1007     1.0  0.19564  0.69237  0.39296  1.0000
  C   C1008     1.0  0.19314  0.69884  0.40869  1.0000
  C   C1009     1.0  0.21748  0.72499  0.48254  1.0000
  H   H1009     1.0  0.18151  0.71328  0.40968  1.0000
  C   C1010     1.0  0.23098  0.70129  0.48479  1.0000
  H   H1010     1.0  0.20530  0.72204  0.40731  1.0000
  C   C1011     1.0  0.23274  0.67322  0.41027  1.0000
  Fe  Fe160     1.0  0.23193  0.70383  0.43895  1.0000
  H   H1011     1.0  0.21870  0.70180  0.38518  1.0000
  H   H1012     1.0  0.20465  0.68504  0.40510  1.0000
  S   S325      1.0  0.22454  0.70745  0.54780  1.0000
  C   C1012     1.0  0.23833  0.76379  0.40159  1.0000
  C   C1013     1.0  0.24042  0.70630  0.46332  1.0000
  H   H1013     1.0  0.22732  0.69928  0.49304  1.0000
  H   H1014     1.0  0.22893  0.68062  0.41270  1.0000
  C   C1014     1.0  0.23929  0.79035  0.56842  1.0000
  H   H1015     1.0  0.23167  0.74785  0.53227  1.0000
  Fe  Fe161     1.0  0.22813  0.70565  0.41670  1.0000
  H   H1016     1.0  0.19988  0.68662  0.38817  1.0000
  S   S326      1.0  0.21955  0.70162  0.40630  1.0000
  S   S327      1.0  0.23088  0.72104  0.51657  1.0000
  H   H1017     1.0  0.21242  0.72541  0.46853  1.0000
  H   H1018     1.0  0.22610  0.76625  0.57075  1.0000
  Fe  Fe162     1.0  0.23509  0.71028  0.53159  1.0000
  H   H1019     1.0  0.23642  0.74948  0.54831  1.0000
  S   S328      1.0  0.22326  0.71683  0.42780  1.0000
  C   C1015     1.0  0.18577  0.70218  0.37910  1.0000
  C   C1016     1.0  0.21945  0.73677  0.55325  1.0000
  H   H1020     1.0  0.23950  0.75861  0.56980  1.0000
  C   C1017     1.0  0.19882  0.72642  0.39330  1.0000
  S   S329      1.0  0.21487  0.74609  0.56996  1.0000
  C   C1018     1.0  0.22653  0.69983  0.47704  1.0000
  C   C1019     1.0  0.18285  0.70801  0.39552  1.0000
  C   C1020     1.0  0.21742  0.73507  0.56425  1.0000
  C   C1021     1.0  0.22173  0.72832  0.54821  1.0000
  C   C1022     1.0  0.23640  0.66193  0.39799  1.0000
  H   H1021     1.0  0.23685  0.73624  0.49264  1.0000
  H   H1022     1.0  0.22341  0.72976  0.53969  1.0000
  H   H1023     1.0  0.21928  0.74469  0.54859  1.0000
  C   C1023     1.0  0.19901  0.72384  0.38381  1.0000
  C   C1024     1.0  0.22163  0.71809  0.55415  1.0000
  H   H1024     1.0  0.23543  0.66049  0.39080  1.0000
  H   H1025     1.0  0.21926  0.70847  0.56985  1.0000
  C   C1025     1.0  0.20655  0.71521  0.38069  1.0000
  H   H1026     1.0  0.17713  0.71482  0.39259  1.0000
  C   C1026     1.0  0.23135  0.67147  0.40104  1.0000
  C   C1027     1.0  0.18530  0.70719  0.40519  1.0000
  C   C1028     1.0  0.23949  0.73628  0.48407  1.0000
  C   C1029     1.0  0.22454  0.73425  0.46520  1.0000
  C   C1030     1.0  0.21739  0.72483  0.57027  1.0000
  C   C1031     1.0  0.23121  0.70234  0.46625  1.0000
  N   N83       1.0  0.18803  0.70067  0.38952  1.0000
  H   H1027     1.0  0.22491  0.72499  0.49477  1.0000
  C   C1032     1.0  0.18848  0.74758  0.57357  1.0000
  H   H1028     1.0  0.19262  0.75107  0.56586  1.0000
  S   S330      1.0  0.23519  0.69212  0.42859  1.0000
  H   H1029     1.0  0.22475  0.73657  0.45680  1.0000
  H   H1030     1.0  0.23431  0.77107  0.39678  1.0000
  H   H1031     1.0  0.17713  0.70375  0.37963  1.0000
  H   H1032     1.0  0.19550  0.69840  0.41592  1.0000
  S   S331      1.0  0.18870  0.73047  0.37699  1.0000
  H   H1033     1.0  0.23713  0.75499  0.38669  1.0000
  C   C1033     1.0  0.23973  0.74783  0.53219  1.0000
  H   H1034     1.0  0.23364  0.76334  0.55840  1.0000
  H   H1035     1.0  0.23754  0.72716  0.43865  1.0000
  C   C1034     1.0  0.23536  0.78120  0.57052  1.0000
  H   H1036     1.0  0.23696  0.79533  0.57413  1.0000
  C   C1035     1.0  0.24015  0.70533  0.48181  1.0000
  C   C1036     1.0  0.23934  0.66548  0.41622  1.0000
  Fe  Fe163     1.0  0.23924  0.72061  0.42059  1.0000
  H   H1037     1.0  0.19563  0.73163  0.57184  1.0000
  N   N84       1.0  0.23828  0.77494  0.56330  1.0000
  Fe  Fe164     1.0  0.13698  0.80111  0.74942  1.0000
  S   S332      1.0  0.12909  0.81783  0.74363  1.0000
  Fe  Fe165     1.0  0.14402  0.79622  0.72763  1.0000
  S   S333      1.0  0.13663  0.81258  0.72024  1.0000
  S   S334      1.0  0.15267  0.78529  0.71647  1.0000
  Fe  Fe166     1.0  0.14366  0.81809  0.73071  1.0000
  S   S335      1.0  0.15222  0.83165  0.72291  1.0000
  Fe  Fe167     1.0  0.12297  0.81060  0.73392  1.0000
  S   S336      1.0  0.10594  0.81537  0.73252  1.0000
  S   S337      1.0  0.15205  0.80173  0.73723  1.0000
  S   S338      1.0  0.12986  0.79390  0.74056  1.0000
  Fe  Fe168     1.0  0.12925  0.68991  0.75765  1.0000
  S   S339      1.0  0.14646  0.68229  0.75468  1.0000
  Fe  Fe169     1.0  0.12527  0.68361  0.73916  1.0000
  S   S340      1.0  0.14227  0.67558  0.73461  1.0000
  S   S341      1.0  0.11494  0.68424  0.72813  1.0000
  Fe  Fe170     1.0  0.14120  0.66898  0.75188  1.0000
  S   S342      1.0  0.14732  0.65167  0.75825  1.0000
  Fe  Fe171     1.0  0.14597  0.68952  0.73777  1.0000
  S   S343      1.0  0.15731  0.69940  0.72743  1.0000
  S   S344      1.0  0.12380  0.67599  0.75633  1.0000
  S   S345      1.0  0.12916  0.69812  0.74084  1.0000
  Fe  Fe172     1.0  0.13053  0.75185  0.69201  1.0000
  S   S346      1.0  0.14608  0.74462  0.68289  1.0000
  S   S347      1.0  0.12734  0.75600  0.70792  1.0000
  Fe  Fe173     1.0  0.11821  0.74950  0.67714  1.0000
  S   S348      1.0  0.13269  0.74219  0.66648  1.0000
  S   S349      1.0  0.10130  0.75244  0.67555  1.0000
  Fe  Fe174     1.0  0.13758  0.73302  0.68153  1.0000
  S   S350      1.0  0.14413  0.71564  0.68353  1.0000
  Fe  Fe175     1.0  0.14024  0.75435  0.66839  1.0000
  S   S351      1.0  0.15222  0.76240  0.65574  1.0000
  S   S352      1.0  0.12254  0.73921  0.69202  1.0000
  S   S353      1.0  0.12522  0.76272  0.67770  1.0000
  H   H1038     1.0  0.15661  0.82051  0.70514  1.0000
  Fe  Fe176     1.0  0.07899  0.75170  0.76660  1.0000
  C   C1037     1.0  0.23694  0.48560  0.70842  1.0000
  H   H1039     1.0  0.14346  0.87189  0.74667  1.0000
  C   C1038     1.0  0.21104  0.54452  0.75690  1.0000
  H   H1040     1.0  0.01354  0.75125  0.73591  1.0000
  S   S354      1.0  0.05871  0.77285  0.75176  1.0000
  S   S355      1.0  0.08398  0.76452  0.75311  1.0000
  Fe  Fe177     1.0  0.06967  0.77490  0.76071  1.0000
  S   S356      1.0  0.07074  0.79097  0.76184  1.0000
  Fe  Fe178     1.0  0.07277  0.76129  0.74536  1.0000
  S   S357      1.0  0.07717  0.75996  0.72847  1.0000
  Fe  Fe179     1.0  0.03881  0.71191  0.71307  1.0000
  S   S358      1.0  0.03990  0.71674  0.72744  1.0000
  S   S359      1.0  0.02414  0.70530  0.71515  1.0000
  Fe  Fe180     1.0  0.06020  0.71746  0.70107  1.0000
  S   S360      1.0  0.06252  0.72253  0.71457  1.0000
  S   S361      1.0  0.07301  0.71886  0.68622  1.0000
  Fe  Fe181     1.0  0.05691  0.70826  0.72464  1.0000
  S   S362      1.0  0.06514  0.70071  0.73827  1.0000
  Fe  Fe182     1.0  0.04553  0.73051  0.71599  1.0000
  S   S363      1.0  0.03959  0.74675  0.71926  1.0000
  S   S364      1.0  0.05566  0.70230  0.71104  1.0000
  S   S365      1.0  0.04335  0.72647  0.70179  1.0000
  Fe  Fe183     1.0  0.20096  0.61220  0.74247  1.0000
  S   S366      1.0  0.21724  0.60987  0.74534  1.0000
  S   S367      1.0  0.19297  0.62918  0.73682  1.0000
  Fe  Fe184     1.0  0.20173  0.58856  0.74795  1.0000
  H   H1041     1.0  0.12157  0.71640  0.72146  1.0000
  S   S368      1.0  0.19282  0.57616  0.74927  1.0000
  Fe  Fe185     1.0  0.21203  0.59805  0.75976  1.0000
  C   C1039     1.0  0.13571  0.73262  0.72769  1.0000
  S   S369      1.0  0.19542  0.60118  0.75750  1.0000
  S   S370      1.0  0.20590  0.59982  0.73268  1.0000
  Fe  Fe186     1.0  0.18821  0.86285  0.73649  1.0000
  S   S371      1.0  0.20338  0.85805  0.72526  1.0000
  S   S372      1.0  0.17602  0.85264  0.74429  1.0000
  Fe  Fe187     1.0  0.19501  0.88222  0.73890  1.0000
  S   S373      1.0  0.21041  0.87896  0.72767  1.0000
  S   S374      1.0  0.19157  0.89373  0.74962  1.0000
  Fe  Fe188     1.0  0.20124  0.87534  0.71793  1.0000
  S   S375      1.0  0.20626  0.88122  0.70047  1.0000
  Fe  Fe189     1.0  0.21134  0.86205  0.73579  1.0000
  S   S376      1.0  0.22739  0.85359  0.73883  1.0000
  S   S377      1.0  0.18540  0.88010  0.72847  1.0000
  S   S378      1.0  0.19646  0.86544  0.74777  1.0000
  C   C1040     1.0  0.17891  0.79552  0.72584  1.0000
  H   H1042     1.0  0.21411  0.56482  0.69406  1.0000
  Fe  Fe190     1.0  0.22000  0.93645  0.75282  1.0000
  H   H1043     1.0  0.00049  0.71156  0.68170  1.0000
  S   S379      1.0  0.21539  0.93129  0.74026  1.0000
  H   H1044     1.0  0.14505  0.66270  0.70977  1.0000
  S   S380      1.0  0.23197  0.94674  0.74693  1.0000
  Fe  Fe191     1.0  0.21957  0.73872  0.60770  1.0000
  S   S381      1.0  0.22365  0.75032  0.59275  1.0000
  Fe  Fe192     1.0  0.19621  0.74569  0.60878  1.0000
  S   S382      1.0  0.19825  0.75812  0.59385  1.0000
  S   S383      1.0  0.18053  0.74140  0.61767  1.0000
  Fe  Fe193     1.0  0.21148  0.74579  0.58737  1.0000
  H   H1045     1.0  0.15595  0.78621  0.75902  1.0000
  Fe  Fe194     1.0  0.21037  0.76165  0.60030  1.0000
  S   S384      1.0  0.21336  0.77786  0.59774  1.0000
  S   S385      1.0  0.20855  0.73298  0.60170  1.0000
  S   S386      1.0  0.20713  0.75040  0.61584  1.0000
  S   S387      1.0  0.06914  0.74736  0.75798  1.0000
  C   C1041     1.0  0.16960  0.75643  0.59707  1.0000
  H   H1046     1.0  0.04093  0.73402  0.76652  1.0000
  H   H1047     1.0  0.00966  0.70377  0.68965  1.0000
  C   C1042     1.0  0.22523  0.77738  0.60113  1.0000
  C   C1043     1.0  0.00684  0.72748  0.74718  1.0000
  H   H1048     1.0  0.14175  0.70537  0.75358  1.0000
  C   C1044     1.0  0.11007  0.77390  0.77081  1.0000
  H   H1049     1.0  0.00454  0.70896  0.74743  1.0000
  C   C1045     1.0  0.01132  0.75326  0.76611  1.0000
  Fe  Fe195     1.0  0.05547  0.75905  0.76496  1.0000
  C   C1046     1.0  0.21756  0.87263  0.69515  1.0000
  C   C1047     1.0  0.22564  0.87669  0.68751  1.0000
  H   H1050     1.0  0.23682  0.88058  0.63660  1.0000
  H   H1051     1.0  0.22161  0.87553  0.75599  1.0000
  C   C1048     1.0  0.06538  0.72315  0.75429  1.0000
  C   C1049     1.0  0.21870  0.86172  0.69870  1.0000
  H   H1052     1.0  0.22482  0.88514  0.68477  1.0000
  S   S388      1.0  0.21767  0.58433  0.75181  1.0000
  H   H1053     1.0  0.18494  0.72340  0.63765  1.0000
  H   H1054     1.0  0.21234  0.85849  0.70423  1.0000
  C   C1050     1.0  0.19843  0.90401  0.74689  1.0000
  C   C1051     1.0  0.19927  0.90788  0.75527  1.0000
  C   C1052     1.0  0.20451  0.91618  0.75337  1.0000
  C   C1053     1.0  0.20873  0.92086  0.74304  1.0000
  C   C1054     1.0  0.20777  0.91708  0.73466  1.0000
  C   C1055     1.0  0.20278  0.90859  0.73657  1.0000
  C   C1056     1.0  0.23452  0.70090  0.60990  1.0000
  H   H1055     1.0  0.20506  0.91914  0.75986  1.0000
  H   H1056     1.0  0.21095  0.92071  0.72664  1.0000
  H   H1057     1.0  0.20207  0.90578  0.73004  1.0000
  C   C1057     1.0  0.22728  0.85302  0.75198  1.0000
  C   C1058     1.0  0.21800  0.85235  0.75961  1.0000
  H   H1058     1.0  0.22555  0.48537  0.69061  1.0000
  H   H1059     1.0  0.16761  0.76957  0.76626  1.0000
  H   H1060     1.0  0.21134  0.85082  0.75770  1.0000
  H   H1061     1.0  0.16563  0.86719  0.75804  1.0000
  H   H1062     1.0  0.18691  0.72372  0.58990  1.0000
  C   C1059     1.0  0.15964  0.89503  0.74063  1.0000
  C   C1060     1.0  0.12492  0.65401  0.74315  1.0000
  C   C1061     1.0  0.19753  0.56655  0.74147  1.0000
  C   C1062     1.0  0.19038  0.56098  0.74092  1.0000
  C   C1063     1.0  0.19370  0.55284  0.73539  1.0000
  H   H1063     1.0  0.22322  0.86213  0.67275  1.0000
  H   H1064     1.0  0.16697  0.82751  0.70229  1.0000
  H   H1065     1.0  0.18217  0.56299  0.74478  1.0000
  H   H1066     1.0  0.18800  0.54869  0.73498  1.0000
  C   C1064     1.0  0.12348  0.71285  0.71446  1.0000
  C   C1065     1.0  0.06662  0.75695  0.72539  1.0000
  C   C1066     1.0  0.05625  0.76026  0.73067  1.0000
  C   C1067     1.0  0.04787  0.75760  0.72836  1.0000
  C   C1068     1.0  0.04989  0.75130  0.72104  1.0000
  C   C1069     1.0  0.06022  0.74823  0.71558  1.0000
  C   C1070     1.0  0.06858  0.75109  0.71769  1.0000
  H   H1067     1.0  0.05462  0.76492  0.73650  1.0000
  H   H1068     1.0  0.03986  0.76025  0.73243  1.0000
  H   H1069     1.0  0.06177  0.74376  0.70961  1.0000
  H   H1070     1.0  0.07659  0.74858  0.71354  1.0000
  C   C1071     1.0  0.99334  0.71799  0.70260  1.0000
  C   C1072     1.0  0.00182  0.72320  0.69834  1.0000
  C   C1073     1.0  0.01117  0.71965  0.70229  1.0000
  C   C1074     1.0  0.01222  0.71074  0.71046  1.0000
  C   C1075     1.0  0.00364  0.70569  0.71488  1.0000
  C   C1076     1.0  0.99422  0.70935  0.71106  1.0000
  H   H1071     1.0  0.00125  0.72988  0.69177  1.0000
  H   H1072     1.0  0.01769  0.72361  0.69878  1.0000
  H   H1073     1.0  0.00433  0.69882  0.72125  1.0000
  C   C1077     1.0  0.23017  0.76827  0.60735  1.0000
  C   C1078     1.0  0.01054  0.76070  0.75669  1.0000
  C   C1079     1.0  0.01897  0.76585  0.75163  1.0000
  C   C1080     1.0  0.02799  0.76372  0.75597  1.0000
  H   H1074     1.0  0.12744  0.70443  0.71659  1.0000
  C   C1081     1.0  0.16635  0.89293  0.74757  1.0000
  H   H1075     1.0  0.01849  0.77161  0.74434  1.0000
  H   H1076     1.0  0.03434  0.76782  0.75200  1.0000
  C   C1082     1.0  0.15285  0.78095  0.76610  1.0000
  H   H1077     1.0  0.10687  0.79271  0.74098  1.0000
  H   H1078     1.0  0.07322  0.71948  0.75577  1.0000
  H   H1079     1.0  0.12906  0.71715  0.70827  1.0000
  C   C1083     1.0  0.15977  0.75673  0.64495  1.0000
  C   C1084     1.0  0.15705  0.74855  0.64239  1.0000
  C   C1085     1.0  0.16332  0.74413  0.63382  1.0000
  C   C1086     1.0  0.17250  0.74767  0.62790  1.0000
  C   C1087     1.0  0.17524  0.75584  0.63045  1.0000
  C   C1088     1.0  0.16884  0.76041  0.63888  1.0000
  H   H1080     1.0  0.15006  0.74569  0.64696  1.0000
  H   H1081     1.0  0.16113  0.73782  0.63189  1.0000
  H   H1082     1.0  0.18227  0.75866  0.62592  1.0000
  H   H1083     1.0  0.17096  0.76677  0.64078  1.0000
  C   C1089     1.0  0.09525  0.74149  0.67982  1.0000
  C   C1090     1.0  0.09681  0.73462  0.67313  1.0000
  C   C1091     1.0  0.09016  0.72748  0.67535  1.0000
  C   C1092     1.0  0.08184  0.72721  0.68422  1.0000
  C   C1093     1.0  0.08052  0.73386  0.69107  1.0000
  C   C1094     1.0  0.08724  0.74091  0.68894  1.0000
  H   H1084     1.0  0.10283  0.73517  0.66595  1.0000
  H   H1085     1.0  0.09125  0.72239  0.66997  1.0000
  H   H1086     1.0  0.07409  0.73391  0.69779  1.0000
  H   H1087     1.0  0.08586  0.74631  0.69405  1.0000
  C   C1095     1.0  0.16016  0.64557  0.75249  1.0000
  C   C1096     1.0  0.16389  0.63473  0.75607  1.0000
  C   C1097     1.0  0.17393  0.62958  0.75136  1.0000
  C   C1098     1.0  0.18031  0.63525  0.74302  1.0000
  C   C1099     1.0  0.17655  0.64608  0.73943  1.0000
  C   C1100     1.0  0.16652  0.65123  0.74414  1.0000
  C   C1101     1.0  0.23844  0.57874  0.69505  1.0000
  H   H1088     1.0  0.17669  0.62122  0.75413  1.0000
  H   H1089     1.0  0.18143  0.65053  0.73298  1.0000
  H   H1090     1.0  0.16372  0.65957  0.74130  1.0000
  C   C1102     1.0  0.15459  0.70348  0.71480  1.0000
  C   C1103     1.0  0.15598  0.71340  0.70876  1.0000
  C   C1104     1.0  0.15294  0.71710  0.69904  1.0000
  C   C1105     1.0  0.14880  0.71075  0.69521  1.0000
  C   C1106     1.0  0.14781  0.70065  0.70105  1.0000
  C   C1107     1.0  0.15056  0.69708  0.71092  1.0000
  H   H1091     1.0  0.15923  0.71832  0.71167  1.0000
  H   H1092     1.0  0.15389  0.72482  0.69451  1.0000
  H   H1093     1.0  0.14462  0.69572  0.69810  1.0000
  H   H1094     1.0  0.14963  0.68935  0.71548  1.0000
  C   C1108     1.0  0.10110  0.68873  0.73120  1.0000
  C   C1109     1.0  0.09521  0.68946  0.72376  1.0000
  C   C1110     1.0  0.08421  0.69325  0.72580  1.0000
  C   C1111     1.0  0.07897  0.69613  0.73539  1.0000
  C   C1112     1.0  0.08484  0.69530  0.74287  1.0000
  C   C1113     1.0  0.09589  0.69171  0.74075  1.0000
  H   H1095     1.0  0.09919  0.68718  0.71634  1.0000
  H   H1096     1.0  0.07975  0.69379  0.72000  1.0000
  H   H1097     1.0  0.08083  0.69744  0.75034  1.0000
  H   H1098     1.0  0.10034  0.69113  0.74656  1.0000
  C   C1114     1.0  0.15911  0.83707  0.72899  1.0000
  C   C1115     1.0  0.16521  0.84440  0.72269  1.0000
  C   C1116     1.0  0.17072  0.84899  0.72719  1.0000
  C   C1117     1.0  0.17007  0.84638  0.73807  1.0000
  C   C1118     1.0  0.16400  0.83902  0.74436  1.0000
  C   C1119     1.0  0.15862  0.83431  0.73984  1.0000
  H   H1099     1.0  0.16561  0.84660  0.71428  1.0000
  H   H1100     1.0  0.17529  0.85469  0.72226  1.0000
  H   H1101     1.0  0.16342  0.83697  0.75279  1.0000
  H   H1102     1.0  0.15395  0.82869  0.74478  1.0000
  C   C1120     1.0  0.14540  0.77743  0.71397  1.0000
  C   C1121     1.0  0.14877  0.77359  0.70464  1.0000
  C   C1122     1.0  0.14320  0.76715  0.70258  1.0000
  C   C1123     1.0  0.13438  0.76432  0.70998  1.0000
  C   C1124     1.0  0.13107  0.76806  0.71934  1.0000
  C   C1125     1.0  0.13647  0.77471  0.72127  1.0000
  H   H1103     1.0  0.15569  0.77564  0.69897  1.0000
  H   H1104     1.0  0.14582  0.76429  0.69535  1.0000
  H   H1105     1.0  0.12431  0.76582  0.72514  1.0000
  H   H1106     1.0  0.13389  0.77748  0.72854  1.0000
  C   C1126     1.0  0.09677  0.80812  0.74120  1.0000
  C   C1127     1.0  0.08660  0.81363  0.74478  1.0000
  C   C1128     1.0  0.07879  0.80823  0.75110  1.0000
  C   C1129     1.0  0.08089  0.79721  0.75356  1.0000
  C   C1130     1.0  0.09104  0.79158  0.74984  1.0000
  C   C1131     1.0  0.09906  0.79705  0.74386  1.0000
  H   H1107     1.0  0.08474  0.82216  0.74269  1.0000
  H   H1108     1.0  0.07100  0.81263  0.75397  1.0000
  C   C1132     1.0  0.22609  0.86612  0.66476  1.0000
  H   H1109     1.0  0.16445  0.75206  0.60375  1.0000
  C   C1133     1.0  0.17456  0.79304  0.71875  1.0000
  H   H1110     1.0  0.22203  0.49347  0.71642  1.0000
  H   H1111     1.0  0.01562  0.72549  0.72187  1.0000
  H   H1112     1.0  0.00339  0.72314  0.75479  1.0000
  H   H1113     1.0  0.02853  0.73596  0.75556  1.0000
  H   H1114     1.0  0.22917  0.69659  0.60905  1.0000
  C   C1134     1.0  0.22966  0.78538  0.62966  1.0000
  C   C1135     1.0  0.01351  0.72887  0.72879  1.0000
  C   C1136     1.0  0.01507  0.73899  0.72774  1.0000
  H   H1115     1.0  0.21763  0.88147  0.66769  1.0000
  H   H1116     1.0  0.05871  0.72575  0.77007  1.0000
  H   H1117     1.0  0.00489  0.74930  0.77017  1.0000
  C   C1137     1.0  0.12162  0.73243  0.74316  1.0000
  H   H1118     1.0  0.21381  0.56797  0.73703  1.0000
  C   C1138     1.0  0.17461  0.81391  0.71747  1.0000
  H   H1119     1.0  0.14995  0.88866  0.73466  1.0000
  S   S389      1.0  0.21057  0.94579  0.76514  1.0000
  H   H1120     1.0  0.12035  0.64807  0.74371  1.0000
  C   C1139     1.0  0.21774  0.80212  0.61787  1.0000
  H   H1121     1.0  0.22601  0.55483  0.69540  1.0000
  H   H1122     1.0  0.16660  0.79918  0.70584  1.0000
  C   C1140     1.0  0.06342  0.72459  0.74430  1.0000
  C   C1141     1.0  0.22592  0.97990  0.76295  1.0000
  N   N85       1.0  0.00948  0.72324  0.73843  1.0000
  C   C1142     1.0  0.00831  0.73757  0.74642  1.0000
  N   N86       1.0  0.20438  0.62819  0.76536  1.0000
  H   H1123     1.0  0.15325  0.70976  0.74534  1.0000
  C   C1143     1.0  0.22598  0.85533  0.77235  1.0000
  C   C1144     1.0  0.22674  0.88235  0.65175  1.0000
  N   N87       1.0  0.22477  0.56880  0.70067  1.0000
  H   H1124     1.0  0.00956  0.69994  0.67783  1.0000
  H   H1125     1.0  0.21292  0.57220  0.71413  1.0000
  H   H1126     1.0  0.12534  0.72121  0.75701  1.0000
  H   H1127     1.0  0.22130  0.58513  0.71709  1.0000
  H   H1128     1.0  0.16815  0.81780  0.69485  1.0000
  C   C1145     1.0  0.23403  0.58366  0.70356  1.0000
  H   H1129     1.0  0.22243  0.71474  0.61234  1.0000
  H   H1130     1.0  0.17398  0.88109  0.75905  1.0000
  S   S390      1.0  0.23651  0.59055  0.72634  1.0000
  H   H1131     1.0  0.21582  0.72343  0.57877  1.0000
  C   C1146     1.0  0.14219  0.72460  0.73357  1.0000
  C   C1147     1.0  0.23554  0.87982  0.70557  1.0000
  H   H1132     1.0  0.14282  0.64010  0.74552  1.0000
  H   H1133     1.0  0.22875  0.84646  0.69760  1.0000
  H   H1134     1.0  0.21641  0.88530  0.74577  1.0000
  C   C1148     1.0  0.22909  0.54009  0.75790  1.0000
  N   N88       1.0  0.13470  0.65260  0.73514  1.0000
  S   S391      1.0  0.22929  0.92426  0.76371  1.0000
  H   H1135     1.0  0.23008  0.86657  0.71652  1.0000
  H   H1136     1.0  0.20453  0.54317  0.75448  1.0000
  C   C1149     1.0  0.14533  0.71239  0.75019  1.0000
  H   H1137     1.0  0.22827  0.88542  0.70771  1.0000
  C   C1150     1.0  0.99163  0.68279  0.70475  1.0000
  H   H1138     1.0  0.23868  0.84893  0.71702  1.0000
  H   H1139     1.0  0.23086  0.60658  0.75878  1.0000
  C   C1151     1.0  0.15278  0.64375  0.73026  1.0000
  N   N89       1.0  0.06519  0.76155  0.68622  1.0000
  C   C1152     1.0  0.07288  0.76122  0.67723  1.0000
  C   C1153     1.0  0.05779  0.75550  0.68880  1.0000
  C   C1154     1.0  0.07335  0.75465  0.67059  1.0000
  C   C1155     1.0  0.05807  0.74879  0.68236  1.0000
  C   C1156     1.0  0.06593  0.74835  0.67322  1.0000
  C   C1157     1.0  0.06528  0.76813  0.69327  1.0000
  H   H1140     1.0  0.07901  0.76569  0.67539  1.0000
  H   H1141     1.0  0.05174  0.75565  0.69598  1.0000
  H   H1142     1.0  0.07976  0.75406  0.66375  1.0000
  H   H1143     1.0  0.05244  0.74373  0.68458  1.0000
  H   H1144     1.0  0.06651  0.74282  0.66842  1.0000
  H   H1145     1.0  0.06537  0.77636  0.68885  1.0000
  H   H1146     1.0  0.05824  0.76832  0.69988  1.0000
  H   H1147     1.0  0.07242  0.76495  0.69673  1.0000
  C   C1158     1.0  0.22019  0.57387  0.70884  1.0000
  C   C1159     1.0  0.17025  0.80114  0.71114  1.0000
  N   N90       1.0  0.11398  0.71356  0.71075  1.0000
  C   C1160     1.0  0.11479  0.71334  0.70047  1.0000
  C   C1161     1.0  0.10446  0.71382  0.71771  1.0000
  C   C1162     1.0  0.10589  0.71344  0.69692  1.0000
  C   C1163     1.0  0.09538  0.71410  0.71438  1.0000
  C   C1164     1.0  0.09617  0.71369  0.70398  1.0000
  H   H1148     1.0  0.12237  0.71301  0.69498  1.0000
  H   H1149     1.0  0.10387  0.71361  0.72594  1.0000
  H   H1150     1.0  0.10653  0.71327  0.68877  1.0000
  H   H1151     1.0  0.08785  0.71425  0.71993  1.0000
  H   H1152     1.0  0.08926  0.71342  0.70144  1.0000
  N   N91       1.0  0.08913  0.78844  0.72385  1.0000
  C   C1165     1.0  0.09314  0.79717  0.72233  1.0000
  C   C1166     1.0  0.09514  0.77993  0.71978  1.0000
  C   C1167     1.0  0.10361  0.79734  0.71706  1.0000
  C   C1168     1.0  0.10557  0.77990  0.71433  1.0000
  C   C1169     1.0  0.10987  0.78861  0.71308  1.0000
  C   C1170     1.0  0.07815  0.78842  0.72941  1.0000
  H   H1153     1.0  0.08834  0.80400  0.72542  1.0000
  H   H1154     1.0  0.09193  0.77308  0.72074  1.0000
  H   H1155     1.0  0.10686  0.80417  0.71619  1.0000
  H   H1156     1.0  0.11030  0.77313  0.71113  1.0000
  H   H1157     1.0  0.11803  0.78858  0.70904  1.0000
  H   H1158     1.0  0.07696  0.78026  0.73297  1.0000
  H   H1159     1.0  0.07590  0.79266  0.73598  1.0000
  H   H1160     1.0  0.07278  0.79224  0.72386  1.0000
  C   C1171     1.0  0.23800  0.98068  0.77320  1.0000
  H   H1161     1.0  0.19385  0.62321  0.75924  1.0000
  N   N92       1.0  0.23290  0.86054  0.65763  1.0000
  H   H1162     1.0  0.06966  0.72193  0.73800  1.0000
  S   S392      1.0  0.23232  0.51582  0.72530  1.0000
  H   H1163     1.0  0.20930  0.79081  0.61726  1.0000
  Fe  Fe196     1.0  0.22155  0.59642  0.73714  1.0000
  S   S393      1.0  0.13412  0.79561  0.76694  1.0000
  C   C1172     1.0  0.23380  0.97482  0.76870  1.0000
  C   C1173     1.0  0.23614  0.85426  0.75470  1.0000
  C   C1174     1.0  0.23613  0.85895  0.68739  1.0000
  C   C1175     1.0  0.09420  0.79179  0.77246  1.0000
  C   C1176     1.0  0.04719  0.73128  0.76026  1.0000
  H   H1164     1.0  0.23291  0.95577  0.71190  1.0000
  H   H1165     1.0  0.15812  0.90277  0.73554  1.0000
  S   S394      1.0  0.23321  0.94409  0.77156  1.0000
  H   H1166     1.0  0.20134  0.55773  0.76361  1.0000
  C   C1177     1.0  0.23161  0.60757  0.76619  1.0000
  H   H1167     1.0  0.99313  0.67692  0.71177  1.0000
  C   C1178     1.0  0.15348  0.65018  0.72019  1.0000
  S   S395      1.0  0.99927  0.76395  0.75088  1.0000
  H   H1168     1.0  0.22862  0.87598  0.74248  1.0000
  H   H1169     1.0  0.22775  0.81134  0.61953  1.0000
  C   C1179     1.0  0.11234  0.78397  0.76750  1.0000
  C   C1180     1.0  0.20819  0.56381  0.73649  1.0000
  C   C1181     1.0  0.16532  0.81971  0.70279  1.0000
  C   C1182     1.0  0.17895  0.80602  0.72522  1.0000
  C   C1183     1.0  0.20428  0.54995  0.73050  1.0000
  H   H1170     1.0  0.17446  0.82207  0.71720  1.0000
  S   S396      1.0  0.20777  0.53941  0.72390  1.0000
  C   C1184     1.0  0.16376  0.87505  0.75324  1.0000
  H   H1171     1.0  0.23772  0.58936  0.70477  1.0000
  H   H1172     1.0  0.00274  0.71289  0.73415  1.0000
  C   C1185     1.0  0.14460  0.65762  0.71757  1.0000
  H   H1173     1.0  0.09280  0.78307  0.75180  1.0000
  C   C1186     1.0  0.23360  0.57137  0.69364  1.0000
  H   H1174     1.0  0.01834  0.74343  0.72011  1.0000
  N   N93       1.0  0.17662  0.74955  0.59012  1.0000
  H   H1175     1.0  0.11992  0.66204  0.74126  1.0000
  C   C1187     1.0  0.23763  0.71665  0.61292  1.0000
  C   C1188     1.0  0.02867  0.75645  0.76550  1.0000
  C   C1189     1.0  0.14236  0.78365  0.77139  1.0000
  H   H1176     1.0  0.23658  0.96637  0.76978  1.0000
  S   S397      1.0  0.03979  0.75351  0.77144  1.0000
  C   C1190     1.0  0.22285  0.53000  0.74902  1.0000
  H   H1177     1.0  0.23102  0.52873  0.74417  1.0000
  H   H1178     1.0  0.17921  0.73870  0.66998  1.0000
  H   H1179     1.0  0.22994  0.77916  0.57795  1.0000
  H   H1180     1.0  0.17755  0.74860  0.65805  1.0000
  C   C1191     1.0  0.15213  0.86903  0.74579  1.0000
  H   H1181     1.0  0.21586  0.55670  0.70679  1.0000
  H   H1182     1.0  0.23685  0.53501  0.75653  1.0000
  C   C1192     1.0  0.23965  0.94953  0.71426  1.0000
  N   N94       1.0  0.04529  0.73249  0.75049  1.0000
  C   C1193     1.0  0.02030  0.75120  0.77049  1.0000
  H   H1183     1.0  0.12046  0.78471  0.76429  1.0000
  H   H1184     1.0  0.22687  0.76128  0.60986  1.0000
  H   H1185     1.0  0.22123  0.64132  0.74632  1.0000
  C   C1194     1.0  0.22184  0.63666  0.76279  1.0000
  C   C1195     1.0  0.18535  0.73222  0.58709  1.0000
  H   H1186     1.0  0.16627  0.74604  0.66789  1.0000
  H   H1187     1.0  0.01586  0.70740  0.73678  1.0000
  C   C1196     1.0  0.21159  0.55540  0.73112  1.0000
  H   H1188     1.0  0.15965  0.63799  0.73244  1.0000
  C   C1197     1.0  0.99875  0.68932  0.69930  1.0000
  C   C1198     1.0  0.23548  0.85545  0.76490  1.0000
  C   C1199     1.0  0.15506  0.88702  0.74017  1.0000
  S   S398      1.0  0.06512  0.76224  0.77481  1.0000
  C   C1200     1.0  0.23072  0.71117  0.61168  1.0000
  H   H1189     1.0  0.17416  0.78495  0.71934  1.0000
  C   C1201     1.0  0.01244  0.74336  0.73662  1.0000
  Fe  Fe197     1.0  0.22353  0.95495  0.76023  1.0000
  H   H1190     1.0  0.19577  0.90448  0.76326  1.0000
  C   C1202     1.0  0.10702  0.80322  0.76457  1.0000
  H   H1191     1.0  0.21624  0.56144  0.76861  1.0000
  C   C1203     1.0  0.12831  0.72440  0.74878  1.0000
  H   H1192     1.0  0.21497  0.90026  0.76884  1.0000
  C   C1204     1.0  0.12538  0.73657  0.73255  1.0000
  C   C1205     1.0  0.22962  0.78635  0.59788  1.0000
  H   H1193     1.0  0.18206  0.80810  0.73085  1.0000
  H   H1194     1.0  0.16439  0.76302  0.59269  1.0000
  H   H1195     1.0  0.17158  0.71230  0.64633  1.0000
  H   H1196     1.0  0.21327  0.80868  0.61307  1.0000
  C   C1206     1.0  0.19508  0.62384  0.76685  1.0000
  N   N95       1.0  0.15705  0.87722  0.74652  1.0000
  H   H1197     1.0  0.18201  0.78934  0.73196  1.0000
  N   N96       1.0  0.17032  0.81140  0.71057  1.0000
  H   H1198     1.0  0.13870  0.73583  0.71944  1.0000
  C   C1207     1.0  0.09963  0.77287  0.77484  1.0000
  C   C1208     1.0  0.00811  0.71259  0.73926  1.0000
  C   C1209     1.0  0.03477  0.73763  0.74843  1.0000
  S   S399      1.0  0.21977  0.97282  0.75785  1.0000
  H   H1199     1.0  0.00602  0.74100  0.75333  1.0000
  H   H1200     1.0  0.15954  0.71520  0.66339  1.0000
  N   N97       1.0  0.17347  0.73401  0.65912  1.0000
  C   C1210     1.0  0.16623  0.72784  0.66403  1.0000
  C   C1211     1.0  0.18030  0.73229  0.64990  1.0000
  C   C1212     1.0  0.16543  0.71995  0.65951  1.0000
  C   C1213     1.0  0.17975  0.72445  0.64517  1.0000
  C   C1214     1.0  0.17221  0.71830  0.64999  1.0000
  C   C1215     1.0  0.17422  0.74219  0.66402  1.0000
  H   H1201     1.0  0.16095  0.72900  0.67145  1.0000
  H   H1202     1.0  0.18604  0.73719  0.64597  1.0000
  H   H1203     1.0  0.11637  0.76696  0.77021  1.0000
  H   H1204     1.0  0.21742  0.53196  0.74350  1.0000
  H   H1205     1.0  0.23177  0.84570  0.66831  1.0000
  H   H1206     1.0  0.00581  0.68841  0.70219  1.0000
  C   C1216     1.0  0.17852  0.73882  0.59361  1.0000
  H   H1207     1.0  0.17435  0.75971  0.60049  1.0000
  H   H1208     1.0  0.03325  0.73488  0.74202  1.0000
  H   H1209     1.0  0.15022  0.72158  0.72974  1.0000
  C   C1217     1.0  0.00452  0.70331  0.68462  1.0000
  H   H1210     1.0  0.11359  0.73544  0.74703  1.0000
  C   C1218     1.0  0.05724  0.72656  0.76233  1.0000
  H   H1211     1.0  0.17006  0.89902  0.74791  1.0000
  H   H1212     1.0  0.11068  0.80471  0.77036  1.0000
  H   H1213     1.0  0.03412  0.74629  0.74602  1.0000
  Fe  Fe198     1.0  0.22445  0.53182  0.71732  1.0000
  C   C1219     1.0  0.05328  0.72936  0.74252  1.0000
  H   H1214     1.0  0.18045  0.76246  0.57768  1.0000
  C   C1220     1.0  0.16849  0.88286  0.75387  1.0000
  N   N98       1.0  0.10443  0.79276  0.76820  1.0000
  S   S400      1.0  0.23003  0.52821  0.70109  1.0000
  H   H1215     1.0  0.21981  0.55318  0.72748  1.0000
  H   H1216     1.0  0.18790  0.62900  0.77055  1.0000
  C   C1221     1.0  0.19028  0.73665  0.57698  1.0000
  H   H1217     1.0  0.09996  0.80957  0.76335  1.0000
  C   C1222     1.0  0.20876  0.63331  0.75558  1.0000
  H   H1218     1.0  0.05183  0.73049  0.73473  1.0000
  C   C1223     1.0  0.22139  0.78371  0.62627  1.0000
  N   N99       1.0  0.22097  0.53849  0.75462  1.0000
  H   H1219     1.0  0.22886  0.63966  0.76180  1.0000
  N   N100      1.0  0.23188  0.79520  0.62722  1.0000
  H   H1220     1.0  0.12032  0.74287  0.72809  1.0000
  H   H1221     1.0  0.15553  0.86674  0.73805  1.0000
  C   C1224     1.0  0.21763  0.63750  0.75412  1.0000
  H   H1222     1.0  0.15898  0.63029  0.76249  1.0000
  N   N101      1.0  0.23000  0.88800  0.74919  1.0000
  H   H1223     1.0  0.16090  0.64941  0.71448  1.0000
  H   H1224     1.0  0.17482  0.73531  0.60151  1.0000
  S   S401      1.0  0.21540  0.59704  0.77558  1.0000
  C   C1225     1.0  0.23875  0.78631  0.60104  1.0000
  N   N102      1.0  0.13846  0.72063  0.74399  1.0000
  H   H1225     1.0  0.08788  0.79872  0.77297  1.0000
  C   C1226     1.0  0.22648  0.48622  0.71400  1.0000
  C   C1227     1.0  0.22390  0.88087  0.74829  1.0000
  H   H1226     1.0  0.22415  0.90048  0.73730  1.0000
  C   C1228     1.0  0.13519  0.65867  0.72516  1.0000
  H   H1227     1.0  0.12837  0.66460  0.72311  1.0000
  C   C1229     1.0  0.22919  0.89791  0.74296  1.0000
  C   C1230     1.0  0.14324  0.64501  0.73765  1.0000
  H   H1228     1.0  0.23453  0.77871  0.63394  1.0000
  C   C1231     1.0  0.21732  0.85357  0.76976  1.0000
  H   H1229     1.0  0.12672  0.65316  0.75097  1.0000
  C   C1232     1.0  0.21993  0.56093  0.69914  1.0000
  C   C1233     1.0  0.22480  0.58128  0.71048  1.0000
  H   H1230     1.0  0.21989  0.77584  0.62790  1.0000
  C   C1234     1.0  0.20918  0.55278  0.76207  1.0000
  S   S402      1.0  0.23322  0.72950  0.61500  1.0000
  C   C1235     1.0  0.22599  0.80355  0.62149  1.0000
  C   C1236     1.0  0.15944  0.77157  0.77022  1.0000
  C   C1237     1.0  0.22290  0.87709  0.66193  1.0000
  C   C1238     1.0  0.23680  0.88456  0.75594  1.0000
  C   C1239     1.0  0.23661  0.86563  0.64760  1.0000
  H   H1231     1.0  0.14640  0.71529  0.75673  1.0000
  C   C1240     1.0  0.23499  0.86987  0.68376  1.0000
  C   C1241     1.0  0.21545  0.79213  0.62029  1.0000
  H   H1232     1.0  0.23415  0.54991  0.76508  1.0000
  C   C1242     1.0  0.18162  0.75396  0.58030  1.0000
  H   H1233     1.0  0.22583  0.79341  0.59306  1.0000
  C   C1243     1.0  0.22757  0.54841  0.76289  1.0000
  S   S403      1.0  0.23740  0.53983  0.71580  1.0000
  C   C1244     1.0  0.23877  0.61338  0.76635  1.0000
  H   H1234     1.0  0.23555  0.61246  0.72663  1.0000
  Fe  Fe199     1.0  0.23908  0.51269  0.70899  1.0000
  H   H1235     1.0  0.22166  0.52255  0.75474  1.0000
  C   C1245     1.0  0.22796  0.85490  0.69483  1.0000
  H   H1236     1.0  0.15357  0.86177  0.75199  1.0000
  H   H1237     1.0  0.22449  0.89087  0.64952  1.0000
  C   C1246     1.0  0.23679  0.84916  0.66086  1.0000
  C   C1247     1.0  0.21754  0.55485  0.76489  1.0000
  H   H1238     1.0  0.20549  0.63405  0.74880  1.0000
  C   C1248     1.0  0.23655  0.86913  0.71045  1.0000
  H   H1239     1.0  0.23828  0.79599  0.63969  1.0000
  S   S404      1.0  0.09215  0.73960  0.77341  1.0000
  H   H1240     1.0  0.23772  0.87659  0.76064  1.0000
  H   H1241     1.0  0.11271  0.80373  0.75686  1.0000
  H   H1242     1.0  0.23700  0.56766  0.68694  1.0000
  C   C1249     1.0  0.23361  0.87659  0.64451  1.0000
  H   H1243     1.0  0.11379  0.73606  0.77446  1.0000
  H   H1244     1.0  0.23385  0.91289  0.73908  1.0000
  C   C1250     1.0  0.21714  0.63170  0.77277  1.0000
  S   S405      1.0  0.12198  0.70059  0.76918  1.0000
  C   C1251     1.0  0.20842  0.62740  0.77390  1.0000
  H   H1245     1.0  0.23733  0.94611  0.72280  1.0000
  C   C1252     1.0  0.23480  0.90491  0.74383  1.0000
  H   H1246     1.0  0.19607  0.61576  0.77190  1.0000
  C   C1253     1.0  0.23918  0.76831  0.61071  1.0000
  H   H1247     1.0  0.23658  0.72754  0.59093  1.0000
  H   H1248     1.0  0.23696  0.84503  0.65469  1.0000
  N   N103      1.0  0.99677  0.69686  0.69055  1.0000
  C   C1254     1.0  0.13103  0.70228  0.77557  1.0000
  Fe  Fe200     1.0  0.22101  0.93432  0.77554  1.0000
  C   C1255     1.0  0.22530  0.60329  0.77560  1.0000
  H   H1249     1.0  0.21001  0.85330  0.77555  1.0000
  C   C1256     1.0  0.23985  0.61474  0.77592  1.0000
  C   C1257     1.0  0.09164  0.78184  0.77576  1.0000
  Fe  Fe201     1.0  0.24056  0.93509  0.75874  1.0000
  C   C1258     1.0  0.24050  0.79672  0.63103  1.0000
  H   H1250     1.0  0.14045  0.68653  0.77613  1.0000
  C   C1259     1.0  0.24049  0.76263  0.85318  1.0000
  Fe  Fe202     1.0  0.15362  0.74248  0.79621  1.0000
  S   S406      1.0  0.14215  0.74701  0.81061  1.0000
  H   H1251     1.0  0.22529  0.97071  0.79749  1.0000
  Fe  Fe203     1.0  0.14849  0.72094  0.80083  1.0000
  S   S407      1.0  0.13689  0.72362  0.81575  1.0000
  S   S408      1.0  0.15170  0.70544  0.79601  1.0000
  Fe  Fe204     1.0  0.13135  0.73957  0.80600  1.0000
  S   S409      1.0  0.11380  0.74617  0.80697  1.0000
  Fe  Fe205     1.0  0.14894  0.73070  0.81878  1.0000
  S   S410      1.0  0.15359  0.72615  0.83471  1.0000
  S   S411      1.0  0.14236  0.73648  0.79093  1.0000
  S   S412      1.0  0.16103  0.72658  0.80462  1.0000
  C   C1260     1.0  0.21392  0.88315  0.79260  1.0000
  H   H1252     1.0  0.22247  0.94360  0.79890  1.0000
  C   C1261     1.0  0.21006  0.90459  0.78395  1.0000
  C   C1262     1.0  0.22735  0.68213  0.85546  1.0000
  H   H1253     1.0  0.20550  0.70086  0.86186  1.0000
  C   C1263     1.0  0.14583  0.69516  0.78428  1.0000
  H   H1254     1.0  0.11268  0.69421  0.79259  1.0000
  S   S413      1.0  0.23205  0.73472  0.85877  1.0000
  C   C1264     1.0  0.19399  0.72662  0.92218  1.0000
  H   H1255     1.0  0.22301  0.81148  0.90987  1.0000
  C   C1265     1.0  0.20841  0.90082  0.79487  1.0000
  H   H1256     1.0  0.08358  0.74983  0.79133  1.0000
  H   H1257     1.0  0.09773  0.76515  0.77717  1.0000
  C   C1266     1.0  0.20317  0.80029  0.91662  1.0000
  S   S414      1.0  0.23370  0.78044  0.87224  1.0000
  S   S415      1.0  0.21464  0.92815  0.79263  1.0000
  C   C1267     1.0  0.21093  0.79770  0.89881  1.0000
  H   H1258     1.0  0.21325  0.91646  0.81390  1.0000
  Fe  Fe206     1.0  0.19952  0.72105  0.87833  1.0000
  S   S416      1.0  0.18592  0.73496  0.87944  1.0000
  S   S417      1.0  0.19674  0.70512  0.88722  1.0000
  Fe  Fe207     1.0  0.21494  0.73434  0.86506  1.0000
  S   S418      1.0  0.20263  0.74928  0.86491  1.0000
  C   C1268     1.0  0.20281  0.71876  0.92433  1.0000
  Fe  Fe208     1.0  0.19760  0.74267  0.88219  1.0000
  S   S419      1.0  0.19414  0.75271  0.89434  1.0000
  Fe  Fe209     1.0  0.19227  0.74004  0.86205  1.0000
  S   S420      1.0  0.18260  0.74768  0.84931  1.0000
  S   S421      1.0  0.21056  0.72829  0.88244  1.0000
  S   S422      1.0  0.20521  0.72553  0.86083  1.0000
  H   H1259     1.0  0.15206  0.68862  0.78660  1.0000
  H   H1260     1.0  0.02069  0.74560  0.77789  1.0000
  C   C1269     1.0  0.20911  0.88627  0.81047  1.0000
  C   C1270     1.0  0.20692  0.71111  0.91823  1.0000
  C   C1271     1.0  0.11437  0.71530  0.80621  1.0000
  C   C1272     1.0  0.22641  0.68752  0.88031  1.0000
  C   C1273     1.0  0.10907  0.73963  0.78097  1.0000
  Fe  Fe210     1.0  0.22033  0.77436  0.93959  1.0000
  S   S423      1.0  0.21119  0.76251  0.95057  1.0000
  S   S424      1.0  0.21258  0.79100  0.93340  1.0000
  Fe  Fe211     1.0  0.22458  0.75810  0.95922  1.0000
  C   C1274     1.0  0.12950  0.71184  0.77861  1.0000
  Fe  Fe212     1.0  0.22134  0.75158  0.93993  1.0000
  S   S425      1.0  0.21787  0.74000  0.93240  1.0000
  H   H1261     1.0  0.22262  0.80931  0.92358  1.0000
  S   S426      1.0  0.22946  0.76379  0.92850  1.0000
  H   H1262     1.0  0.22830  0.75036  0.88478  1.0000
  C   C1275     1.0  0.12129  0.70548  0.80747  1.0000
  C   C1276     1.0  0.21183  0.79320  0.92016  1.0000
  H   H1263     1.0  0.20103  0.78326  0.88508  1.0000
  C   C1277     1.0  0.22684  0.76525  0.84358  1.0000
  N   N104      1.0  0.21055  0.89022  0.79905  1.0000
  H   H1264     1.0  0.17284  0.73233  0.91674  1.0000
  H   H1265     1.0  0.21003  0.77429  0.86005  1.0000
  H   H1266     1.0  0.19680  0.80406  0.92212  1.0000
  C   C1278     1.0  0.20783  0.69469  0.88673  1.0000
  C   C1279     1.0  0.20631  0.68449  0.89153  1.0000
  C   C1280     1.0  0.21470  0.67583  0.89053  1.0000
  C   C1281     1.0  0.22093  0.69218  0.85570  1.0000
  C   C1282     1.0  0.09811  0.74280  0.78198  1.0000
  C   C1283     1.0  0.21793  0.69626  0.88126  1.0000
  H   H1267     1.0  0.19854  0.68325  0.89580  1.0000
  H   H1268     1.0  0.21338  0.66794  0.89406  1.0000
  C   C1284     1.0  0.21049  0.69313  0.86130  1.0000
  H   H1269     1.0  0.21914  0.70415  0.87756  1.0000
  C   C1285     1.0  0.20130  0.74944  0.90450  1.0000
  C   C1286     1.0  0.20968  0.74069  0.90529  1.0000
  C   C1287     1.0  0.21496  0.73812  0.91366  1.0000
  C   C1288     1.0  0.21201  0.74433  0.92126  1.0000
  C   C1289     1.0  0.20388  0.75331  0.92027  1.0000
  C   C1290     1.0  0.19848  0.75578  0.91199  1.0000
  H   H1270     1.0  0.21201  0.73576  0.89960  1.0000
  H   H1271     1.0  0.22122  0.73115  0.91438  1.0000
  H   H1272     1.0  0.20149  0.75814  0.92609  1.0000
  H   H1273     1.0  0.19206  0.76262  0.91142  1.0000
  H   H1274     1.0  0.12304  0.71822  0.77665  1.0000
  H   H1275     1.0  0.20519  0.70542  0.90539  1.0000
  C   C1291     1.0  0.11284  0.70003  0.79673  1.0000
  C   C1292     1.0  0.22472  0.67728  0.88481  1.0000
  C   C1293     1.0  0.14484  0.76736  0.78446  1.0000
  H   H1276     1.0  0.22163  0.77041  0.83856  1.0000
  C   C1294     1.0  0.23250  0.89579  0.80682  1.0000
  H   H1277     1.0  0.21382  0.70503  0.91973  1.0000
  H   H1278     1.0  0.19101  0.73268  0.92680  1.0000
  S   S427      1.0  0.23378  0.74592  0.94971  1.0000
  N   N105      1.0  0.22350  0.67329  0.86077  1.0000
  H   H1279     1.0  0.22179  0.60102  0.79251  1.0000
  C   C1295     1.0  0.20712  0.77612  0.88491  1.0000
  H   H1280     1.0  0.21944  0.75841  0.86980  1.0000
  H   H1281     1.0  0.08346  0.78114  0.77873  1.0000
  H   H1282     1.0  0.22084  0.75151  0.84498  1.0000
  H   H1283     1.0  0.23954  0.79822  0.81957  1.0000
  H   H1284     1.0  0.21655  0.88097  0.81245  1.0000
  C   C1296     1.0  0.21742  0.76227  0.87638  1.0000
  H   H1285     1.0  0.20267  0.88184  0.81338  1.0000
  C   C1297     1.0  0.21953  0.91197  0.80892  1.0000
  H   H1286     1.0  0.18149  0.75850  0.78973  1.0000
  H   H1287     1.0  0.23416  0.83926  0.79881  1.0000
  C   C1298     1.0  0.20473  0.77611  0.86752  1.0000
  N   N106      1.0  0.23825  0.82424  0.80881  1.0000
  C   C1299     1.0  0.22556  0.95081  0.79768  1.0000
  C   C1300     1.0  0.21363  0.89743  0.77732  1.0000
  H   H1288     1.0  0.18025  0.74252  0.91416  1.0000
  C   C1301     1.0  0.21202  0.77177  0.89349  1.0000
  C   C1302     1.0  0.24030  0.75187  0.85653  1.0000
  H   H1289     1.0  0.22696  0.78327  0.91552  1.0000
  C   C1303     1.0  0.22249  0.75769  0.88483  1.0000
  H   H1290     1.0  0.22046  0.63089  0.77952  1.0000
  H   H1291     1.0  0.22244  0.89859  0.82160  1.0000
  H   H1292     1.0  0.20249  0.78485  0.86637  1.0000
  H   H1293     1.0  0.20963  0.77546  0.90023  1.0000
  H   H1294     1.0  0.18959  0.71940  0.90199  1.0000
  C   C1304     1.0  0.16170  0.73225  0.83857  1.0000
  C   C1305     1.0  0.16273  0.74264  0.83394  1.0000
  C   C1306     1.0  0.16885  0.74736  0.83759  1.0000
  C   C1307     1.0  0.17430  0.74164  0.84563  1.0000
  C   C1308     1.0  0.17330  0.73124  0.85023  1.0000
  C   C1309     1.0  0.16692  0.72663  0.84680  1.0000
  H   H1295     1.0  0.15876  0.74708  0.82761  1.0000
  H   H1296     1.0  0.16954  0.75542  0.83402  1.0000
  H   H1297     1.0  0.17739  0.72676  0.85646  1.0000
  H   H1298     1.0  0.16611  0.71861  0.85049  1.0000
  C   C1310     1.0  0.22666  0.60431  0.78521  1.0000
  Fe  Fe213     1.0  0.23904  0.86086  0.78744  1.0000
  H   H1299     1.0  0.20867  0.91303  0.78071  1.0000
  C   C1311     1.0  0.22638  0.75458  0.84722  1.0000
  H   H1300     1.0  0.10153  0.72495  0.79912  1.0000
  H   H1301     1.0  0.23160  0.81700  0.91422  1.0000
  H   H1302     1.0  0.11511  0.72150  0.80954  1.0000
  C   C1312     1.0  0.23312  0.74788  0.85367  1.0000
  C   C1313     1.0  0.21324  0.67416  0.86619  1.0000
  H   H1303     1.0  0.22796  0.65691  0.86753  1.0000
  C   C1314     1.0  0.10796  0.74532  0.79697  1.0000
  C   C1315     1.0  0.09699  0.74873  0.79786  1.0000
  C   C1316     1.0  0.09207  0.74746  0.79040  1.0000
  C   C1317     1.0  0.12045  0.69774  0.80281  1.0000
  C   C1318     1.0  0.23050  0.91033  0.79176  1.0000
  C   C1319     1.0  0.11398  0.74090  0.78840  1.0000
  H   H1304     1.0  0.09224  0.75217  0.80445  1.0000
  H   H1305     1.0  0.23515  0.83630  0.81744  1.0000
  H   H1306     1.0  0.13463  0.72031  0.78710  1.0000
  H   H1307     1.0  0.12239  0.73825  0.78756  1.0000
  C   C1320     1.0  0.13607  0.71303  0.78453  1.0000
  H   H1308     1.0  0.13025  0.77893  0.78464  1.0000
  H   H1309     1.0  0.19859  0.68477  0.87121  1.0000
  H   H1310     1.0  0.20718  0.89276  0.81476  1.0000
  Fe  Fe214     1.0  0.23709  0.78864  0.85527  1.0000
  H   H1311     1.0  0.09656  0.70536  0.78769  1.0000
  S   S428      1.0  0.23374  0.78283  0.84268  1.0000
  H   H1312     1.0  0.23818  0.82849  0.79232  1.0000
  C   C1321     1.0  0.21981  0.76255  0.89340  1.0000
  H   H1313     1.0  0.23416  0.68866  0.87588  1.0000
  H   H1314     1.0  0.14164  0.76214  0.79146  1.0000
  C   C1322     1.0  0.22229  0.91616  0.79812  1.0000
  Fe  Fe215     1.0  0.22607  0.79664  0.87512  1.0000
  S   S429      1.0  0.21021  0.80046  0.88557  1.0000
  N   N107      1.0  0.18946  0.72691  0.91413  1.0000
  C   C1323     1.0  0.19329  0.71931  0.90826  1.0000
  S   S430      1.0  0.16365  0.75319  0.78477  1.0000
  H   H1315     1.0  0.22409  0.69918  0.85176  1.0000
  H   H1316     1.0  0.12758  0.70400  0.81166  1.0000
  H   H1317     1.0  0.20558  0.90646  0.79995  1.0000
  H   H1318     1.0  0.21806  0.88095  0.77663  1.0000
  H   H1319     1.0  0.09187  0.71837  0.79044  1.0000
  S   S431      1.0  0.23784  0.88267  0.81225  1.0000
  C   C1324     1.0  0.23030  0.66283  0.86030  1.0000
  H   H1320     1.0  0.19585  0.80777  0.90331  1.0000
  C   C1325     1.0  0.18012  0.73510  0.91210  1.0000
  C   C1326     1.0  0.10677  0.71726  0.80020  1.0000
  H   H1321     1.0  0.23485  0.80499  0.83588  1.0000
  C   C1327     1.0  0.23378  0.76932  0.84668  1.0000
  H   H1322     1.0  0.23289  0.91358  0.78350  1.0000
  H   H1323     1.0  0.18203  0.76733  0.79737  1.0000
  H   H1324     1.0  0.18934  0.72716  0.82764  1.0000
  H   H1325     1.0  0.22617  0.78716  0.89673  1.0000
  H   H1326     1.0  0.17991  0.73718  0.90359  1.0000
  C   C1328     1.0  0.20264  0.80239  0.90599  1.0000
  H   H1327     1.0  0.17001  0.76292  0.79920  1.0000
  C   C1329     1.0  0.20523  0.96851  0.78286  1.0000
  H   H1328     1.0  0.23862  0.66288  0.85999  1.0000
  C   C1330     1.0  0.23972  0.81367  0.80933  1.0000
  C   C1331     1.0  0.20605  0.97843  0.78347  1.0000
  C   C1332     1.0  0.21543  0.88663  0.78166  1.0000
  C   C1333     1.0  0.20660  0.68408  0.86656  1.0000
  N   N108      1.0  0.21001  0.77148  0.87641  1.0000
  N   N109      1.0  0.10618  0.70973  0.79543  1.0000
  H   H1329     1.0  0.19752  0.77293  0.86902  1.0000
  C   C1334     1.0  0.20211  0.71135  0.91017  1.0000
  S   S432      1.0  0.22452  0.85794  0.78475  1.0000
  H   H1330     1.0  0.22347  0.75901  0.90014  1.0000
  C   C1335     1.0  0.21972  0.79078  0.90227  1.0000
  C   C1336     1.0  0.22009  0.78843  0.91296  1.0000
  N   N110      1.0  0.12600  0.74313  0.83789  1.0000
  C   C1337     1.0  0.11859  0.74406  0.83226  1.0000
  C   C1338     1.0  0.12868  0.73402  0.84499  1.0000
  C   C1339     1.0  0.11382  0.73563  0.83353  1.0000
  C   C1340     1.0  0.12420  0.72537  0.84633  1.0000
  C   C1341     1.0  0.11671  0.72621  0.84056  1.0000
  C   C1342     1.0  0.13088  0.75202  0.83664  1.0000
  H   H1331     1.0  0.11641  0.75127  0.82660  1.0000
  H   H1332     1.0  0.13458  0.73327  0.84944  1.0000
  H   H1333     1.0  0.10804  0.73637  0.82894  1.0000
  H   H1334     1.0  0.12667  0.71805  0.85170  1.0000
  H   H1335     1.0  0.11323  0.71955  0.84146  1.0000
  H   H1336     1.0  0.12723  0.75601  0.84336  1.0000
  H   H1337     1.0  0.13949  0.74919  0.83637  1.0000
  H   H1338     1.0  0.12997  0.75788  0.82918  1.0000
  N   N111      1.0  0.18202  0.75130  0.80573  1.0000
  C   C1343     1.0  0.18721  0.75212  0.81283  1.0000
  C   C1344     1.0  0.17951  0.74195  0.80627  1.0000
  C   C1345     1.0  0.19014  0.74339  0.82066  1.0000
  C   C1346     1.0  0.18217  0.73310  0.81409  1.0000
  C   C1347     1.0  0.18753  0.73385  0.82132  1.0000
  C   C1348     1.0  0.17877  0.76049  0.79765  1.0000
  H   H1339     1.0  0.18900  0.75957  0.81259  1.0000
  H   H1340     1.0  0.17532  0.74134  0.80068  1.0000
  H   H1341     1.0  0.19396  0.74415  0.82649  1.0000
  H   H1342     1.0  0.17988  0.72579  0.81470  1.0000
  C   C1349     1.0  0.22470  0.90186  0.81327  1.0000
  C   C1350     1.0  0.23553  0.90012  0.79609  1.0000
  C   C1351     1.0  0.23844  0.80661  0.81909  1.0000
  H   H1343     1.0  0.20658  0.71879  0.93051  1.0000
  C   C1352     1.0  0.23446  0.82117  0.82772  1.0000
  H   H1344     1.0  0.23548  0.68145  0.85117  1.0000
  C   C1353     1.0  0.15542  0.76478  0.77942  1.0000
  S   S433      1.0  0.22814  0.80458  0.85811  1.0000
  C   C1354     1.0  0.13837  0.77686  0.78056  1.0000
  H   H1345     1.0  0.21023  0.66716  0.87052  1.0000
  C   C1355     1.0  0.23400  0.60994  0.78538  1.0000
  H   H1346     1.0  0.23698  0.58672  0.80009  1.0000
  C   C1356     1.0  0.09908  0.71242  0.78810  1.0000
  H   H1347     1.0  0.12607  0.69024  0.80337  1.0000
  C   C1357     1.0  0.14415  0.70463  0.78754  1.0000
  H   H1348     1.0  0.23459  0.79502  0.93154  1.0000
  S   S434      1.0  0.23452  0.66601  0.88276  1.0000
  C   C1358     1.0  0.23585  0.82800  0.81783  1.0000
  H   H1349     1.0  0.21551  0.87474  0.79593  1.0000
  C   C1359     1.0  0.21319  0.97921  0.78892  1.0000
  C   C1360     1.0  0.21948  0.97001  0.79363  1.0000
  H   H1350     1.0  0.23958  0.80417  0.89811  1.0000
  H   H1351     1.0  0.20502  0.62323  0.78163  1.0000
  C   C1361     1.0  0.23577  0.81042  0.82830  1.0000
  C   C1362     1.0  0.13931  0.69400  0.77828  1.0000
  N   N112      1.0  0.21856  0.96031  0.79308  1.0000
  H   H1352     1.0  0.23396  0.77115  0.97100  1.0000
  H   H1353     1.0  0.22637  0.95136  0.80549  1.0000
  C   C1363     1.0  0.23973  0.83153  0.79853  1.0000
  H   H1354     1.0  0.23348  0.94983  0.79235  1.0000
  H   H1355     1.0  0.23267  0.82416  0.83487  1.0000
  C   C1364     1.0  0.22802  0.81008  0.91568  1.0000
  S   S435      1.0  0.23287  0.77083  0.94891  1.0000
  H   H1356     1.0  0.22990  0.66028  0.85326  1.0000
  H   H1357     1.0  0.20003  0.96786  0.77826  1.0000
  H   H1358     1.0  0.10321  0.71581  0.78006  1.0000
  C   C1365     1.0  0.23887  0.79363  0.92380  1.0000
  H   H1359     1.0  0.23470  0.61106  0.79279  1.0000
  H   H1360     1.0  0.21104  0.95181  0.78703  1.0000
  N   N113      1.0  0.23631  0.80052  0.91489  1.0000
  C   C1366     1.0  0.21159  0.95948  0.78773  1.0000
  Fe  Fe216     1.0  0.26835  0.29177  0.12302  1.0000
  S   S436      1.0  0.27711  0.30483  0.11517  1.0000
  S   S437      1.0  0.27476  0.27632  0.13288  1.0000
  H   H1361     1.0  0.25617  0.14939  0.11300  1.0000
  S   S438      1.0  0.25752  0.31577  0.10284  1.0000
  H   H1362     1.0  0.31458  0.26184  0.98607  1.0000
  Fe  Fe217     1.0  0.27277  0.30387  0.10050  1.0000
  S   S439      1.0  0.28487  0.30271  0.08534  1.0000
  Fe  Fe218     1.0  0.26111  0.31552  0.11835  1.0000
  S   S440      1.0  0.25654  0.33101  0.12386  1.0000
  S   S441      1.0  0.26531  0.29004  0.10816  1.0000
  S   S442      1.0  0.25263  0.30240  0.12738  1.0000
  Fe  Fe219     1.0  0.34094  0.22636  0.11556  1.0000
  S   S443      1.0  0.32422  0.23359  0.12222  1.0000
  S   S444      1.0  0.35212  0.21778  0.12659  1.0000
  Fe  Fe220     1.0  0.33731  0.23333  0.09305  1.0000
  S   S445      1.0  0.32050  0.24145  0.09783  1.0000
  S   S446      1.0  0.34590  0.23259  0.07641  1.0000
  Fe  Fe221     1.0  0.32663  0.24719  0.10868  1.0000
  S   S447      1.0  0.32255  0.26379  0.11083  1.0000
  Fe  Fe222     1.0  0.31967  0.22700  0.11081  1.0000
  S   S448      1.0  0.30509  0.22016  0.11537  1.0000
  S   S449      1.0  0.34362  0.24045  0.10272  1.0000
  S   S450      1.0  0.33623  0.21840  0.10535  1.0000
  Fe  Fe223     1.0  0.26750  0.18973  0.09073  1.0000
  S   S451      1.0  0.28252  0.18525  0.07935  1.0000
  S   S452      1.0  0.25628  0.20458  0.08548  1.0000
  Fe  Fe224     1.0  0.27223  0.16994  0.10763  1.0000
  S   S453      1.0  0.28765  0.16388  0.09749  1.0000
  S   S454      1.0  0.26565  0.16153  0.12404  1.0000
  Fe  Fe225     1.0  0.28976  0.18061  0.09357  1.0000
  S   S455      1.0  0.30530  0.18463  0.09252  1.0000
  Fe  Fe226     1.0  0.27869  0.16924  0.08443  1.0000
  S   S456      1.0  0.27911  0.15872  0.07389  1.0000
  S   S457      1.0  0.27488  0.18637  0.10463  1.0000
  S   S458      1.0  0.26308  0.17404  0.09488  1.0000
  C   C1367     1.0  0.25728  0.23781  0.11984  1.0000
  S   S459      1.0  0.25159  0.17617  0.03881  1.0000
  Fe  Fe227     1.0  0.28492  0.26733  0.04718  1.0000
  S   S460      1.0  0.29533  0.25210  0.05335  1.0000
  S   S461      1.0  0.27332  0.27632  0.05897  1.0000
  Fe  Fe228     1.0  0.29074  0.26335  0.02444  1.0000
  S   S462      1.0  0.30164  0.24788  0.02905  1.0000
  Fe  Fe229     1.0  0.28899  0.24527  0.04357  1.0000
  S   S463      1.0  0.28370  0.23000  0.05019  1.0000
  Fe  Fe230     1.0  0.30694  0.25627  0.03838  1.0000
  S   S464      1.0  0.32443  0.25338  0.03703  1.0000
  S   S465      1.0  0.27763  0.26010  0.03842  1.0000
  S   S466      1.0  0.29704  0.27215  0.03272  1.0000
  S   S467      1.0  0.25034  0.20187  0.01602  1.0000
  Fe  Fe231     1.0  0.24921  0.21506  0.02369  1.0000
  S   S468      1.0  0.26107  0.22529  0.01702  1.0000
  H   H1363     1.0  0.31023  0.28282  0.11716  1.0000
  Fe  Fe232     1.0  0.28330  0.10904  0.16129  1.0000
  H   H1364     1.0  0.28028  0.17607  0.12701  1.0000
  S   S469      1.0  0.29057  0.11716  0.14494  1.0000
  N   N114      1.0  0.34113  0.24345  0.14087  1.0000
  C   C1368     1.0  0.26970  0.22265  0.10871  1.0000
  H   H1365     1.0  0.25890  0.21024  0.10607  1.0000
  H   H1366     1.0  0.30619  0.28153  0.09761  1.0000
  H   H1367     1.0  0.43455  0.22347  0.16429  1.0000
  N   N115      1.0  0.25893  0.22427  0.11062  1.0000
  Fe  Fe233     1.0  0.41326  0.23537  0.15454  1.0000
  S   S470      1.0  0.41090  0.22360  0.16982  1.0000
  S   S471      1.0  0.42754  0.24282  0.14715  1.0000
  Fe  Fe234     1.0  0.39292  0.23361  0.14890  1.0000
  S   S472      1.0  0.38885  0.22190  0.16394  1.0000
  S   S473      1.0  0.38336  0.24041  0.13605  1.0000
  N   N116      1.0  0.31146  0.27353  0.99515  1.0000
  C   C1369     1.0  0.25610  0.23521  0.99315  1.0000
  Fe  Fe235     1.0  0.40613  0.21442  0.16092  1.0000
  S   S474      1.0  0.41290  0.19719  0.16131  1.0000
  S   S475      1.0  0.39655  0.24464  0.15675  1.0000
  S   S476      1.0  0.40993  0.22540  0.14531  1.0000
  H   H1368     1.0  0.25012  0.23554  0.00036  1.0000
  H   H1369     1.0  0.28741  0.25668  0.12795  1.0000
  Fe  Fe236     1.0  0.25036  0.30184  0.11169  1.0000
  H   H1370     1.0  0.25647  0.39914  0.15512  1.0000
  C   C1370     1.0  0.29615  0.40530  0.16890  1.0000
  C   C1371     1.0  0.24293  0.19063  0.07778  1.0000
  H   H1371     1.0  0.27568  0.32540  0.08861  1.0000
  S   S477      1.0  0.28725  0.27043  0.00798  1.0000
  N   N117      1.0  0.25120  0.23908  0.06517  1.0000
  C   C1372     1.0  0.28789  0.26501  0.97943  1.0000
  H   H1372     1.0  0.33695  0.26606  0.12260  1.0000
  H   H1373     1.0  0.31551  0.26321  0.07377  1.0000
  Fe  Fe237     1.0  0.27648  0.36143  0.15550  1.0000
  C   C1373     1.0  0.26478  0.23974  0.99154  1.0000
  S   S478      1.0  0.28263  0.35121  0.14321  1.0000
  Fe  Fe238     1.0  0.28187  0.37882  0.16306  1.0000
  C   C1374     1.0  0.31811  0.26806  0.01107  1.0000
  S   S479      1.0  0.29219  0.39049  0.16071  1.0000
  S   S480      1.0  0.26383  0.35827  0.17008  1.0000
  C   C1375     1.0  0.31564  0.26369  0.99302  1.0000
  H   H1374     1.0  0.26114  0.35076  0.10999  1.0000
  S   S481      1.0  0.28851  0.36147  0.16437  1.0000
  S   S482      1.0  0.27115  0.37918  0.15264  1.0000
  H   H1375     1.0  0.30613  0.25178  0.11896  1.0000
  C   C1376     1.0  0.28839  0.32409  0.09607  1.0000
  H   H1376     1.0  0.29956  0.32468  0.10464  1.0000
  H   H1377     1.0  0.29331  0.13762  0.15110  1.0000
  H   H1378     1.0  0.42936  0.20087  0.14337  1.0000
  C   C1377     1.0  0.29766  0.24913  0.98882  1.0000
  C   C1378     1.0  0.42898  0.27392  0.16160  1.0000
  C   C1379     1.0  0.28953  0.14595  0.15162  1.0000
  H   H1379     1.0  0.24509  0.22589  0.06530  1.0000
  H   H1380     1.0  0.27670  0.16374  0.14412  1.0000
  Fe  Fe239     1.0  0.25940  0.37594  0.16789  1.0000
  C   C1380     1.0  0.24440  0.20491  0.09476  1.0000
  C   C1381     1.0  0.27855  0.32872  0.09355  1.0000
  C   C1382     1.0  0.25673  0.25533  0.06251  1.0000
  C   C1383     1.0  0.27888  0.13603  0.09996  1.0000
  C   C1384     1.0  0.27541  0.11659  0.12570  1.0000
  H   H1381     1.0  0.30390  0.40399  0.16382  1.0000
  C   C1385     1.0  0.43536  0.20847  0.15206  1.0000
  H   H1382     1.0  0.30740  0.37135  0.17200  1.0000
  C   C1386     1.0  0.30587  0.28185  0.98780  1.0000
  H   H1383     1.0  0.24803  0.17084  0.07521  1.0000
  C   C1387     1.0  0.44495  0.22158  0.14195  1.0000
  H   H1384     1.0  0.30692  0.14389  0.13651  1.0000
  H   H1385     1.0  0.31461  0.38157  0.16603  1.0000
  C   C1388     1.0  0.26825  0.23609  0.11811  1.0000
  C   C1389     1.0  0.44158  0.28026  0.17093  1.0000
  C   C1390     1.0  0.27236  0.33749  0.09759  1.0000
  C   C1391     1.0  0.33662  0.25098  0.13333  1.0000
  N   N118      1.0  0.29162  0.15311  0.14132  1.0000
  C   C1392     1.0  0.24325  0.25036  0.07756  1.0000
  C   C1393     1.0  0.28927  0.26387  0.99753  1.0000
  C   C1394     1.0  0.45452  0.25074  0.14656  1.0000
  H   H1386     1.0  0.33002  0.24990  0.13084  1.0000
  C   C1395     1.0  0.28428  0.16210  0.13879  1.0000
  H   H1387     1.0  0.41668  0.27738  0.17484  1.0000
  H   H1388     1.0  0.26865  0.42718  0.16287  1.0000
  H   H1389     1.0  0.24465  0.26265  0.12572  1.0000
  H   H1390     1.0  0.36010  0.25504  0.14201  1.0000
  H   H1391     1.0  0.44905  0.22765  0.14151  1.0000
  H   H1392     1.0  0.29313  0.31714  0.09315  1.0000
  H   H1393     1.0  0.44580  0.24690  0.17311  1.0000
  C   C1396     1.0  0.43388  0.20662  0.14288  1.0000
  C   C1397     1.0  0.34896  0.26169  0.13180  1.0000
  C   C1398     1.0  0.29911  0.26537  0.08185  1.0000
  H   H1394     1.0  0.28807  0.27877  0.10123  1.0000
  C   C1399     1.0  0.31209  0.27245  0.08553  1.0000
  C   C1400     1.0  0.35336  0.25407  0.13964  1.0000
  H   H1395     1.0  0.44281  0.27116  0.14936  1.0000
  C   C1401     1.0  0.43752  0.24567  0.15161  1.0000
  C   C1402     1.0  0.44608  0.24864  0.14386  1.0000
  H   H1396     1.0  0.25079  0.19200  0.10634  1.0000
  C   C1403     1.0  0.45452  0.25017  0.15707  1.0000
  C   C1404     1.0  0.44592  0.24728  0.16497  1.0000
  C   C1405     1.0  0.43742  0.24497  0.16224  1.0000
  H   H1397     1.0  0.44623  0.24929  0.13565  1.0000
  C   C1406     1.0  0.44347  0.22007  0.13263  1.0000
  H   H1398     1.0  0.28439  0.13682  0.09239  1.0000
  H   H1399     1.0  0.24860  0.21671  0.99258  1.0000
  H   H1400     1.0  0.46105  0.25302  0.14041  1.0000
  S   S483      1.0  0.24534  0.20605  0.04034  1.0000
  H   H1401     1.0  0.35213  0.26873  0.12815  1.0000
  C   C1407     1.0  0.34050  0.26018  0.12866  1.0000
  H   H1402     1.0  0.29713  0.26093  0.07730  1.0000
  C   C1408     1.0  0.25913  0.40530  0.15684  1.0000
  N   N119      1.0  0.43116  0.28057  0.17557  1.0000
  H   H1403     1.0  0.27490  0.27494  0.09413  1.0000
  H   H1404     1.0  0.29818  0.28573  0.99216  1.0000
  C   C1409     1.0  0.41972  0.17810  0.17327  1.0000
  H   H1405     1.0  0.32980  0.23554  0.15202  1.0000
  C   C1410     1.0  0.29199  0.32832  0.10249  1.0000
  C   C1411     1.0  0.24953  0.25753  0.07163  1.0000
  C   C1412     1.0  0.24650  0.22493  0.98808  1.0000
  C   C1413     1.0  0.34928  0.24497  0.14416  1.0000
  H   H1406     1.0  0.44306  0.21064  0.16734  1.0000
  S   S484      1.0  0.29232  0.09376  0.16929  1.0000
  C   C1414     1.0  0.27814  0.22804  0.04073  1.0000
  C   C1415     1.0  0.27338  0.21945  0.04284  1.0000
  C   C1416     1.0  0.26825  0.21842  0.03550  1.0000
  C   C1417     1.0  0.26794  0.22595  0.02607  1.0000
  C   C1418     1.0  0.27306  0.23429  0.02382  1.0000
  C   C1419     1.0  0.27813  0.23535  0.03115  1.0000
  H   H1407     1.0  0.27352  0.21368  0.05017  1.0000
  H   H1408     1.0  0.26467  0.21174  0.03708  1.0000
  H   H1409     1.0  0.27294  0.24006  0.01649  1.0000
  H   H1410     1.0  0.28193  0.24190  0.02935  1.0000
  C   C1420     1.0  0.28570  0.33723  0.10622  1.0000
  C   C1421     1.0  0.29516  0.25356  0.99779  1.0000
  H   H1411     1.0  0.32404  0.24786  0.99843  1.0000
  H   H1412     1.0  0.29801  0.24908  0.00481  1.0000
  C   C1422     1.0  0.44591  0.27694  0.16141  1.0000
  N   N120      1.0  0.27362  0.12618  0.11752  1.0000
  H   H1413     1.0  0.27946  0.24247  0.98118  1.0000
  C   C1423     1.0  0.32227  0.25797  0.00905  1.0000
  H   H1414     1.0  0.26550  0.24347  0.99745  1.0000
  N   N121      1.0  0.29152  0.26975  0.08942  1.0000
  C   C1424     1.0  0.27265  0.14916  0.12970  1.0000
  C   C1425     1.0  0.28261  0.14458  0.12451  1.0000
  C   C1426     1.0  0.28804  0.13477  0.12928  1.0000
  C   C1427     1.0  0.28353  0.12945  0.13925  1.0000
  C   C1428     1.0  0.27353  0.13397  0.14442  1.0000
  C   C1429     1.0  0.26813  0.14383  0.13967  1.0000
  H   H1415     1.0  0.28617  0.14860  0.11686  1.0000
  H   H1416     1.0  0.29577  0.13128  0.12523  1.0000
  H   H1417     1.0  0.26998  0.12990  0.15211  1.0000
  H   H1418     1.0  0.26041  0.14732  0.14374  1.0000
  H   H1419     1.0  0.31080  0.15615  0.11925  1.0000
  C   C1430     1.0  0.30429  0.27693  0.09318  1.0000
  H   H1420     1.0  0.42404  0.27122  0.15814  1.0000
  C   C1431     1.0  0.26597  0.42109  0.16105  1.0000
  N   N122      1.0  0.44090  0.21582  0.15150  1.0000
  C   C1432     1.0  0.27187  0.16416  0.06382  1.0000
  C   C1433     1.0  0.26972  0.15728  0.05893  1.0000
  C   C1434     1.0  0.26371  0.16116  0.05114  1.0000
  C   C1435     1.0  0.25985  0.17200  0.04803  1.0000
  C   C1436     1.0  0.26215  0.17899  0.05276  1.0000
  C   C1437     1.0  0.26809  0.17506  0.06072  1.0000
  H   H1421     1.0  0.27265  0.14887  0.06122  1.0000
  H   H1422     1.0  0.26200  0.15571  0.04753  1.0000
  H   H1423     1.0  0.25925  0.18737  0.05039  1.0000
  H   H1424     1.0  0.26982  0.18046  0.06437  1.0000
  C   C1438     1.0  0.36062  0.22425  0.12926  1.0000
  C   C1439     1.0  0.36257  0.23392  0.12299  1.0000
  C   C1440     1.0  0.36978  0.23862  0.12501  1.0000
  C   C1441     1.0  0.37492  0.23382  0.13345  1.0000
  C   C1442     1.0  0.37295  0.22416  0.13973  1.0000
  C   C1443     1.0  0.36585  0.21938  0.13761  1.0000
  H   H1425     1.0  0.35861  0.23775  0.11654  1.0000
  H   H1426     1.0  0.37125  0.24611  0.12014  1.0000
  H   H1427     1.0  0.37687  0.22039  0.14624  1.0000
  H   H1428     1.0  0.36442  0.21186  0.14247  1.0000
  C   C1444     1.0  0.30541  0.21009  0.10916  1.0000
  C   C1445     1.0  0.29669  0.20535  0.11190  1.0000
  C   C1446     1.0  0.29658  0.19753  0.10686  1.0000
  C   C1447     1.0  0.30526  0.19428  0.09916  1.0000
  C   C1448     1.0  0.31411  0.19880  0.09664  1.0000
  C   C1449     1.0  0.31413  0.20680  0.10150  1.0000
  H   H1429     1.0  0.29004  0.20767  0.11801  1.0000
  H   H1430     1.0  0.28987  0.19392  0.10912  1.0000
  H   H1431     1.0  0.32095  0.19615  0.09086  1.0000
  H   H1432     1.0  0.32090  0.21038  0.09937  1.0000
  C   C1450     1.0  0.33942  0.23880  0.06587  1.0000
  C   C1451     1.0  0.34548  0.23939  0.05561  1.0000
  C   C1452     1.0  0.34075  0.24401  0.04693  1.0000
  C   C1453     1.0  0.32986  0.24799  0.04836  1.0000
  C   C1454     1.0  0.32370  0.24743  0.05862  1.0000
  C   C1455     1.0  0.32849  0.24286  0.06739  1.0000
  H   H1433     1.0  0.35391  0.23627  0.05436  1.0000
  H   H1434     1.0  0.34557  0.24443  0.03905  1.0000
  H   H1435     1.0  0.31528  0.25051  0.05979  1.0000
  H   H1436     1.0  0.32372  0.24231  0.07527  1.0000
  C   C1456     1.0  0.26350  0.33538  0.13076  1.0000
  C   C1457     1.0  0.25852  0.34430  0.13514  1.0000
  C   C1458     1.0  0.26413  0.34889  0.13951  1.0000
  C   C1459     1.0  0.27487  0.34475  0.13932  1.0000
  C   C1460     1.0  0.27982  0.33573  0.13508  1.0000
  C   C1461     1.0  0.27412  0.33096  0.13098  1.0000
  H   H1437     1.0  0.27054  0.35825  0.10103  1.0000
  H   H1438     1.0  0.26025  0.35586  0.14268  1.0000
  H   H1439     1.0  0.28811  0.33246  0.13493  1.0000
  H   H1440     1.0  0.27803  0.32407  0.12768  1.0000
  H   H1441     1.0  0.28750  0.12088  0.10658  1.0000
  C   C1462     1.0  0.30950  0.26666  0.07978  1.0000
  H   H1442     1.0  0.34286  0.22731  0.14910  1.0000
  C   C1463     1.0  0.26305  0.22943  0.97703  1.0000
  C   C1464     1.0  0.28170  0.29578  0.07757  1.0000
  C   C1465     1.0  0.27139  0.29443  0.07927  1.0000
  C   C1466     1.0  0.26897  0.28858  0.07338  1.0000
  C   C1467     1.0  0.27682  0.28397  0.06576  1.0000
  C   C1468     1.0  0.28715  0.28534  0.06398  1.0000
  C   C1469     1.0  0.28957  0.29131  0.06983  1.0000
  H   H1443     1.0  0.26522  0.29797  0.08507  1.0000
  H   H1444     1.0  0.26094  0.28762  0.07476  1.0000
  H   H1445     1.0  0.29326  0.28185  0.05809  1.0000
  H   H1446     1.0  0.29756  0.29234  0.06846  1.0000
  C   C1470     1.0  0.28819  0.27258  0.12739  1.0000
  C   C1471     1.0  0.29464  0.27994  0.12433  1.0000
  C   C1472     1.0  0.30527  0.27711  0.11949  1.0000
  C   C1473     1.0  0.30943  0.26697  0.11751  1.0000
  C   C1474     1.0  0.30300  0.25959  0.12057  1.0000
  C   C1475     1.0  0.29240  0.26236  0.12562  1.0000
  H   H1447     1.0  0.29146  0.28776  0.12588  1.0000
  C   C1476     1.0  0.25399  0.21827  0.10642  1.0000
  H   H1448     1.0  0.24881  0.26481  0.07404  1.0000
  H   H1449     1.0  0.28853  0.34046  0.11124  1.0000
  C   C1477     1.0  0.30334  0.15788  0.12472  1.0000
  H   H1450     1.0  0.27995  0.26099  0.09830  1.0000
  C   C1478     1.0  0.30109  0.15100  0.13448  1.0000
  C   C1479     1.0  0.26962  0.35120  0.10744  1.0000
  H   H1451     1.0  0.27189  0.24063  0.12112  1.0000
  H   H1452     1.0  0.25915  0.22336  0.06435  1.0000
  C   C1480     1.0  0.26896  0.40768  0.15156  1.0000
  H   H1453     1.0  0.32634  0.25189  0.01460  1.0000
  C   C1481     1.0  0.31262  0.27577  0.00403  1.0000
  C   C1482     1.0  0.32101  0.25573  0.99999  1.0000
  C   C1483     1.0  0.26294  0.14305  0.11145  1.0000
  C   C1484     1.0  0.25226  0.22927  0.06184  1.0000
  N   N123      1.0  0.25531  0.23018  0.98592  1.0000
  H   H1454     1.0  0.30913  0.28351  0.00581  1.0000
  Fe  Fe240     1.0  0.24502  0.19336  0.03270  1.0000
  C   C1485     1.0  0.25277  0.41080  0.16448  1.0000
  H   H1455     1.0  0.27398  0.40316  0.14582  1.0000
  C   C1486     1.0  0.31264  0.37572  0.17343  1.0000
  H   H1456     1.0  0.28307  0.22714  0.11105  1.0000
  H   H1457     1.0  0.26863  0.15100  0.09555  1.0000
  C   C1487     1.0  0.29411  0.25484  0.97956  1.0000
  H   H1458     1.0  0.28598  0.42107  0.15284  1.0000
  H   H1459     1.0  0.27880  0.26681  0.08472  1.0000
  H   H1460     1.0  0.26164  0.26087  0.05789  1.0000
  H   H1461     1.0  0.28095  0.27748  0.98805  1.0000
  C   C1488     1.0  0.25748  0.24600  0.05937  1.0000
  H   H1462     1.0  0.45422  0.27652  0.15784  1.0000
  N   N124      1.0  0.30668  0.21162  0.06069  1.0000
  C   C1489     1.0  0.31146  0.20902  0.06908  1.0000
  C   C1490     1.0  0.30956  0.21920  0.05207  1.0000
  C   C1491     1.0  0.31958  0.21381  0.06885  1.0000
  C   C1492     1.0  0.31761  0.22419  0.05160  1.0000
  C   C1493     1.0  0.32272  0.22136  0.06000  1.0000
  C   C1494     1.0  0.29810  0.20657  0.06124  1.0000
  H   H1463     1.0  0.30903  0.20316  0.07598  1.0000
  H   H1464     1.0  0.30562  0.22146  0.04551  1.0000
  H   H1465     1.0  0.32339  0.21171  0.07550  1.0000
  H   H1466     1.0  0.31985  0.23026  0.04480  1.0000
  H   H1467     1.0  0.32909  0.22503  0.05968  1.0000
  H   H1468     1.0  0.29065  0.21043  0.06596  1.0000
  H   H1469     1.0  0.29672  0.20727  0.05328  1.0000
  H   H1470     1.0  0.29993  0.19804  0.06493  1.0000
  Fe  Fe241     1.0  0.39392  0.23219  0.17147  1.0000
  H   H1471     1.0  0.26308  0.24436  0.05224  1.0000
  C   C1495     1.0  0.43952  0.27385  0.15669  1.0000
  C   C1496     1.0  0.27266  0.23909  0.98246  1.0000
  C   C1497     1.0  0.28626  0.16913  0.12910  1.0000
  C   C1498     1.0  0.33689  0.23390  0.14572  1.0000
  H   H1472     1.0  0.35289  0.23901  0.15011  1.0000
  C   C1499     1.0  0.44186  0.21802  0.16125  1.0000
  Fe  Fe242     1.0  0.27708  0.08816  0.17427  1.0000
  C   C1500     1.0  0.25618  0.41877  0.16661  1.0000
  H   H1473     1.0  0.28390  0.11408  0.12612  1.0000
  H   H1474     1.0  0.25230  0.24374  0.12415  1.0000
  C   C1501     1.0  0.28078  0.26797  0.09178  1.0000
  H   H1475     1.0  0.28094  0.14622  0.15460  1.0000
  C   C1502     1.0  0.28249  0.41802  0.14796  1.0000
  C   C1503     1.0  0.24426  0.24108  0.07425  1.0000
  H   H1476     1.0  0.30240  0.24123  0.98905  1.0000
  H   H1477     1.0  0.43079  0.24279  0.16829  1.0000
  H   H1478     1.0  0.24525  0.40879  0.16877  1.0000
  H   H1479     1.0  0.31900  0.26982  0.01815  1.0000
  H   H1480     1.0  0.26459  0.34088  0.09583  1.0000
  H   H1481     1.0  0.28828  0.41087  0.14589  1.0000
  H   H1482     1.0  0.28149  0.42401  0.14063  1.0000
  H   H1483     1.0  0.44640  0.22491  0.12511  1.0000
  N   N125      1.0  0.27229  0.41544  0.15377  1.0000
  S   S485      1.0  0.26851  0.10285  0.16492  1.0000
  H   H1484     1.0  0.24694  0.18664  0.98029  1.0000
  H   H1485     1.0  0.43651  0.21139  0.12597  1.0000
  H   H1486     1.0  0.29747  0.17236  0.11445  1.0000
  C   C1504     1.0  0.27452  0.22850  0.11247  1.0000
  C   C1505     1.0  0.28057  0.12708  0.10799  1.0000
  C   C1506     1.0  0.26999  0.14403  0.10172  1.0000
  H   H1487     1.0  0.32012  0.27344  0.08413  1.0000
  H   H1488     1.0  0.24169  0.19936  0.07522  1.0000
  H   H1489     1.0  0.42347  0.17582  0.16581  1.0000
  C   C1507     1.0  0.28556  0.26951  0.98834  1.0000
  C   C1508     1.0  0.25272  0.23183  0.11598  1.0000
  C   C1509     1.0  0.26483  0.13398  0.11928  1.0000
  C   C1510     1.0  0.29403  0.27536  0.09515  1.0000
  H   H1490     1.0  0.33470  0.23106  0.13975  1.0000
  H   H1491     1.0  0.31071  0.28782  0.98362  1.0000
  C   C1511     1.0  0.43790  0.21253  0.13312  1.0000
  N   N126      1.0  0.37520  0.21591  0.10667  1.0000
  C   C1512     1.0  0.37839  0.22524  0.10212  1.0000
  C   C1513     1.0  0.36833  0.21298  0.10269  1.0000
  C   C1514     1.0  0.37462  0.23194  0.09339  1.0000
  C   C1515     1.0  0.36450  0.21944  0.09390  1.0000
  C   C1516     1.0  0.36769  0.22897  0.08924  1.0000
  C   C1517     1.0  0.37960  0.20872  0.11548  1.0000
  H   H1492     1.0  0.38376  0.22761  0.10533  1.0000
  H   H1493     1.0  0.36564  0.20568  0.10641  1.0000
  H   H1494     1.0  0.37702  0.23941  0.08990  1.0000
  H   H1495     1.0  0.35899  0.21716  0.09078  1.0000
  H   H1496     1.0  0.36464  0.23410  0.08250  1.0000
  H   H1497     1.0  0.37351  0.20468  0.12123  1.0000
  H   H1498     1.0  0.38639  0.20271  0.11252  1.0000
  H   H1499     1.0  0.38226  0.21305  0.11991  1.0000
  H   H1500     1.0  0.25161  0.18760  0.07660  1.0000
  S   S486      1.0  0.27862  0.07087  0.17474  1.0000
  H   H1501     1.0  0.30554  0.06343  0.16764  1.0000
  S   S487      1.0  0.46531  0.25373  0.15944  1.0000
  N   N127      1.0  0.27598  0.34164  0.10382  1.0000
  C   C1518     1.0  0.28884  0.39945  0.16918  1.0000
  H   H1502     1.0  0.27290  0.11012  0.12403  1.0000
  C   C1519     1.0  0.29585  0.16700  0.12203  1.0000
  C   C1520     1.0  0.41388  0.18837  0.17344  1.0000
  H   H1503     1.0  0.25340  0.23071  0.05313  1.0000
  C   C1521     1.0  0.42489  0.27734  0.17109  1.0000
  H   H1504     1.0  0.25937  0.13336  0.12687  1.0000
  H   H1505     1.0  0.43188  0.20409  0.15964  1.0000
  H   H1506     1.0  0.27195  0.35213  0.11441  1.0000
  H   H1507     1.0  0.25031  0.34780  0.13498  1.0000
  C   C1522     1.0  0.24180  0.17575  0.07127  1.0000
  H   H1508     1.0  0.27101  0.11789  0.13367  1.0000
  C   C1523     1.0  0.24395  0.19798  0.10461  1.0000
  H   H1509     1.0  0.25658  0.07762  0.17252  1.0000
  H   H1510     1.0  0.44863  0.22182  0.15989  1.0000
  C   C1524     1.0  0.24154  0.19420  0.98034  1.0000
  H   H1511     1.0  0.24615  0.21722  0.11146  1.0000
  H   H1512     1.0  0.24448  0.22472  0.98068  1.0000
  H   H1513     1.0  0.29261  0.14813  0.15742  1.0000
  H   H1514     1.0  0.27464  0.21677  0.10431  1.0000
  H   H1515     1.0  0.24689  0.28108  0.12051  1.0000
  Fe  Fe243     1.0  0.46761  0.25519  0.17496  1.0000
  H   H1516     1.0  0.24418  0.23327  0.11733  1.0000
  H   H1517     1.0  0.44663  0.28254  0.17462  1.0000
  H   H1518     1.0  0.31473  0.07624  0.16981  1.0000
  H   H1519     1.0  0.25290  0.22242  0.09834  1.0000
  H   H1520     1.0  0.25133  0.42303  0.17261  1.0000
  H   H1521     1.0  0.30402  0.27863  0.98189  1.0000
  S   S488      1.0  0.24342  0.38649  0.17147  1.0000
  C   C1525     1.0  0.30547  0.06426  0.17544  1.0000
  H   H1522     1.0  0.29909  0.41759  0.17459  1.0000
  S   S489      1.0  0.27922  0.11631  0.17543  1.0000
  C   C1526     1.0  0.29345  0.41301  0.17501  1.0000
  H   H1523     1.0  0.24091  0.16332  0.06443  1.0000
  H   H1524     1.0  0.24146  0.19388  0.99652  1.0000
  H   H1525     1.0  0.31993  0.37000  0.17520  1.0000
  H   H1526     1.0  0.40426  0.24383  0.17617  1.0000
  H   H1527     1.0  0.27307  0.39696  0.17595  1.0000
  C   C1527     1.0  0.27885  0.40125  0.17576  1.0000
  C   C1528     1.0  0.24133  0.27883  0.11749  1.0000
  Fe  Fe244     1.0  0.32428  0.12088  0.24633  1.0000
  S   S490      1.0  0.34120  0.11361  0.24079  1.0000
  S   S491      1.0  0.31879  0.12342  0.26280  1.0000
  Fe  Fe245     1.0  0.31851  0.12315  0.22553  1.0000
  S   S492      1.0  0.33512  0.11642  0.21801  1.0000
  S   S493      1.0  0.30456  0.12848  0.21772  1.0000
  Fe  Fe246     1.0  0.33457  0.10444  0.23333  1.0000
  S   S494      1.0  0.34106  0.08704  0.23446  1.0000
  Fe  Fe247     1.0  0.34011  0.12632  0.22621  1.0000
  S   S495      1.0  0.35188  0.13704  0.21852  1.0000
  S   S496      1.0  0.31772  0.11058  0.24032  1.0000
  S   S497      1.0  0.32342  0.13418  0.23230  1.0000
  H   H1528     1.0  0.35267  0.30074  0.22059  1.0000
  C   C1529     1.0  0.25110  0.02605  0.25575  1.0000
  H   H1529     1.0  0.30387  0.06390  0.27190  1.0000
  Fe  Fe248     1.0  0.26322  0.12627  0.28751  1.0000
  S   S498      1.0  0.27263  0.11596  0.29939  1.0000
  S   S499      1.0  0.26924  0.13727  0.27274  1.0000
  Fe  Fe249     1.0  0.26589  0.10319  0.29742  1.0000
  S   S500      1.0  0.27648  0.08762  0.29467  1.0000
  Fe  Fe250     1.0  0.25764  0.11952  0.31143  1.0000
  S   S501      1.0  0.25387  0.12501  0.32681  1.0000
  S   S502      1.0  0.25752  0.11333  0.28476  1.0000
  Fe  Fe251     1.0  0.24288  0.37535  0.28889  1.0000
  C   C1530     1.0  0.26035  0.02193  0.23890  1.0000
  S   S503      1.0  0.27231  0.09389  0.18934  1.0000
  C   C1531     1.0  0.29774  0.39196  0.19828  1.0000
  C   C1532     1.0  0.26265  0.40408  0.29097  1.0000
  Fe  Fe252     1.0  0.30111  0.04735  0.25300  1.0000
  S   S504      1.0  0.28825  0.05961  0.24650  1.0000
  S   S505      1.0  0.31571  0.05069  0.25551  1.0000
  Fe  Fe253     1.0  0.28944  0.02928  0.25747  1.0000
  S   S506      1.0  0.27540  0.04030  0.25167  1.0000
  Fe  Fe254     1.0  0.28742  0.04731  0.23858  1.0000
  S   S507      1.0  0.28444  0.05180  0.22222  1.0000
  Fe  Fe255     1.0  0.27738  0.05167  0.26015  1.0000
  S   S508      1.0  0.26366  0.06280  0.26794  1.0000
  S   S509      1.0  0.30145  0.03561  0.24371  1.0000
  S   S510      1.0  0.29029  0.04009  0.26733  1.0000
  Fe  Fe256     1.0  0.26131  0.01589  0.21095  1.0000
  S   S511      1.0  0.25446  0.01410  0.19825  1.0000
  S   S512      1.0  0.27828  0.01114  0.21221  1.0000
  S   S513      1.0  0.40050  0.29128  0.21008  1.0000
  H   H1530     1.0  0.30385  0.13175  0.24918  1.0000
  Fe  Fe257     1.0  0.38317  0.29540  0.21709  1.0000
  S   S514      1.0  0.38492  0.28798  0.23379  1.0000
  S   S515      1.0  0.37373  0.31139  0.21100  1.0000
  Fe  Fe258     1.0  0.39702  0.27656  0.20846  1.0000
  S   S516      1.0  0.39972  0.26747  0.22423  1.0000
  Fe  Fe259     1.0  0.38260  0.27358  0.23012  1.0000
  S   S517      1.0  0.37371  0.26190  0.24163  1.0000
  Fe  Fe260     1.0  0.40195  0.28252  0.22644  1.0000
  S   S518      1.0  0.37950  0.28134  0.21400  1.0000
  Fe  Fe261     1.0  0.39002  0.16069  0.23703  1.0000
  S   S519      1.0  0.38947  0.17303  0.22206  1.0000
  S   S520      1.0  0.37965  0.14855  0.24358  1.0000
  Fe  Fe262     1.0  0.40885  0.16710  0.24116  1.0000
  S   S521      1.0  0.40980  0.17959  0.22641  1.0000
  S   S522      1.0  0.41975  0.16403  0.25239  1.0000
  Fe  Fe263     1.0  0.39218  0.18349  0.23117  1.0000
  S   S523      1.0  0.38535  0.20062  0.23089  1.0000
  Fe  Fe264     1.0  0.40710  0.16793  0.21893  1.0000
  S   S524      1.0  0.39128  0.17164  0.24649  1.0000
  S   S525      1.0  0.40762  0.15487  0.23328  1.0000
  Fe  Fe265     1.0  0.39525  0.21975  0.28157  1.0000
  S   S526      1.0  0.39869  0.21239  0.29761  1.0000
  S   S527      1.0  0.40409  0.23176  0.27064  1.0000
  Fe  Fe266     1.0  0.37824  0.20783  0.28481  1.0000
  S   S528      1.0  0.38004  0.19948  0.30117  1.0000
  S   S529      1.0  0.36660  0.20366  0.27836  1.0000
  Fe  Fe267     1.0  0.38109  0.21516  0.30295  1.0000
  S   S530      1.0  0.37323  0.22129  0.31766  1.0000
  Fe  Fe268     1.0  0.39735  0.19745  0.29427  1.0000
  S   S531      1.0  0.40759  0.18162  0.29882  1.0000
  S   S532      1.0  0.37767  0.22382  0.28716  1.0000
  S   S533      1.0  0.39552  0.20454  0.27767  1.0000
  H   H1531     1.0  0.29565  0.05301  0.18342  1.0000
  S   S534      1.0  0.47380  0.20073  0.27252  1.0000
  Fe  Fe269     1.0  0.46506  0.19008  0.25258  1.0000
  S   S535      1.0  0.45347  0.19900  0.26410  1.0000
  S   S536      1.0  0.45847  0.18659  0.24034  1.0000
  Fe  Fe270     1.0  0.46483  0.20962  0.25990  1.0000
  S   S537      1.0  0.45909  0.22716  0.25612  1.0000
  Fe  Fe271     1.0  0.46338  0.18923  0.27559  1.0000
  S   S538      1.0  0.45576  0.18221  0.29202  1.0000
  S   S539      1.0  0.47439  0.17934  0.26442  1.0000
  N   N128      1.0  0.31219  0.07445  0.27364  1.0000
  Fe  Fe272     1.0  0.32562  0.34678  0.23448  1.0000
  S   S540      1.0  0.31335  0.34605  0.22648  1.0000
  S   S541      1.0  0.33535  0.33225  0.24280  1.0000
  Fe  Fe273     1.0  0.32189  0.37041  0.22873  1.0000
  S   S542      1.0  0.30948  0.37216  0.21985  1.0000
  S   S543      1.0  0.32635  0.38420  0.23120  1.0000
  Fe  Fe274     1.0  0.30357  0.35986  0.23336  1.0000
  S   S544      1.0  0.28602  0.36289  0.23877  1.0000
  Fe  Fe275     1.0  0.32014  0.35835  0.21356  1.0000
  S   S545      1.0  0.31508  0.35932  0.24291  1.0000
  S   S546      1.0  0.33333  0.35797  0.22093  1.0000
  Fe  Fe276     1.0  0.26176  0.35798  0.29257  1.0000
  S   S547      1.0  0.26370  0.36327  0.30618  1.0000
  S   S548      1.0  0.27308  0.34407  0.28715  1.0000
  C   C1533     1.0  0.29760  0.38006  0.18778  1.0000
  H   H1532     1.0  0.26516  0.23149  0.34513  1.0000
  N   N129      1.0  0.25930  0.24541  0.35148  1.0000
  C   C1534     1.0  0.26162  0.44793  0.19495  1.0000
  H   H1533     1.0  0.30894  0.07330  0.20616  1.0000
  S   S549      1.0  0.30202  0.41905  0.20257  1.0000
  S   S550      1.0  0.31121  0.43894  0.20437  1.0000
  Fe  Fe277     1.0  0.31419  0.42838  0.19301  1.0000
  S   S551      1.0  0.24880  0.13086  0.29954  1.0000
  Fe  Fe278     1.0  0.29812  0.43055  0.21294  1.0000
  S   S552      1.0  0.29310  0.42673  0.23052  1.0000
  S   S553      1.0  0.28034  0.16597  0.34921  1.0000
  N   N130      1.0  0.48526  0.23369  0.22263  1.0000
  C   C1535     1.0  0.25391  0.40582  0.28649  1.0000
  Fe  Fe279     1.0  0.31588  0.23747  0.33900  1.0000
  S   S554      1.0  0.29920  0.24527  0.34525  1.0000
  S   S555      1.0  0.32433  0.24000  0.32198  1.0000
  Fe  Fe280     1.0  0.29727  0.22899  0.35394  1.0000
  C   C1536     1.0  0.28216  0.27277  0.37179  1.0000
  Fe  Fe281     1.0  0.30529  0.24516  0.35924  1.0000
  H   H1534     1.0  0.41275  0.25636  0.17957  1.0000
  S   S556      1.0  0.31332  0.22116  0.34635  1.0000
  S   S557      1.0  0.32216  0.23885  0.35225  1.0000
  H   H1535     1.0  0.38869  0.11885  0.21419  1.0000
  C   C1537     1.0  0.24141  0.09494  0.20982  1.0000
  S   S558      1.0  0.25909  0.31767  0.35382  1.0000
  C   C1538     1.0  0.26193  0.04779  0.18555  1.0000
  H   H1536     1.0  0.30724  0.44153  0.22747  1.0000
  H   H1537     1.0  0.26536  0.35576  0.21382  1.0000
  H   H1538     1.0  0.47736  0.22279  0.23465  1.0000
  H   H1539     1.0  0.25393  0.11863  0.24565  1.0000
  H   H1540     1.0  0.24901  0.36393  0.34225  1.0000
  C   C1539     1.0  0.24712  0.08675  0.19483  1.0000
  C   C1540     1.0  0.29109  0.45704  0.22285  1.0000
  C   C1541     1.0  0.24550  0.35019  0.23464  1.0000
  C   C1542     1.0  0.42076  0.17074  0.18268  1.0000
  C   C1543     1.0  0.24891  0.13470  0.26147  1.0000
  C   C1544     1.0  0.31819  0.45012  0.22839  1.0000
  C   C1545     1.0  0.25186  0.05285  0.18373  1.0000
  H   H1541     1.0  0.26511  0.32205  0.30713  1.0000
  C   C1546     1.0  0.29488  0.18701  0.36055  1.0000
  C   C1547     1.0  0.28572  0.19170  0.35657  1.0000
  C   C1548     1.0  0.28212  0.20268  0.35475  1.0000
  C   C1549     1.0  0.28765  0.20894  0.35700  1.0000
  C   C1550     1.0  0.29670  0.20423  0.36114  1.0000
  H   H1542     1.0  0.31152  0.99761  0.25441  1.0000
  H   H1543     1.0  0.27514  0.20628  0.35151  1.0000
  H   H1544     1.0  0.26780  0.14810  0.31572  1.0000
  H   H1545     1.0  0.32430  0.44311  0.22989  1.0000
  C   C1551     1.0  0.25777  0.43306  0.23341  1.0000
  C   C1552     1.0  0.26465  0.42843  0.22532  1.0000
  C   C1553     1.0  0.27549  0.42572  0.22495  1.0000
  C   C1554     1.0  0.27950  0.42777  0.23258  1.0000
  C   C1555     1.0  0.27259  0.43177  0.24106  1.0000
  C   C1556     1.0  0.26168  0.43441  0.24148  1.0000
  H   H1546     1.0  0.27567  0.43333  0.24700  1.0000
  H   H1547     1.0  0.25637  0.43788  0.24782  1.0000
  H   H1548     1.0  0.28466  0.46405  0.22396  1.0000
  C   C1557     1.0  0.28331  0.41505  0.18129  1.0000
  H   H1549     1.0  0.27778  0.04937  0.18408  1.0000
  C   C1558     1.0  0.25557  0.35157  0.22910  1.0000
  H   H1550     1.0  0.38489  0.15591  0.19141  1.0000
  Fe  Fe282     1.0  0.24612  0.36533  0.31105  1.0000
  H   H1551     1.0  0.24661  0.04253  0.25604  1.0000
  C   C1559     1.0  0.27874  0.15704  0.32350  1.0000
  C   C1560     1.0  0.28229  0.35653  0.25189  1.0000
  C   C1561     1.0  0.27180  0.35905  0.25720  1.0000
  C   C1562     1.0  0.26889  0.35479  0.26797  1.0000
  C   C1563     1.0  0.27646  0.34799  0.27343  1.0000
  C   C1564     1.0  0.28687  0.34511  0.26802  1.0000
  C   C1565     1.0  0.28980  0.34943  0.25724  1.0000
  H   H1552     1.0  0.26597  0.36448  0.25306  1.0000
  H   H1553     1.0  0.26079  0.35685  0.27208  1.0000
  H   H1554     1.0  0.29272  0.33984  0.27224  1.0000
  H   H1555     1.0  0.29789  0.34734  0.25313  1.0000
  C   C1566     1.0  0.32842  0.39315  0.21914  1.0000
  C   C1567     1.0  0.33061  0.38983  0.20964  1.0000
  C   C1568     1.0  0.33034  0.40789  0.19996  1.0000
  C   C1569     1.0  0.32824  0.41114  0.20947  1.0000
  C   C1570     1.0  0.32744  0.40376  0.21904  1.0000
  H   H1556     1.0  0.32715  0.41939  0.20945  1.0000
  H   H1557     1.0  0.32571  0.40634  0.22638  1.0000
  Fe  Fe283     1.0  0.26502  0.10908  0.17964  1.0000
  C   C1571     1.0  0.45630  0.22982  0.24362  1.0000
  C   C1572     1.0  0.45677  0.23963  0.23676  1.0000
  C   C1573     1.0  0.45663  0.24090  0.22611  1.0000
  C   C1574     1.0  0.45593  0.23237  0.22244  1.0000
  H   H1558     1.0  0.45771  0.24606  0.23957  1.0000
  H   H1559     1.0  0.45721  0.24839  0.22075  1.0000
  C   C1575     1.0  0.35975  0.22679  0.31850  1.0000
  C   C1576     1.0  0.35463  0.22667  0.31078  1.0000
  C   C1577     1.0  0.34378  0.23099  0.31173  1.0000
  C   C1578     1.0  0.33800  0.23519  0.32053  1.0000
  C   C1579     1.0  0.34317  0.23537  0.32817  1.0000
  C   C1580     1.0  0.35403  0.23123  0.32713  1.0000
  H   H1560     1.0  0.35897  0.22315  0.30414  1.0000
  H   H1561     1.0  0.33980  0.23082  0.30580  1.0000
  H   H1562     1.0  0.33885  0.23888  0.33480  1.0000
  H   H1563     1.0  0.35797  0.23143  0.33308  1.0000
  C   C1581     1.0  0.42092  0.18194  0.29677  1.0000
  C   C1582     1.0  0.42502  0.19026  0.28963  1.0000
  C   C1583     1.0  0.43578  0.19024  0.28791  1.0000
  C   C1584     1.0  0.44240  0.18207  0.29353  1.0000
  C   C1585     1.0  0.43821  0.17387  0.30079  1.0000
  C   C1586     1.0  0.42754  0.17371  0.30228  1.0000
  H   H1564     1.0  0.41991  0.19664  0.28538  1.0000
  H   H1565     1.0  0.43885  0.19674  0.28254  1.0000
  H   H1566     1.0  0.44326  0.16756  0.30519  1.0000
  H   H1567     1.0  0.42438  0.16727  0.30781  1.0000
  C   C1587     1.0  0.42998  0.17101  0.24937  1.0000
  C   C1588     1.0  0.43142  0.17884  0.24021  1.0000
  C   C1589     1.0  0.43993  0.18389  0.23777  1.0000
  C   C1590     1.0  0.44705  0.18121  0.24447  1.0000
  C   C1591     1.0  0.44542  0.17365  0.25382  1.0000
  C   C1592     1.0  0.43696  0.16851  0.25621  1.0000
  H   H1568     1.0  0.42612  0.18091  0.23491  1.0000
  H   H1569     1.0  0.44114  0.18974  0.23053  1.0000
  H   H1570     1.0  0.45087  0.17151  0.25904  1.0000
  H   H1571     1.0  0.43588  0.16252  0.26336  1.0000
  C   C1593     1.0  0.37957  0.20199  0.24385  1.0000
  C   C1594     1.0  0.38172  0.20962  0.24779  1.0000
  C   C1595     1.0  0.37780  0.21011  0.25844  1.0000
  C   C1596     1.0  0.37142  0.20324  0.26502  1.0000
  C   C1597     1.0  0.36901  0.19585  0.26097  1.0000
  C   C1598     1.0  0.37321  0.19512  0.25043  1.0000
  H   H1572     1.0  0.38664  0.21495  0.24272  1.0000
  H   H1573     1.0  0.37959  0.21587  0.26154  1.0000
  H   H1574     1.0  0.36406  0.19054  0.26605  1.0000
  H   H1575     1.0  0.37145  0.18928  0.24738  1.0000
  C   C1599     1.0  0.36344  0.31723  0.22009  1.0000
  C   C1600     1.0  0.36185  0.31276  0.23089  1.0000
  C   C1601     1.0  0.35319  0.31739  0.23788  1.0000
  C   C1602     1.0  0.34601  0.32633  0.23404  1.0000
  C   C1603     1.0  0.34756  0.33067  0.22325  1.0000
  C   C1604     1.0  0.35639  0.32630  0.21633  1.0000
  H   H1576     1.0  0.36727  0.30577  0.23385  1.0000
  H   H1577     1.0  0.35203  0.31400  0.24624  1.0000
  H   H1578     1.0  0.34192  0.33733  0.22016  1.0000
  H   H1579     1.0  0.35759  0.32978  0.20798  1.0000
  C   C1605     1.0  0.38236  0.25340  0.24941  1.0000
  C   C1606     1.0  0.39096  0.25668  0.25052  1.0000
  C   C1607     1.0  0.39786  0.24989  0.25679  1.0000
  C   C1608     1.0  0.39611  0.23985  0.26202  1.0000
  C   C1609     1.0  0.38756  0.23655  0.26087  1.0000
  C   C1610     1.0  0.38065  0.24333  0.25462  1.0000
  H   H1580     1.0  0.39215  0.26457  0.24678  1.0000
  H   H1581     1.0  0.40433  0.25256  0.25786  1.0000
  H   H1582     1.0  0.38627  0.22876  0.26482  1.0000
  H   H1583     1.0  0.37401  0.24074  0.25381  1.0000
  H   H1584     1.0  0.43732  0.26836  0.22827  1.0000
  C   C1611     1.0  0.28385  0.04039  0.21872  1.0000
  C   C1612     1.0  0.28033  0.04114  0.20962  1.0000
  C   C1613     1.0  0.27911  0.03204  0.20730  1.0000
  C   C1614     1.0  0.28143  0.02223  0.21403  1.0000
  C   C1615     1.0  0.28520  0.02148  0.22295  1.0000
  C   C1616     1.0  0.28637  0.03053  0.22533  1.0000
  H   H1585     1.0  0.27822  0.04875  0.20454  1.0000
  H   H1586     1.0  0.27617  0.03264  0.20040  1.0000
  H   H1587     1.0  0.28660  0.01398  0.22833  1.0000
  H   H1588     1.0  0.28891  0.02990  0.23246  1.0000
  H   H1589     1.0  0.24363  0.24807  0.36064  1.0000
  H   H1590     1.0  0.26358  0.03942  0.18884  1.0000
  H   H1591     1.0  0.27676  0.99995  0.24029  1.0000
  C   C1617     1.0  0.26807  0.06426  0.17824  1.0000
  C   C1618     1.0  0.25463  0.11566  0.20367  1.0000
  C   C1619     1.0  0.40902  0.19126  0.18314  1.0000
  C   C1620     1.0  0.24999  0.16600  0.33446  1.0000
  H   H1592     1.0  0.25863  0.11281  0.21881  1.0000
  H   H1593     1.0  0.26253  0.11242  0.19982  1.0000
  C   C1621     1.0  0.42689  0.28389  0.18565  1.0000
  C   C1622     1.0  0.26274  0.12805  0.33250  1.0000
  C   C1623     1.0  0.27367  0.12553  0.32886  1.0000
  C   C1624     1.0  0.28040  0.12821  0.33365  1.0000
  C   C1625     1.0  0.27623  0.13371  0.34186  1.0000
  C   C1626     1.0  0.26530  0.13640  0.34535  1.0000
  C   C1627     1.0  0.25860  0.13338  0.34084  1.0000
  H   H1594     1.0  0.27693  0.12138  0.32247  1.0000
  H   H1595     1.0  0.29067  0.12126  0.24528  1.0000
  C   C1628     1.0  0.37418  0.23978  0.23031  1.0000
  H   H1596     1.0  0.40445  0.19919  0.18331  1.0000
  H   H1597     1.0  0.26124  0.12823  0.24504  1.0000
  H   H1598     1.0  0.25931  0.07242  0.21473  1.0000
  N   N131      1.0  0.38650  0.13538  0.21235  1.0000
  C   C1629     1.0  0.30721  0.09264  0.27499  1.0000
  C   C1630     1.0  0.25055  0.42454  0.28614  1.0000
  C   C1631     1.0  0.26756  0.07004  0.27476  1.0000
  C   C1632     1.0  0.27685  0.06610  0.27858  1.0000
  C   C1633     1.0  0.27945  0.07153  0.28475  1.0000
  C   C1634     1.0  0.27289  0.08102  0.28696  1.0000
  C   C1635     1.0  0.26372  0.08510  0.28291  1.0000
  C   C1636     1.0  0.26107  0.07963  0.27681  1.0000
  H   H1599     1.0  0.28184  0.05866  0.27713  1.0000
  H   H1600     1.0  0.28642  0.06820  0.28804  1.0000
  H   H1601     1.0  0.25851  0.09231  0.28468  1.0000
  H   H1602     1.0  0.25387  0.08273  0.27384  1.0000
  C   C1637     1.0  0.37174  0.14570  0.23657  1.0000
  C   C1638     1.0  0.36983  0.15204  0.22691  1.0000
  C   C1639     1.0  0.36346  0.14947  0.22161  1.0000
  C   C1640     1.0  0.35889  0.14060  0.22594  1.0000
  C   C1641     1.0  0.36059  0.13440  0.23572  1.0000
  C   C1642     1.0  0.36706  0.13690  0.24095  1.0000
  H   H1603     1.0  0.37331  0.15889  0.22349  1.0000
  H   H1604     1.0  0.36216  0.15433  0.21406  1.0000
  H   H1605     1.0  0.35716  0.12752  0.23912  1.0000
  H   H1606     1.0  0.36845  0.13197  0.24844  1.0000
  C   C1643     1.0  0.30313  0.11961  0.21093  1.0000
  C   C1644     1.0  0.29496  0.12239  0.20543  1.0000
  C   C1645     1.0  0.29346  0.11524  0.20031  1.0000
  C   C1646     1.0  0.30010  0.10524  0.20078  1.0000
  C   C1647     1.0  0.30817  0.10241  0.20642  1.0000
  C   C1648     1.0  0.30972  0.10958  0.21145  1.0000
  H   H1607     1.0  0.28978  0.13011  0.20509  1.0000
  H   H1608     1.0  0.28716  0.11745  0.19605  1.0000
  H   H1609     1.0  0.31333  0.09468  0.20681  1.0000
  H   H1610     1.0  0.31601  0.10734  0.21572  1.0000
  C   C1649     1.0  0.33335  0.07733  0.23910  1.0000
  C   C1650     1.0  0.33868  0.06685  0.24165  1.0000
  C   C1651     1.0  0.33310  0.05879  0.24616  1.0000
  C   C1652     1.0  0.32209  0.06099  0.24795  1.0000
  C   C1653     1.0  0.31663  0.07145  0.24510  1.0000
  C   C1654     1.0  0.32228  0.07966  0.24073  1.0000
  H   H1611     1.0  0.34720  0.06498  0.24042  1.0000
  H   H1612     1.0  0.33737  0.05078  0.24846  1.0000
  H   H1613     1.0  0.30811  0.07322  0.24669  1.0000
  H   H1614     1.0  0.31812  0.08775  0.23878  1.0000
  C   C1655     1.0  0.30509  0.12785  0.26545  1.0000
  C   C1656     1.0  0.29957  0.12763  0.27586  1.0000
  C   C1657     1.0  0.28855  0.13078  0.27809  1.0000
  C   C1658     1.0  0.28305  0.13425  0.26993  1.0000
  C   C1659     1.0  0.28860  0.13482  0.25948  1.0000
  C   C1660     1.0  0.29961  0.13147  0.25725  1.0000
  H   H1615     1.0  0.30380  0.12493  0.28221  1.0000
  H   H1616     1.0  0.28434  0.13072  0.28613  1.0000
  H   H1617     1.0  0.28436  0.13766  0.25314  1.0000
  S   S559      1.0  0.41617  0.28066  0.23299  1.0000
  C   C1661     1.0  0.25802  0.06937  0.17634  1.0000
  H   H1618     1.0  0.25814  0.34718  0.32346  1.0000
  H   H1619     1.0  0.32570  0.47310  0.20172  1.0000
  C   C1662     1.0  0.26729  0.46408  0.19984  1.0000
  C   C1663     1.0  0.25748  0.35486  0.21811  1.0000
  C   C1664     1.0  0.42008  0.18903  0.26437  1.0000
  H   H1620     1.0  0.42748  0.18942  0.26589  1.0000
  H   H1621     1.0  0.42122  0.20080  0.24995  1.0000
  C   C1665     1.0  0.43888  0.14751  0.23844  1.0000
  H   H1622     1.0  0.43038  0.14748  0.23965  1.0000
  H   H1623     1.0  0.44374  0.13993  0.23652  1.0000
  H   H1624     1.0  0.24868  0.45923  0.22128  1.0000
  N   N132      1.0  0.38669  0.22762  0.21598  1.0000
  C   C1666     1.0  0.39057  0.23501  0.21820  1.0000
  C   C1667     1.0  0.37677  0.22605  0.22093  1.0000
  C   C1668     1.0  0.38434  0.24127  0.22532  1.0000
  C   C1669     1.0  0.37038  0.23207  0.22819  1.0000
  C   C1670     1.0  0.39341  0.22095  0.20871  1.0000
  H   H1625     1.0  0.39841  0.23629  0.21424  1.0000
  H   H1626     1.0  0.37381  0.22000  0.21937  1.0000
  H   H1627     1.0  0.38731  0.24730  0.22690  1.0000
  H   H1628     1.0  0.38856  0.21856  0.20459  1.0000
  H   H1629     1.0  0.39892  0.22527  0.20244  1.0000
  H   H1630     1.0  0.39791  0.21373  0.21312  1.0000
  N   N133      1.0  0.24607  0.12945  0.25563  1.0000
  C   C1671     1.0  0.25314  0.32977  0.34675  1.0000
  H   H1631     1.0  0.26423  0.01623  0.23398  1.0000
  H   H1632     1.0  0.47765  0.24809  0.22739  1.0000
  H   H1633     1.0  0.24615  0.09517  0.22725  1.0000
  S   S560      1.0  0.29926  0.17331  0.36309  1.0000
  S   S561      1.0  0.25181  0.10558  0.31069  1.0000
  S   S562      1.0  0.45252  0.28539  0.19245  1.0000
  H   H1634     1.0  0.31679  0.05777  0.27443  1.0000
  H   H1635     1.0  0.25649  0.08360  0.22736  1.0000
  H   H1636     1.0  0.31592  0.35011  0.18134  1.0000
  C   C1672     1.0  0.43942  0.16839  0.21362  1.0000
  C   C1673     1.0  0.45495  0.22158  0.24000  1.0000
  H   H1637     1.0  0.26036  0.39950  0.31547  1.0000
  H   H1638     1.0  0.31596  0.46241  0.19691  1.0000
  C   C1674     1.0  0.39428  0.15362  0.20282  1.0000
  C   C1675     1.0  0.29258  0.38544  0.19592  1.0000
  S   S563      1.0  0.25263  0.18320  0.35078  1.0000
  C   C1676     1.0  0.28737  0.00228  0.25963  1.0000
  H   H1639     1.0  0.26189  0.35005  0.23326  1.0000
  H   H1640     1.0  0.25175  0.39929  0.28495  1.0000
  H   H1641     1.0  0.27218  0.41124  0.29635  1.0000
  H   H1642     1.0  0.26823  0.41059  0.18657  1.0000
  Fe  Fe284     1.0  0.24739  0.30791  0.36383  1.0000
  H   H1643     1.0  0.43286  0.29929  0.19874  1.0000
  C   C1677     1.0  0.43629  0.27506  0.22179  1.0000
  H   H1644     1.0  0.34164  0.30637  0.22962  1.0000
  H   H1645     1.0  0.26792  0.35534  0.33765  1.0000
  N   N134      1.0  0.35000  0.35614  0.23714  1.0000
  C   C1678     1.0  0.35567  0.34619  0.23637  1.0000
  C   C1679     1.0  0.35195  0.36459  0.22916  1.0000
  C   C1680     1.0  0.36321  0.34444  0.22725  1.0000
  C   C1681     1.0  0.35939  0.36313  0.21989  1.0000
  C   C1682     1.0  0.36499  0.35296  0.21892  1.0000
  C   C1683     1.0  0.34205  0.35772  0.24674  1.0000
  H   H1646     1.0  0.35421  0.33950  0.24275  1.0000
  H   H1647     1.0  0.34758  0.37251  0.22981  1.0000
  H   H1648     1.0  0.36749  0.33649  0.22658  1.0000
  H   H1649     1.0  0.36068  0.36983  0.21347  1.0000
  H   H1650     1.0  0.37069  0.35167  0.21174  1.0000
  H   H1651     1.0  0.33768  0.35120  0.24969  1.0000
  H   H1652     1.0  0.34591  0.35801  0.25294  1.0000
  H   H1653     1.0  0.33608  0.36518  0.24525  1.0000
  H   H1654     1.0  0.27244  0.98748  0.18919  1.0000
  H   H1655     1.0  0.25221  0.23243  0.35339  1.0000
  N   N135      1.0  0.33649  0.15302  0.24372  1.0000
  C   C1684     1.0  0.33295  0.14481  0.25106  1.0000
  C   C1685     1.0  0.34451  0.15676  0.24490  1.0000
  C   C1686     1.0  0.33732  0.14026  0.25997  1.0000
  C   C1687     1.0  0.34900  0.15246  0.25378  1.0000
  C   C1688     1.0  0.34539  0.14413  0.26133  1.0000
  C   C1689     1.0  0.33205  0.15741  0.23425  1.0000
  H   H1656     1.0  0.32671  0.14171  0.25006  1.0000
  H   H1657     1.0  0.34764  0.16297  0.23889  1.0000
  H   H1658     1.0  0.33449  0.13370  0.26573  1.0000
  H   H1659     1.0  0.35551  0.15532  0.25459  1.0000
  H   H1660     1.0  0.34897  0.14057  0.26813  1.0000
  H   H1661     1.0  0.32353  0.15723  0.23603  1.0000
  H   H1662     1.0  0.33275  0.16575  0.23093  1.0000
  H   H1663     1.0  0.33628  0.15272  0.22815  1.0000
  N   N136      1.0  0.30426  0.06716  0.19542  1.0000
  H   H1664     1.0  0.27056  0.99072  0.22048  1.0000
  C   C1690     1.0  0.29930  0.06004  0.19427  1.0000
  H   H1665     1.0  0.28167  0.09427  0.26814  1.0000
  C   C1691     1.0  0.29989  0.05842  0.18431  1.0000
  C   C1692     1.0  0.31773  0.47645  0.20057  1.0000
  C   C1693     1.0  0.30296  0.06911  0.20593  1.0000
  H   H1666     1.0  0.29468  0.05570  0.20107  1.0000
  S   S564      1.0  0.32191  0.35700  0.19699  1.0000
  C   C1694     1.0  0.30599  0.00030  0.23104  1.0000
  Fe  Fe285     1.0  0.26038  0.37947  0.29616  1.0000
  H   H1667     1.0  0.30846  0.00935  0.24494  1.0000
  N   N137      1.0  0.30089  0.45810  0.22487  1.0000
  C   C1695     1.0  0.30854  0.44928  0.22699  1.0000
  C   C1696     1.0  0.25770  0.45042  0.20489  1.0000
  S   S565      1.0  0.24169  0.04571  0.18728  1.0000
  H   H1668     1.0  0.27708  0.99583  0.20124  1.0000
  C   C1697     1.0  0.26515  0.36349  0.33393  1.0000
  Fe  Fe286     1.0  0.28695  0.10047  0.18384  1.0000
  H   H1669     1.0  0.26629  0.21084  0.37078  1.0000
  C   C1698     1.0  0.27608  0.40906  0.18173  1.0000
  H   H1670     1.0  0.43415  0.23115  0.21937  1.0000
  C   C1699     1.0  0.28582  0.10845  0.25770  1.0000
  C   C1700     1.0  0.28254  0.98684  0.25198  1.0000
  C   C1701     1.0  0.24841  0.08700  0.22584  1.0000
  C   C1702     1.0  0.39071  0.24602  0.18885  1.0000
  S   S566      1.0  0.26982  0.37663  0.17796  1.0000
  C   C1703     1.0  0.24214  0.11991  0.21945  1.0000
  N   N138      1.0  0.26054  0.45842  0.20722  1.0000
  C   C1704     1.0  0.31298  0.00104  0.24579  1.0000
  H   H1671     1.0  0.26206  0.45469  0.22309  1.0000
  H   H1672     1.0  0.28090  0.01351  0.24712  1.0000
  N   N139      1.0  0.42863  0.24746  0.21979  1.0000
  C   C1705     1.0  0.42433  0.25472  0.22598  1.0000
  C   C1706     1.0  0.43063  0.23692  0.22427  1.0000
  C   C1707     1.0  0.42210  0.25157  0.23695  1.0000
  C   C1708     1.0  0.42851  0.23347  0.23525  1.0000
  C   C1709     1.0  0.42420  0.24087  0.24162  1.0000
  C   C1710     1.0  0.43063  0.25108  0.20831  1.0000
  H   H1673     1.0  0.42254  0.26303  0.22240  1.0000
  H   H1674     1.0  0.24386  0.34766  0.24317  1.0000
  H   H1675     1.0  0.41874  0.25746  0.24176  1.0000
  S   S567      1.0  0.24875  0.11806  0.18502  1.0000
  H   H1676     1.0  0.42249  0.23832  0.25014  1.0000
  H   H1677     1.0  0.43629  0.24497  0.20427  1.0000
  H   H1678     1.0  0.42312  0.25317  0.20553  1.0000
  H   H1679     1.0  0.43419  0.25815  0.20592  1.0000
  N   N140      1.0  0.29080  0.09731  0.24173  1.0000
  C   C1711     1.0  0.29205  0.10749  0.23939  1.0000
  C   C1712     1.0  0.28720  0.09252  0.25194  1.0000
  S   S568      1.0  0.24867  0.29240  0.35992  1.0000
  C   C1713     1.0  0.30989  0.98460  0.24379  1.0000
  H   H1680     1.0  0.24784  0.39944  0.32446  1.0000
  C   C1714     1.0  0.29369  0.09153  0.23323  1.0000
  H   H1681     1.0  0.29500  0.11125  0.23135  1.0000
  H   H1682     1.0  0.28624  0.08442  0.25387  1.0000
  C   C1715     1.0  0.24316  0.07509  0.29878  1.0000
  H   H1683     1.0  0.33998  0.29759  0.22236  1.0000
  C   C1716     1.0  0.40043  0.24785  0.18256  1.0000
  H   H1684     1.0  0.29069  0.08412  0.23571  1.0000
  H   H1685     1.0  0.29036  0.09645  0.22631  1.0000
  H   H1686     1.0  0.30242  0.08952  0.23062  1.0000
  C   C1717     1.0  0.28910  0.40165  0.25159  1.0000
  C   C1718     1.0  0.28358  0.39834  0.26186  1.0000
  C   C1719     1.0  0.28212  0.38800  0.26522  1.0000
  H   H1687     1.0  0.29021  0.40970  0.24900  1.0000
  H   H1688     1.0  0.28047  0.40374  0.26720  1.0000
  H   H1689     1.0  0.27797  0.38532  0.27321  1.0000
  N   N141      1.0  0.30751  0.38112  0.18216  1.0000
  H   H1690     1.0  0.24590  0.39563  0.25946  1.0000
  S   S569      1.0  0.47737  0.24231  0.18494  1.0000
  H   H1691     1.0  0.28386  0.11283  0.26391  1.0000
  C   C1720     1.0  0.48192  0.21812  0.21980  1.0000
  H   H1692     1.0  0.27374  0.38383  0.31554  1.0000
  C   C1721     1.0  0.25607  0.01859  0.24954  1.0000
  C   C1722     1.0  0.25424  0.05120  0.23605  1.0000
  H   H1693     1.0  0.28836  0.45000  0.22826  1.0000
  H   H1694     1.0  0.24462  0.36605  0.19874  1.0000
  S   S570      1.0  0.26996  0.17267  0.37220  1.0000
  C   C1723     1.0  0.25244  0.31641  0.32517  1.0000
  H   H1695     1.0  0.30083  0.20897  0.36321  1.0000
  H   H1696     1.0  0.32653  0.31908  0.22292  1.0000
  C   C1724     1.0  0.24288  0.33485  0.35073  1.0000
  N   N142      1.0  0.36340  0.25601  0.28014  1.0000
  C   C1725     1.0  0.37396  0.25308  0.28009  1.0000
  C   C1726     1.0  0.35613  0.25461  0.28942  1.0000
  C   C1727     1.0  0.37751  0.24872  0.28950  1.0000
  C   C1728     1.0  0.35940  0.25046  0.29900  1.0000
  C   C1729     1.0  0.37016  0.24741  0.29902  1.0000
  C   C1730     1.0  0.35991  0.26010  0.27011  1.0000
  H   H1697     1.0  0.37970  0.25404  0.27274  1.0000
  H   H1698     1.0  0.34775  0.25667  0.28949  1.0000
  H   H1699     1.0  0.38590  0.24619  0.28937  1.0000
  H   H1700     1.0  0.35361  0.24941  0.30636  1.0000
  H   H1701     1.0  0.37278  0.24387  0.30638  1.0000
  H   H1702     1.0  0.35997  0.25344  0.26668  1.0000
  H   H1703     1.0  0.35183  0.26514  0.27114  1.0000
  H   H1704     1.0  0.36523  0.26503  0.26433  1.0000
  C   C1731     1.0  0.30994  0.35461  0.19636  1.0000
  H   H1705     1.0  0.28474  0.35540  0.21048  1.0000
  H   H1706     1.0  0.38686  0.26244  0.20543  1.0000
  H   H1707     1.0  0.25367  0.35353  0.19760  1.0000
  H   H1708     1.0  0.28886  0.12608  0.33094  1.0000
  C   C1732     1.0  0.27211  0.36913  0.32636  1.0000
  C   C1733     1.0  0.25386  0.34380  0.33104  1.0000
  H   H1709     1.0  0.30157  0.35879  0.21121  1.0000
  H   H1710     1.0  0.33322  0.39470  0.19268  1.0000
  C   C1734     1.0  0.30039  0.19330  0.36279  1.0000
  S   S571      1.0  0.25287  0.03255  0.21094  1.0000
  C   C1735     1.0  0.25955  0.32905  0.30977  1.0000
  H   H1711     1.0  0.26164  0.42718  0.21917  1.0000
  C   C1736     1.0  0.25870  0.33436  0.33698  1.0000
  N   N143      1.0  0.35139  0.20570  0.33474  1.0000
  C   C1737     1.0  0.35740  0.20164  0.32623  1.0000
  C   C1738     1.0  0.34070  0.20903  0.33577  1.0000
  C   C1739     1.0  0.35273  0.20109  0.31832  1.0000
  C   C1740     1.0  0.33579  0.20869  0.32797  1.0000
  C   C1741     1.0  0.34187  0.20472  0.31919  1.0000
  C   C1742     1.0  0.35641  0.20616  0.34296  1.0000
  H   H1712     1.0  0.36589  0.19907  0.32537  1.0000
  H   H1713     1.0  0.33595  0.21216  0.34257  1.0000
  H   H1714     1.0  0.35753  0.19809  0.31146  1.0000
  H   H1715     1.0  0.32736  0.21169  0.32862  1.0000
  H   H1716     1.0  0.33819  0.20457  0.31300  1.0000
  H   H1717     1.0  0.35754  0.19837  0.34847  1.0000
  H   H1718     1.0  0.36417  0.20844  0.33940  1.0000
  H   H1719     1.0  0.35150  0.21218  0.34755  1.0000
  C   C1743     1.0  0.24312  0.19001  0.35972  1.0000
  C   C1744     1.0  0.25762  0.23708  0.34739  1.0000
  C   C1745     1.0  0.39331  0.13801  0.21666  1.0000
  H   H1720     1.0  0.39557  0.13313  0.22387  1.0000
  C   C1746     1.0  0.30985  0.07285  0.18677  1.0000
  C   C1747     1.0  0.25095  0.37866  0.33138  1.0000
  N   N144      1.0  0.25786  0.38422  0.32414  1.0000
  C   C1748     1.0  0.25370  0.07853  0.20034  1.0000
  S   S572      1.0  0.27833  0.34988  0.19438  1.0000
  C   C1749     1.0  0.26874  0.24853  0.34815  1.0000
  H   H1721     1.0  0.31815  0.10237  0.26551  1.0000
  C   C1750     1.0  0.26285  0.15325  0.32090  1.0000
  H   H1722     1.0  0.29919  0.99907  0.21868  1.0000
  Fe  Fe287     1.0  0.26421  0.17066  0.35890  1.0000
  Fe  Fe288     1.0  0.46235  0.26950  0.19039  1.0000
  C   C1751     1.0  0.24653  0.11942  0.19803  1.0000
  H   H1723     1.0  0.30749  0.18974  0.36583  1.0000
  H   H1724     1.0  0.28142  0.15636  0.33081  1.0000
  H   H1725     1.0  0.37808  0.13960  0.19996  1.0000
  S   S573      1.0  0.45394  0.25829  0.18815  1.0000
  N   N145      1.0  0.43309  0.21843  0.28812  1.0000
  C   C1752     1.0  0.44199  0.22169  0.28194  1.0000
  C   C1753     1.0  0.43368  0.21054  0.29692  1.0000
  C   C1754     1.0  0.45180  0.21710  0.28460  1.0000
  C   C1755     1.0  0.44341  0.20566  0.29971  1.0000
  C   C1756     1.0  0.45252  0.20895  0.29348  1.0000
  C   C1757     1.0  0.42292  0.22290  0.28498  1.0000
  H   H1726     1.0  0.44159  0.22776  0.27480  1.0000
  H   H1727     1.0  0.42669  0.20765  0.30158  1.0000
  H   H1728     1.0  0.45884  0.21968  0.27961  1.0000
  H   H1729     1.0  0.44396  0.19902  0.30637  1.0000
  H   H1730     1.0  0.46015  0.20495  0.29538  1.0000
  H   H1731     1.0  0.42299  0.23048  0.27910  1.0000
  H   H1732     1.0  0.42100  0.21729  0.28143  1.0000
  H   H1733     1.0  0.41653  0.22453  0.29188  1.0000
  N   N146      1.0  0.34123  0.31295  0.21346  1.0000
  C   C1758     1.0  0.34791  0.31412  0.20377  1.0000
  C   C1759     1.0  0.33182  0.31998  0.21524  1.0000
  C   C1760     1.0  0.34533  0.32266  0.19563  1.0000
  C   C1761     1.0  0.32896  0.32855  0.20724  1.0000
  C   C1762     1.0  0.33579  0.32991  0.19741  1.0000
  C   C1763     1.0  0.34399  0.30395  0.22191  1.0000
  H   H1734     1.0  0.35545  0.30863  0.20239  1.0000
  H   H1735     1.0  0.24610  0.40934  0.25420  1.0000
  N   N147      1.0  0.24810  0.08701  0.21507  1.0000
  H   H1736     1.0  0.32153  0.33418  0.20866  1.0000
  C   C1764     1.0  0.27241  0.98982  0.20440  1.0000
  H   H1737     1.0  0.24731  0.05622  0.24027  1.0000
  H   H1738     1.0  0.25698  0.46854  0.21809  1.0000
  Fe  Fe289     1.0  0.28596  0.16629  0.36326  1.0000
  C   C1765     1.0  0.27127  0.27527  0.37588  1.0000
  S   S574      1.0  0.41733  0.16387  0.20391  1.0000
  C   C1766     1.0  0.33173  0.39720  0.20003  1.0000
  H   H1739     1.0  0.33136  0.38163  0.20968  1.0000
  C   C1767     1.0  0.39730  0.14715  0.21196  1.0000
  H   H1740     1.0  0.31197  0.39794  0.19436  1.0000
  H   H1741     1.0  0.37825  0.24997  0.20190  1.0000
  H   H1742     1.0  0.25014  0.13537  0.34367  1.0000
  S   S575      1.0  0.29842  0.09594  0.19470  1.0000
  H   H1743     1.0  0.28079  0.42238  0.21852  1.0000
  C   C1768     1.0  0.24211  0.13715  0.27075  1.0000
  C   C1769     1.0  0.31220  0.47037  0.19789  1.0000
  C   C1770     1.0  0.42683  0.28266  0.22238  1.0000
  S   S576      1.0  0.28632  0.44172  0.20412  1.0000
  S   S577      1.0  0.32943  0.41741  0.18832  1.0000
  C   C1771     1.0  0.45475  0.22285  0.22945  1.0000
  H   H1744     1.0  0.45442  0.21404  0.24522  1.0000
  H   H1745     1.0  0.36256  0.23071  0.23216  1.0000
  C   C1772     1.0  0.31270  0.38732  0.18457  1.0000
  Fe  Fe290     1.0  0.24399  0.11677  0.29806  1.0000
  H   H1746     1.0  0.28470  0.38463  0.20029  1.0000
  H   H1747     1.0  0.43038  0.22514  0.23879  1.0000
  H   H1748     1.0  0.30471  0.40284  0.23434  1.0000
  C   C1773     1.0  0.40525  0.25496  0.18448  1.0000
  Fe  Fe291     1.0  0.29967  0.44952  0.19472  1.0000
  C   C1774     1.0  0.42563  0.29139  0.21407  1.0000
  H   H1749     1.0  0.41843  0.29739  0.21458  1.0000
  H   H1750     1.0  0.27766  0.25943  0.34884  1.0000
  H   H1751     1.0  0.45398  0.15769  0.23664  1.0000
  S   S578      1.0  0.30378  0.43964  0.18240  1.0000
  C   C1775     1.0  0.25159  0.36044  0.20136  1.0000
  Fe  Fe292     1.0  0.31840  0.22301  0.36010  1.0000
  H   H1752     1.0  0.41708  0.17675  0.27801  1.0000
  N   N148      1.0  0.29308  0.39481  0.24488  1.0000
  C   C1776     1.0  0.26542  0.41256  0.29290  1.0000
  N   N149      1.0  0.44180  0.15634  0.22999  1.0000
  H   H1753     1.0  0.36925  0.24460  0.23582  1.0000
  H   H1754     1.0  0.24575  0.26310  0.36666  1.0000
  Fe  Fe293     1.0  0.24175  0.00837  0.21175  1.0000
  H   H1755     1.0  0.43999  0.14823  0.24609  1.0000
  C   C1777     1.0  0.41657  0.19539  0.25542  1.0000
  H   H1756     1.0  0.33070  0.08776  0.25780  1.0000
  C   C1778     1.0  0.26097  0.16472  0.33224  1.0000
  C   C1779     1.0  0.26870  0.98690  0.21528  1.0000
  C   C1780     1.0  0.28601  0.38114  0.25827  1.0000
  H   H1757     1.0  0.29318  0.40396  0.22937  1.0000
  H   H1758     1.0  0.29502  0.07410  0.20815  1.0000
  H   H1759     1.0  0.41816  0.28660  0.18708  1.0000
  H   H1760     1.0  0.24281  0.08233  0.23149  1.0000
  C   C1781     1.0  0.30191  0.47466  0.19631  1.0000
  C   C1782     1.0  0.25692  0.46035  0.21793  1.0000
  H   H1761     1.0  0.30168  0.09899  0.27840  1.0000
  S   S579      1.0  0.29460  0.46730  0.19301  1.0000
  C   C1783     1.0  0.29879  0.39853  0.23417  1.0000
  C   C1784     1.0  0.44423  0.27585  0.21260  1.0000
  H   H1762     1.0  0.45134  0.26979  0.21204  1.0000
  C   C1785     1.0  0.38733  0.15089  0.19848  1.0000
  C   C1786     1.0  0.30113  0.35604  0.20457  1.0000
  S   S580      1.0  0.47587  0.20153  0.24740  1.0000
  C   C1787     1.0  0.44997  0.16053  0.23011  1.0000
  S   S581      1.0  0.26986  0.39128  0.29475  1.0000
  C   C1788     1.0  0.25113  0.25050  0.35810  1.0000
  H   H1763     1.0  0.25648  0.33412  0.30277  1.0000
  C   C1789     1.0  0.28026  0.99759  0.24714  1.0000
  C   C1790     1.0  0.29147  0.38471  0.24805  1.0000
  C   C1791     1.0  0.24154  0.33315  0.32010  1.0000
  H   H1764     1.0  0.25999  0.31092  0.32413  1.0000
  H   H1765     1.0  0.32682  0.06994  0.26320  1.0000
  H   H1766     1.0  0.32748  0.46089  0.22851  1.0000
  C   C1792     1.0  0.27130  0.46184  0.18979  1.0000
  C   C1793     1.0  0.43665  0.16005  0.22180  1.0000
  H   H1767     1.0  0.28482  0.37310  0.26077  1.0000
  S   S582      1.0  0.47131  0.25771  0.20196  1.0000
  C   C1794     1.0  0.29153  0.35418  0.20413  1.0000
  C   C1795     1.0  0.30912  0.35132  0.18768  1.0000
  C   C1796     1.0  0.41584  0.17352  0.19236  1.0000
  H   H1768     1.0  0.43030  0.15663  0.22157  1.0000
  H   H1769     1.0  0.26667  0.33049  0.33392  1.0000
  H   H1770     1.0  0.25862  0.07210  0.19669  1.0000
  H   H1771     1.0  0.25963  0.44135  0.19326  1.0000
  H   H1772     1.0  0.48717  0.21569  0.20390  1.0000
  C   C1797     1.0  0.41417  0.18186  0.27120  1.0000
  S   S583      1.0  0.28484  0.13689  0.34777  1.0000
  H   H1773     1.0  0.26721  0.28343  0.37541  1.0000
  C   C1798     1.0  0.31997  0.46006  0.22765  1.0000
  C   C1799     1.0  0.25190  0.15433  0.32297  1.0000
  Fe  Fe294     1.0  0.29140  0.43089  0.19280  1.0000
  H   H1774     1.0  0.30575  0.00866  0.22807  1.0000
  H   H1775     1.0  0.24692  0.08684  0.18682  1.0000
  H   H1776     1.0  0.35075  0.32370  0.18805  1.0000
  C   C1800     1.0  0.27017  0.25697  0.35144  1.0000
  C   C1801     1.0  0.25409  0.07878  0.21053  1.0000
  H   H1777     1.0  0.30321  0.39192  0.23021  1.0000
  C   C1802     1.0  0.25960  0.03271  0.23461  1.0000
  Fe  Fe295     1.0  0.46407  0.24626  0.19829  1.0000
  C   C1803     1.0  0.29064  0.35110  0.19537  1.0000
  C   C1804     1.0  0.48128  0.22474  0.22646  1.0000
  H   H1778     1.0  0.26199  0.14068  0.35162  1.0000
  H   H1779     1.0  0.24508  0.17106  0.33978  1.0000
  H   H1780     1.0  0.29442  0.37933  0.24269  1.0000
  H   H1781     1.0  0.29317  0.98915  0.27134  1.0000
  H   H1782     1.0  0.39021  0.17671  0.27691  1.0000
  C   C1805     1.0  0.43379  0.29246  0.20511  1.0000
  C   C1806     1.0  0.44296  0.28454  0.20424  1.0000
  C   C1807     1.0  0.39065  0.25840  0.19905  1.0000
  C   C1808     1.0  0.26183  0.26228  0.35806  1.0000
  H   H1783     1.0  0.29797  0.08106  0.28342  1.0000
  C   C1809     1.0  0.45299  0.16884  0.22203  1.0000
  C   C1810     1.0  0.32128  0.07627  0.26659  1.0000
  S   S584      1.0  0.24932  0.00940  0.22436  1.0000
  S   S585      1.0  0.26202  0.15415  0.36626  1.0000
  H   H1784     1.0  0.27689  0.46616  0.18407  1.0000
  H   H1785     1.0  0.31357  0.07871  0.18762  1.0000
  C   C1811     1.0  0.38280  0.12552  0.21712  1.0000
  C   C1812     1.0  0.32353  0.08634  0.26352  1.0000
  N   N150      1.0  0.24951  0.35694  0.21284  1.0000
  H   H1786     1.0  0.32058  0.38809  0.18017  1.0000
  N   N151      1.0  0.26725  0.15826  0.32568  1.0000
  H   H1787     1.0  0.25353  0.05303  0.22769  1.0000
  H   H1788     1.0  0.26299  0.03523  0.22637  1.0000
  H   H1789     1.0  0.26278  0.26894  0.36052  1.0000
  C   C1813     1.0  0.40722  0.19453  0.25341  1.0000
  C   C1814     1.0  0.24545  0.16071  0.32984  1.0000
  H   H1790     1.0  0.28150  0.18690  0.35469  1.0000
  H   H1791     1.0  0.25648  0.13699  0.25904  1.0000
  C   C1815     1.0  0.25227  0.25900  0.36150  1.0000
  H   H1792     1.0  0.29387  0.39633  0.20445  1.0000
  S   S586      1.0  0.29114  0.01158  0.26429  1.0000
  C   C1816     1.0  0.29945  0.34964  0.18715  1.0000
  H   H1793     1.0  0.30636  0.06174  0.28496  1.0000
  C   C1817     1.0  0.38581  0.25132  0.19708  1.0000
  H   H1794     1.0  0.26137  0.42928  0.29226  1.0000
  C   C1818     1.0  0.30967  0.06398  0.27639  1.0000
  C   C1819     1.0  0.28265  0.00528  0.25093  1.0000
  H   H1795     1.0  0.25663  0.01024  0.25297  1.0000
  H   H1796     1.0  0.47844  0.21121  0.22281  1.0000
  C   C1820     1.0  0.31645  0.09455  0.26778  1.0000
  C   C1821     1.0  0.25045  0.03678  0.25118  1.0000
  Fe  Fe296     1.0  0.48415  0.19177  0.26036  1.0000
  S   S587      1.0  0.26012  0.37406  0.28202  1.0000
  C   C1822     1.0  0.40034  0.26026  0.19270  1.0000
  H   H1797     1.0  0.32151  0.00095  0.24277  1.0000
  H   H1798     1.0  0.27524  0.24448  0.34292  1.0000
  H   H1799     1.0  0.29349  0.37511  0.18590  1.0000
  N   N152      1.0  0.40487  0.18127  0.26932  1.0000
  H   H1800     1.0  0.40446  0.19929  0.24640  1.0000
  H   H1801     1.0  0.43517  0.17139  0.20725  1.0000
  H   H1802     1.0  0.29884  0.34703  0.18046  1.0000
  H   H1803     1.0  0.28291  0.14970  0.32060  1.0000
  Fe  Fe297     1.0  0.27865  0.14949  0.35744  1.0000
  C   C1823     1.0  0.25244  0.11595  0.21439  1.0000
  C   C1824     1.0  0.26999  0.05344  0.18277  1.0000
  H   H1804     1.0  0.24259  0.38215  0.33314  1.0000
  S   S588      1.0  0.24441  0.35871  0.29820  1.0000
  H   H1805     1.0  0.25823  0.36462  0.19846  1.0000
  C   C1825     1.0  0.40143  0.18738  0.26049  1.0000
  H   H1806     1.0  0.40133  0.16612  0.27372  1.0000
  S   S589      1.0  0.24449  0.43793  0.23276  1.0000
  C   C1826     1.0  0.38354  0.14164  0.20333  1.0000
  C   C1827     1.0  0.40993  0.18379  0.19263  1.0000
  C   C1828     1.0  0.30262  0.46789  0.22401  1.0000
  S   S590      1.0  0.28320  0.22265  0.35492  1.0000
  C   C1829     1.0  0.28958  0.11320  0.24729  1.0000
  C   C1830     1.0  0.44762  0.17283  0.21378  1.0000
  H   H1807     1.0  0.38149  0.12391  0.22585  1.0000
  N   N153      1.0  0.25460  0.03998  0.24070  1.0000
  C   C1831     1.0  0.30517  0.08248  0.27781  1.0000
  N   N154      1.0  0.25092  0.32606  0.31846  1.0000
  S   S591      1.0  0.24289  0.38216  0.30230  1.0000
  H   H1808     1.0  0.40610  0.18598  0.20011  1.0000
  H   H1809     1.0  0.30370  0.06157  0.21188  1.0000
  H   H1810     1.0  0.45921  0.17239  0.22239  1.0000
  H   H1811     1.0  0.28649  0.27900  0.36820  1.0000
  C   C1832     1.0  0.39882  0.17365  0.27650  1.0000
  H   H1812     1.0  0.40009  0.17211  0.28466  1.0000
  H   H1813     1.0  0.42890  0.27722  0.19220  1.0000
  C   C1833     1.0  0.26850  0.45365  0.18738  1.0000
  H   H1814     1.0  0.45411  0.21627  0.22665  1.0000
  H   H1815     1.0  0.29249  0.45615  0.21461  1.0000
  S   S592      1.0  0.30208  0.22942  0.36847  1.0000
  H   H1816     1.0  0.44976  0.17941  0.20757  1.0000
  C   C1834     1.0  0.28956  0.99154  0.26456  1.0000
  C   C1835     1.0  0.49015  0.23616  0.21228  1.0000
  H   H1817     1.0  0.29306  0.12458  0.36608  1.0000
  C   C1836     1.0  0.25453  0.36830  0.33652  1.0000
  H   H1818     1.0  0.39415  0.18677  0.25890  1.0000
  H   H1819     1.0  0.33369  0.33664  0.19122  1.0000
  S   S593      1.0  0.40648  0.26912  0.19495  1.0000
  S   S594      1.0  0.45678  0.23318  0.20913  1.0000
  C   C1837     1.0  0.30789  0.39288  0.19261  1.0000
  S   S595      1.0  0.38488  0.23685  0.18667  1.0000
  H   H1820     1.0  0.26441  0.16890  0.33586  1.0000
  H   H1821     1.0  0.28035  0.36540  0.32412  1.0000
  S   S596      1.0  0.27912  0.42558  0.18795  1.0000
  C   C1838     1.0  0.26831  0.37955  0.32152  1.0000
  H   H1822     1.0  0.26404  0.33346  0.31222  1.0000
  H   H1823     1.0  0.39735  0.16073  0.19914  1.0000
  H   H1824     1.0  0.24997  0.13208  0.23896  1.0000
  C   C1839     1.0  0.28951  0.12128  0.37439  1.0000
  H   H1825     1.0  0.37511  0.12593  0.21524  1.0000
  H   H1826     1.0  0.42532  0.16283  0.18242  1.0000
  H   H1827     1.0  0.32417  0.23077  0.37484  1.0000
  C   C1840     1.0  0.24352  0.34875  0.33492  1.0000
  C   C1841     1.0  0.25391  0.39507  0.31887  1.0000
  S   S597      1.0  0.30092  0.25926  0.36652  1.0000
  H   H1828     1.0  0.25042  0.39501  0.31231  1.0000
  C   C1842     1.0  0.28462  0.09803  0.26006  1.0000
  H   H1829     1.0  0.28114  0.16393  0.31754  1.0000
  C   C1843     1.0  0.25320  0.12700  0.24586  1.0000
  H   H1830     1.0  0.40270  0.14922  0.21537  1.0000
  H   H1831     1.0  0.31354  0.47681  0.22461  1.0000
  H   H1832     1.0  0.43022  0.29054  0.18578  1.0000
  Fe  Fe298     1.0  0.48392  0.25493  0.18761  1.0000
  C   C1844     1.0  0.25930  0.42275  0.29061  1.0000
  C   C1845     1.0  0.30237  0.99490  0.22563  1.0000
  H   H1833     1.0  0.25020  0.08167  0.30750  1.0000
  C   C1846     1.0  0.24790  0.41608  0.28400  1.0000
  S   S598      1.0  0.33104  0.21049  0.36680  1.0000
  H   H1834     1.0  0.25254  0.44579  0.21080  1.0000
  C   C1847     1.0  0.24995  0.06366  0.17903  1.0000
  H   H1835     1.0  0.26160  0.05327  0.23634  1.0000
  H   H1836     1.0  0.26989  0.47017  0.20175  1.0000
  C   C1848     1.0  0.48382  0.24100  0.22948  1.0000
  H   H1837     1.0  0.25057  0.07002  0.29596  1.0000
  H   H1838     1.0  0.25402  0.24067  0.34038  1.0000
  S   S599      1.0  0.28592  0.14935  0.37070  1.0000
  C   C1849     1.0  0.31211  0.46901  0.22554  1.0000
  S   S600      1.0  0.24290  0.43736  0.28365  1.0000
  C   C1850     1.0  0.30253  0.98417  0.22947  1.0000
  C   C1851     1.0  0.31057  0.07147  0.17666  1.0000
  H   H1839     1.0  0.24422  0.17704  0.37311  1.0000
  H   H1840     1.0  0.24849  0.14997  0.31949  1.0000
  C   C1852     1.0  0.24426  0.31350  0.33349  1.0000
  C   C1853     1.0  0.28739  0.26224  0.37201  1.0000
  H   H1841     1.0  0.24450  0.14112  0.27547  1.0000
  H   H1842     1.0  0.24227  0.06758  0.17733  1.0000
  C   C1854     1.0  0.26982  0.98513  0.19764  1.0000
  H   H1843     1.0  0.24539  0.30580  0.33872  1.0000
  N   N155      1.0  0.30943  0.99519  0.24013  1.0000
  H   H1844     1.0  0.27863  0.11733  0.36264  1.0000
  Fe  Fe299     1.0  0.27554  0.35939  0.17861  1.0000
  C   C1855     1.0  0.48680  0.22064  0.20920  1.0000
  C   C1856     1.0  0.27362  0.12073  0.36920  1.0000
  Fe  Fe300     1.0  0.24482  0.03053  0.19937  1.0000
  H   H1845     1.0  0.29680  0.47495  0.22181  1.0000
  H   H1846     1.0  0.27190  0.45151  0.17978  1.0000
  H   H1847     1.0  0.24777  0.02352  0.26404  1.0000
  H   H1848     1.0  0.24273  0.06704  0.28340  1.0000
  H   H1849     1.0  0.48126  0.23735  0.23794  1.0000
  C   C1857     1.0  0.26265  0.12259  0.37050  1.0000
  C   C1858     1.0  0.28716  0.98384  0.26077  1.0000
  H   H1850     1.0  0.25925  0.12060  0.36503  1.0000
  H   H1851     1.0  0.25440  0.19907  0.37220  1.0000
  C   C1859     1.0  0.24297  0.08156  0.30543  1.0000
  H   H1852     1.0  0.24105  0.41739  0.28071  1.0000
  C   C1860     1.0  0.24097  0.40348  0.25675  1.0000
  C   C1861     1.0  0.24089  0.09498  0.19960  1.0000
  N   N156      1.0  0.27798  0.12343  0.37591  1.0000
  S   S601      1.0  0.47538  0.26758  0.17618  1.0000
  H   H1853     1.0  0.27133  0.21866  0.38780  1.0000
  S   S602      1.0  0.32483  0.21787  0.56697  1.0000
  H   H1854     1.0  0.31057  0.20957  0.38104  1.0000
  H   H1855     1.0  0.26477  0.14136  0.41768  1.0000
  H   H1856     1.0  0.28177  0.24725  0.53577  1.0000
  H   H1857     1.0  0.25237  0.27608  0.48144  1.0000
  H   H1858     1.0  0.27211  0.23724  0.39945  1.0000
  H   H1859     1.0  0.25572  0.13356  0.39199  1.0000
  H   H1860     1.0  0.24534  0.23202  0.49209  1.0000
  Fe  Fe301     1.0  0.24829  0.28041  0.53948  1.0000
  H   H1861     1.0  0.30722  0.24258  0.38290  1.0000
  H   H1862     1.0  0.29258  0.22802  0.41385  1.0000
  C   C1862     1.0  0.29949  0.22850  0.40748  1.0000
  Fe  Fe302     1.0  0.24256  0.27485  0.52116  1.0000
  H   H1863     1.0  0.25020  0.21586  0.42317  1.0000
  Fe  Fe303     1.0  0.24483  0.28637  0.37736  1.0000
  S   S603      1.0  0.25401  0.26655  0.53171  1.0000
  Fe  Fe304     1.0  0.25041  0.25730  0.43816  1.0000
  H   H1864     1.0  0.29205  0.30443  0.56426  1.0000
  C   C1863     1.0  0.27611  0.21127  0.38535  1.0000
  S   S604      1.0  0.25965  0.28715  0.54413  1.0000
  H   H1865     1.0  0.34341  0.20544  0.55253  1.0000
  Fe  Fe305     1.0  0.30432  0.20642  0.50121  1.0000
  S   S605      1.0  0.29087  0.19959  0.51210  1.0000
  S   S606      1.0  0.31065  0.20375  0.48452  1.0000
  Fe  Fe306     1.0  0.30554  0.21866  0.51721  1.0000
  S   S607      1.0  0.29171  0.21333  0.52873  1.0000
  S   S608      1.0  0.31332  0.22925  0.52194  1.0000
  Fe  Fe307     1.0  0.29953  0.19753  0.52484  1.0000
  S   S609      1.0  0.30128  0.18411  0.53876  1.0000
  Fe  Fe308     1.0  0.28446  0.21597  0.51484  1.0000
  S   S610      1.0  0.26797  0.22381  0.51285  1.0000
  S   S611      1.0  0.31381  0.20271  0.51379  1.0000
  S   S612      1.0  0.29751  0.22302  0.50346  1.0000
  Fe  Fe309     1.0  0.28514  0.19379  0.44221  1.0000
  S   S613      1.0  0.29169  0.20516  0.42801  1.0000
  S   S614      1.0  0.28037  0.19713  0.45871  1.0000
  Fe  Fe310     1.0  0.28442  0.17892  0.42868  1.0000
  S   S615      1.0  0.29100  0.18898  0.41353  1.0000
  S   S616      1.0  0.28103  0.16326  0.42919  1.0000
  Fe  Fe311     1.0  0.30199  0.19082  0.42244  1.0000
  S   S617      1.0  0.31915  0.18991  0.41516  1.0000
  Fe  Fe312     1.0  0.28009  0.20233  0.42041  1.0000
  S   S618      1.0  0.27160  0.21575  0.40986  1.0000
  S   S619      1.0  0.29646  0.17950  0.43722  1.0000
  S   S620      1.0  0.27246  0.19221  0.43496  1.0000
  C   C1864     1.0  0.26862  0.24460  0.42263  1.0000
  C   C1865     1.0  0.27026  0.24545  0.41176  1.0000
  C   C1866     1.0  0.27099  0.23659  0.40782  1.0000
  C   C1867     1.0  0.27040  0.22686  0.41473  1.0000
  C   C1868     1.0  0.26903  0.22596  0.42556  1.0000
  C   C1869     1.0  0.26797  0.23487  0.42952  1.0000
  H   H1866     1.0  0.30861  0.28108  0.55453  1.0000
  H   H1867     1.0  0.26857  0.21843  0.43093  1.0000
  H   H1868     1.0  0.26672  0.23419  0.43793  1.0000
  C   C1870     1.0  0.30240  0.20120  0.47758  1.0000
  C   C1871     1.0  0.29213  0.19988  0.48243  1.0000
  C   C1872     1.0  0.28562  0.19831  0.47662  1.0000
  C   C1873     1.0  0.28928  0.19804  0.46588  1.0000
  C   C1874     1.0  0.29961  0.19920  0.46104  1.0000
  C   C1875     1.0  0.30613  0.20078  0.46687  1.0000
  H   H1869     1.0  0.28913  0.20016  0.49064  1.0000
  H   H1870     1.0  0.27764  0.19743  0.48043  1.0000
  H   H1871     1.0  0.30253  0.19904  0.45278  1.0000
  H   H1872     1.0  0.31408  0.20176  0.46305  1.0000
  H   H1873     1.0  0.25595  0.27672  0.42406  1.0000
  C   C1876     1.0  0.24219  0.21703  0.56856  1.0000
  C   C1877     1.0  0.25706  0.22779  0.54274  1.0000
  C   C1878     1.0  0.26271  0.22335  0.53404  1.0000
  C   C1879     1.0  0.25973  0.22738  0.52432  1.0000
  C   C1880     1.0  0.25065  0.23529  0.52347  1.0000
  H   H1874     1.0  0.26012  0.25403  0.50943  1.0000
  H   H1875     1.0  0.25969  0.22504  0.55011  1.0000
  H   H1876     1.0  0.26952  0.21701  0.53480  1.0000
  H   H1877     1.0  0.27133  0.27904  0.39640  1.0000
  H   H1878     1.0  0.32293  0.17355  0.40424  1.0000
  C   C1881     1.0  0.24396  0.22272  0.42523  1.0000
  C   C1882     1.0  0.32734  0.20441  0.38008  1.0000
  C   C1883     1.0  0.33525  0.19877  0.38561  1.0000
  C   C1884     1.0  0.33262  0.19433  0.39636  1.0000
  C   C1885     1.0  0.32205  0.19540  0.40164  1.0000
  C   C1886     1.0  0.31407  0.20084  0.39608  1.0000
  C   C1887     1.0  0.31673  0.20537  0.38530  1.0000
  H   H1879     1.0  0.34346  0.19799  0.38161  1.0000
  H   H1880     1.0  0.33881  0.19010  0.40061  1.0000
  H   H1881     1.0  0.30589  0.20176  0.40012  1.0000
  C   C1888     1.0  0.25563  0.19111  0.38813  1.0000
  C   C1889     1.0  0.27584  0.16049  0.41975  1.0000
  C   C1890     1.0  0.27635  0.16655  0.40944  1.0000
  C   C1891     1.0  0.27295  0.16330  0.40198  1.0000
  C   C1892     1.0  0.26874  0.15419  0.40494  1.0000
  N   N157      1.0  0.26920  0.20417  0.38625  1.0000
  C   C1893     1.0  0.27169  0.15141  0.42258  1.0000
  H   H1882     1.0  0.27960  0.17355  0.40716  1.0000
  H   H1883     1.0  0.27354  0.16785  0.39400  1.0000
  H   H1884     1.0  0.29134  0.30156  0.55212  1.0000
  C   C1894     1.0  0.26371  0.17293  0.56725  1.0000
  H   H1885     1.0  0.24826  0.23837  0.51598  1.0000
  C   C1895     1.0  0.24850  0.23631  0.54162  1.0000
  C   C1896     1.0  0.25842  0.29951  0.56884  1.0000
  C   C1897     1.0  0.26212  0.29497  0.55992  1.0000
  C   C1898     1.0  0.25516  0.29168  0.55599  1.0000
  C   C1899     1.0  0.33586  0.19810  0.54499  1.0000
  C   C1900     1.0  0.26011  0.19042  0.39656  1.0000
  H   H1886     1.0  0.24541  0.25664  0.40642  1.0000
  H   H1887     1.0  0.27032  0.29423  0.55591  1.0000
  C   C1901     1.0  0.26803  0.14837  0.41529  1.0000
  C   C1902     1.0  0.28177  0.25419  0.37657  1.0000
  H   H1888     1.0  0.32858  0.18876  0.52831  1.0000
  C   C1903     1.0  0.31983  0.22229  0.55525  1.0000
  C   C1904     1.0  0.32192  0.23145  0.54793  1.0000
  C   C1905     1.0  0.31951  0.23371  0.53789  1.0000
  C   C1906     1.0  0.31487  0.22693  0.53511  1.0000
  C   C1907     1.0  0.31223  0.21811  0.54266  1.0000
  C   C1908     1.0  0.31478  0.21575  0.55263  1.0000
  H   H1889     1.0  0.32588  0.23650  0.54980  1.0000
  H   H1890     1.0  0.32157  0.24057  0.53213  1.0000
  H   H1891     1.0  0.30857  0.21287  0.54069  1.0000
  H   H1892     1.0  0.31312  0.20866  0.55823  1.0000
  C   C1909     1.0  0.24731  0.31661  0.54390  1.0000
  C   C1910     1.0  0.29226  0.18339  0.55960  1.0000
  C   C1911     1.0  0.29091  0.18724  0.54922  1.0000
  C   C1912     1.0  0.28132  0.19372  0.54723  1.0000
  C   C1913     1.0  0.27312  0.19645  0.55559  1.0000
  H   H1893     1.0  0.29968  0.17839  0.56115  1.0000
  H   H1894     1.0  0.28015  0.19652  0.53923  1.0000
  H   H1895     1.0  0.26571  0.20144  0.55398  1.0000
  H   H1896     1.0  0.24125  0.30819  0.53622  1.0000
  C   C1914     1.0  0.24503  0.24081  0.41548  1.0000
  H   H1897     1.0  0.34048  0.22062  0.52074  1.0000
  H   H1898     1.0  0.29721  0.24506  0.51318  1.0000
  C   C1915     1.0  0.24735  0.29273  0.42279  1.0000
  H   H1899     1.0  0.27508  0.13002  0.38945  1.0000
  C   C1916     1.0  0.25786  0.19849  0.37880  1.0000
  C   C1917     1.0  0.25738  0.29529  0.40172  1.0000
  C   C1918     1.0  0.25364  0.22968  0.49311  1.0000
  C   C1919     1.0  0.30778  0.23660  0.39007  1.0000
  C   C1920     1.0  0.31133  0.29606  0.57552  1.0000
  H   H1900     1.0  0.31786  0.19476  0.53761  1.0000
  C   C1921     1.0  0.31170  0.16163  0.41992  1.0000
  H   H1901     1.0  0.32099  0.17969  0.38571  1.0000
  C   C1922     1.0  0.30857  0.17145  0.38803  1.0000
  H   H1902     1.0  0.26146  0.27147  0.40351  1.0000
  H   H1903     1.0  0.27027  0.19660  0.40213  1.0000
  C   C1923     1.0  0.24506  0.30248  0.41601  1.0000
  H   H1904     1.0  0.32777  0.18374  0.54213  1.0000
  H   H1905     1.0  0.27865  0.23488  0.53614  1.0000
  N   N158      1.0  0.31710  0.22959  0.39108  1.0000
  N   N159      1.0  0.24313  0.23122  0.41586  1.0000
  H   H1906     1.0  0.25518  0.31524  0.53900  1.0000
  H   H1907     1.0  0.24804  0.21113  0.56481  1.0000
  C   C1924     1.0  0.29883  0.23615  0.39822  1.0000
  N   N160      1.0  0.29455  0.28811  0.56419  1.0000
  H   H1908     1.0  0.28851  0.15796  0.56390  1.0000
  C   C1925     1.0  0.26483  0.22487  0.46578  1.0000
  H   H1909     1.0  0.27070  0.25296  0.40640  1.0000
  H   H1910     1.0  0.32526  0.21662  0.40107  1.0000
  C   C1926     1.0  0.31600  0.17464  0.39129  1.0000
  C   C1927     1.0  0.27173  0.22604  0.48297  1.0000
  H   H1911     1.0  0.24764  0.12886  0.37975  1.0000
  C   C1928     1.0  0.30222  0.16495  0.39529  1.0000
  H   H1912     1.0  0.33279  0.22318  0.38341  1.0000
  H   H1913     1.0  0.29305  0.25276  0.49555  1.0000
  C   C1929     1.0  0.30186  0.27978  0.56086  1.0000
  C   C1930     1.0  0.26689  0.19710  0.39550  1.0000
  C   C1931     1.0  0.27096  0.25667  0.38098  1.0000
  S   S621      1.0  0.26421  0.14970  0.39611  1.0000
  C   C1932     1.0  0.31699  0.17124  0.40181  1.0000
  C   C1933     1.0  0.24082  0.29750  0.56989  1.0000
  H   H1914     1.0  0.29204  0.12498  0.37947  1.0000
  C   C1934     1.0  0.26571  0.26720  0.38054  1.0000
  C   C1935     1.0  0.32642  0.19109  0.53605  1.0000
  H   H1915     1.0  0.27430  0.25742  0.49363  1.0000
  H   H1916     1.0  0.27451  0.22616  0.48978  1.0000
  H   H1917     1.0  0.28059  0.21331  0.37716  1.0000
  H   H1918     1.0  0.34667  0.21977  0.53683  1.0000
  H   H1919     1.0  0.27129  0.14667  0.43050  1.0000
  N   N161      1.0  0.31052  0.16513  0.40894  1.0000
  C   C1936     1.0  0.34295  0.21368  0.53652  1.0000
  C   C1937     1.0  0.27167  0.12785  0.38410  1.0000
  C   C1938     1.0  0.27911  0.22394  0.47386  1.0000
  H   H1920     1.0  0.28128  0.22115  0.45833  1.0000
  C   C1939     1.0  0.25447  0.28434  0.41880  1.0000
  S   S622      1.0  0.24385  0.24365  0.44889  1.0000
  H   H1921     1.0  0.24926  0.22845  0.47525  1.0000
  C   C1940     1.0  0.31788  0.22219  0.40021  1.0000
  H   H1922     1.0  0.30778  0.17392  0.37989  1.0000
  S   S623      1.0  0.25209  0.27021  0.38534  1.0000
  H   H1923     1.0  0.29647  0.16238  0.39278  1.0000
  C   C1941     1.0  0.28675  0.25136  0.50238  1.0000
  C   C1942     1.0  0.33951  0.21414  0.52749  1.0000
  H   H1924     1.0  0.29191  0.23666  0.53114  1.0000
  N   N162      1.0  0.26115  0.22772  0.48337  1.0000
  C   C1943     1.0  0.28907  0.24696  0.51238  1.0000
  C   C1944     1.0  0.24778  0.27013  0.48548  1.0000
  C   C1945     1.0  0.26830  0.25204  0.51015  1.0000
  C   C1946     1.0  0.33426  0.20650  0.52742  1.0000
  C   C1947     1.0  0.28351  0.24076  0.53153  1.0000
  H   H1925     1.0  0.30402  0.16067  0.42537  1.0000
  C   C1948     1.0  0.30100  0.26942  0.56589  1.0000
  C   C1949     1.0  0.29549  0.29892  0.55876  1.0000
  C   C1950     1.0  0.32633  0.23028  0.38239  1.0000
  C   C1951     1.0  0.27091  0.24759  0.51998  1.0000
  H   H1926     1.0  0.27169  0.27196  0.40964  1.0000
  C   C1952     1.0  0.26632  0.27662  0.40427  1.0000
  H   H1927     1.0  0.31450  0.16752  0.42231  1.0000
  H   H1928     1.0  0.26467  0.24622  0.52684  1.0000
  H   H1929     1.0  0.33126  0.20718  0.52051  1.0000
  H   H1930     1.0  0.31744  0.15398  0.42095  1.0000
  H   H1931     1.0  0.30972  0.21545  0.41564  1.0000
  C   C1953     1.0  0.27445  0.19263  0.56598  1.0000
  H   H1932     1.0  0.29835  0.15678  0.41140  1.0000
  C   C1954     1.0  0.24455  0.29276  0.56114  1.0000
  H   H1933     1.0  0.30705  0.26287  0.56346  1.0000
  C   C1955     1.0  0.30908  0.22149  0.40852  1.0000
  N   N163      1.0  0.25938  0.28569  0.40838  1.0000
  C   C1956     1.0  0.30332  0.16183  0.40578  1.0000
  C   C1957     1.0  0.27562  0.22325  0.46526  1.0000
  H   H1934     1.0  0.30391  0.29947  0.55576  1.0000
  H   H1935     1.0  0.29145  0.24170  0.39732  1.0000
  H   H1936     1.0  0.25441  0.22245  0.49945  1.0000
  H   H1937     1.0  0.27642  0.17138  0.55368  1.0000
  C   C1958     1.0  0.34114  0.20560  0.54533  1.0000
  S   S624      1.0  0.24530  0.30137  0.38125  1.0000
  C   C1959     1.0  0.28616  0.28642  0.57233  1.0000
  H   H1938     1.0  0.25043  0.18591  0.38881  1.0000
  C   C1960     1.0  0.24494  0.26453  0.47960  1.0000
  H   H1939     1.0  0.25524  0.23616  0.49570  1.0000
  C   C1961     1.0  0.27628  0.25392  0.50129  1.0000
  C   C1962     1.0  0.25765  0.22719  0.47492  1.0000
  H   H1940     1.0  0.33414  0.19210  0.55200  1.0000
  N   N164      1.0  0.28117  0.24502  0.52100  1.0000
  N   N165      1.0  0.33255  0.19858  0.53608  1.0000
  S   S625      1.0  0.26649  0.25582  0.42770  1.0000
  H   H1941     1.0  0.28575  0.24606  0.37679  1.0000
  H   H1942     1.0  0.26208  0.22412  0.45920  1.0000
  H   H1943     1.0  0.25839  0.18472  0.40386  1.0000
  C   C1963     1.0  0.24457  0.26823  0.49651  1.0000
  H   H1944     1.0  0.24335  0.29157  0.43102  1.0000
  C   C1964     1.0  0.25615  0.12722  0.37874  1.0000
  H   H1945     1.0  0.24593  0.22527  0.43152  1.0000
  Fe  Fe313     1.0  0.26946  0.15572  0.37876  1.0000
  H   H1946     1.0  0.32933  0.23738  0.38176  1.0000
  S   S626      1.0  0.32685  0.26695  0.57163  1.0000
  H   H1947     1.0  0.28751  0.22241  0.47363  1.0000
  H   H1948     1.0  0.26126  0.29636  0.39347  1.0000
  H   H1949     1.0  0.26660  0.25046  0.38445  1.0000
  C   C1965     1.0  0.29256  0.26762  0.57432  1.0000
  C   C1966     1.0  0.28405  0.18613  0.56796  1.0000
  H   H1950     1.0  0.24827  0.31132  0.40002  1.0000
  C   C1967     1.0  0.26465  0.20506  0.37802  1.0000
  H   H1951     1.0  0.26370  0.30236  0.57166  1.0000
  C   C1968     1.0  0.28060  0.16103  0.56794  1.0000
  C   C1969     1.0  0.24511  0.23983  0.53209  1.0000
  C   C1970     1.0  0.26067  0.12984  0.38561  1.0000
  H   H1952     1.0  0.28051  0.29304  0.57507  1.0000
  H   H1953     1.0  0.25849  0.17910  0.56287  1.0000
  C   C1971     1.0  0.24773  0.30090  0.57374  1.0000
  H   H1954     1.0  0.24739  0.26616  0.47111  1.0000
  S   S627      1.0  0.24314  0.24362  0.55143  1.0000
  C   C1972     1.0  0.27378  0.16861  0.56210  1.0000
  C   C1973     1.0  0.24519  0.32174  0.55219  1.0000
  C   C1974     1.0  0.31891  0.28754  0.57227  1.0000
  S   S628      1.0  0.24785  0.27594  0.50344  1.0000
  S   S629      1.0  0.24390  0.26803  0.44958  1.0000
  C   C1975     1.0  0.24399  0.24902  0.40666  1.0000
  H   H1955     1.0  0.28202  0.20755  0.39038  1.0000
  H   H1956     1.0  0.31226  0.30402  0.57173  1.0000
  H   H1957     1.0  0.24721  0.24221  0.42208  1.0000
  H   H1958     1.0  0.32564  0.28897  0.56598  1.0000
  H   H1959     1.0  0.25139  0.32447  0.55376  1.0000
  C   C1976     1.0  0.25012  0.30381  0.40541  1.0000
  H   H1960     1.0  0.28519  0.18318  0.57588  1.0000
  C   C1977     1.0  0.24084  0.24742  0.39827  1.0000
  H   H1961     1.0  0.29270  0.11265  0.37621  1.0000
  Fe  Fe314     1.0  0.27860  0.18583  0.60907  1.0000
  S   S630      1.0  0.28057  0.17644  0.59703  1.0000
  S   S631      1.0  0.29312  0.18875  0.61190  1.0000
  Fe  Fe315     1.0  0.25513  0.18743  0.61547  1.0000
  H   H1962     1.0  0.27736  0.22207  0.57796  1.0000
  H   H1963     1.0  0.35488  0.26392  0.61702  1.0000
  Fe  Fe316     1.0  0.26926  0.16769  0.60922  1.0000
  S   S632      1.0  0.27320  0.15015  0.61119  1.0000
  Fe  Fe317     1.0  0.26608  0.18780  0.59273  1.0000
  H   H1964     1.0  0.28127  0.20255  0.58071  1.0000
  S   S633      1.0  0.26864  0.17597  0.62177  1.0000
  S   S634      1.0  0.26503  0.19803  0.60372  1.0000
  H   H1965     1.0  0.39811  0.19130  0.75650  1.0000
  S   S635      1.0  0.32340  0.24557  0.59760  1.0000
  C   C1978     1.0  0.26453  0.48017  0.71599  1.0000
  H   H1966     1.0  0.28073  0.47608  0.72550  1.0000
  C   C1979     1.0  0.30237  0.29437  0.58334  1.0000
  H   H1967     1.0  0.27680  0.04520  0.68132  1.0000
  C   C1980     1.0  0.27021  0.01443  0.73869  1.0000
  S   S636      1.0  0.29578  0.23596  0.60541  1.0000
  C   C1981     1.0  0.41420  0.22608  0.73021  1.0000
  S   S637      1.0  0.30199  0.99573  0.70307  1.0000
  N   N166      1.0  0.40463  0.19951  0.67844  1.0000
  H   H1968     1.0  0.40011  0.22875  0.72428  1.0000
  H   H1969     1.0  0.33101  0.06668  0.67432  1.0000
  Fe  Fe318     1.0  0.26177  0.29296  0.61361  1.0000
  C   C1982     1.0  0.28686  0.20648  0.58176  1.0000
  S   S638      1.0  0.25850  0.27858  0.62581  1.0000
  H   H1970     1.0  0.26621  0.36533  0.75117  1.0000
  Fe  Fe319     1.0  0.25855  0.31675  0.61002  1.0000
  S   S639      1.0  0.25157  0.33083  0.61777  1.0000
  C   C1983     1.0  0.24843  0.32168  0.64910  1.0000
  S   S640      1.0  0.27218  0.30350  0.61366  1.0000
  Fe  Fe320     1.0  0.30934  0.35394  0.73154  1.0000
  S   S641      1.0  0.31917  0.36231  0.73606  1.0000
  S   S642      1.0  0.29996  0.34272  0.74304  1.0000
  Fe  Fe321     1.0  0.31337  0.36535  0.70866  1.0000
  S   S643      1.0  0.32394  0.37446  0.71113  1.0000
  S   S644      1.0  0.30857  0.36882  0.69315  1.0000
  Fe  Fe322     1.0  0.33058  0.35890  0.72110  1.0000
  S   S645      1.0  0.34744  0.35128  0.72271  1.0000
  Fe  Fe323     1.0  0.31166  0.37698  0.72580  1.0000
  S   S646      1.0  0.30110  0.39230  0.72962  1.0000
  S   S647      1.0  0.32102  0.34966  0.71725  1.0000
  S   S648      1.0  0.30079  0.36869  0.72263  1.0000
  Fe  Fe324     1.0  0.26486  0.35405  0.65762  1.0000
  S   S649      1.0  0.25688  0.34696  0.67382  1.0000
  S   S650      1.0  0.27456  0.34310  0.64678  1.0000
  Fe  Fe325     1.0  0.25619  0.37643  0.66135  1.0000
  S   S651      1.0  0.28124  0.47785  0.76382  1.0000
  S   S652      1.0  0.25560  0.39338  0.65315  1.0000
  Fe  Fe326     1.0  0.26184  0.35884  0.67935  1.0000
  S   S653      1.0  0.26680  0.35455  0.69495  1.0000
  H   H1971     1.0  0.26319  0.10327  0.76272  1.0000
  S   S654      1.0  0.27132  0.36476  0.66335  1.0000
  S   S655      1.0  0.25064  0.36634  0.65407  1.0000
  S   S656      1.0  0.28904  0.45810  0.74313  1.0000
  S   S657      1.0  0.26201  0.45941  0.73610  1.0000
  S   S658      1.0  0.30878  0.42928  0.74572  1.0000
  C   C1984     1.0  0.32414  0.10029  0.68035  1.0000
  H   H1972     1.0  0.37701  0.21325  0.75248  1.0000
  N   N167      1.0  0.48890  0.22502  0.72406  1.0000
  S   S659      1.0  0.26610  0.42373  0.71237  1.0000
  C   C1985     1.0  0.38448  0.16916  0.77522  1.0000
  H   H1973     1.0  0.28671  0.99144  0.67539  1.0000
  Fe  Fe327     1.0  0.38569  0.30135  0.70516  1.0000
  S   S660      1.0  0.38077  0.28578  0.71137  1.0000
  S   S661      1.0  0.37426  0.31538  0.69801  1.0000
  Fe  Fe328     1.0  0.40740  0.29242  0.71053  1.0000
  S   S662      1.0  0.40409  0.27637  0.71754  1.0000
  S   S663      1.0  0.42378  0.29492  0.70843  1.0000
  Fe  Fe329     1.0  0.39709  0.27858  0.70357  1.0000
  S   S664      1.0  0.40260  0.26455  0.69576  1.0000
  Fe  Fe330     1.0  0.38817  0.28488  0.72469  1.0000
  S   S665      1.0  0.38007  0.27911  0.74123  1.0000
  S   S666      1.0  0.40143  0.29427  0.69595  1.0000
  S   S667      1.0  0.39207  0.30090  0.71907  1.0000
  Fe  Fe331     1.0  0.37407  0.23784  0.64507  1.0000
  S   S668      1.0  0.36662  0.23243  0.66206  1.0000
  S   S669      1.0  0.36223  0.24465  0.63420  1.0000
  Fe  Fe332     1.0  0.39601  0.23282  0.65068  1.0000
  S   S670      1.0  0.39005  0.22681  0.66781  1.0000
  S   S671      1.0  0.41334  0.23294  0.64473  1.0000
  Fe  Fe333     1.0  0.38062  0.21901  0.66201  1.0000
  S   S672      1.0  0.37913  0.20225  0.66844  1.0000
  Fe  Fe334     1.0  0.37680  0.24094  0.66600  1.0000
  S   S673      1.0  0.37012  0.25147  0.67772  1.0000
  S   S674      1.0  0.38762  0.22379  0.64487  1.0000
  S   S675      1.0  0.38325  0.24755  0.64906  1.0000
  Fe  Fe335     1.0  0.37667  0.16766  0.74397  1.0000
  S   S676      1.0  0.38814  0.15480  0.73668  1.0000
  S   S677      1.0  0.37414  0.16772  0.76108  1.0000
  Fe  Fe336     1.0  0.36910  0.17864  0.72383  1.0000
  S   S678      1.0  0.37989  0.16664  0.71481  1.0000
  S   S679      1.0  0.35936  0.19402  0.71705  1.0000
  Fe  Fe337     1.0  0.37489  0.15461  0.72940  1.0000
  S   S680      1.0  0.36963  0.13909  0.73231  1.0000
  Fe  Fe338     1.0  0.39193  0.16802  0.72294  1.0000
  S   S681      1.0  0.40826  0.17033  0.71390  1.0000
  S   S682      1.0  0.36320  0.16669  0.73773  1.0000
  S   S683      1.0  0.38141  0.18078  0.73089  1.0000
  S   S684      1.0  0.46316  0.25514  0.73396  1.0000
  H   H1974     1.0  0.47437  0.23573  0.72260  1.0000
  Fe  Fe339     1.0  0.46313  0.26661  0.74319  1.0000
  S   S685      1.0  0.44738  0.27773  0.74655  1.0000
  Fe  Fe340     1.0  0.47958  0.25713  0.72632  1.0000
  S   S686      1.0  0.43686  0.22402  0.69587  1.0000
  Fe  Fe341     1.0  0.27421  0.09771  0.68157  1.0000
  S   S687      1.0  0.26979  0.09871  0.66637  1.0000
  S   S688      1.0  0.26784  0.08653  0.69603  1.0000
  Fe  Fe342     1.0  0.28871  0.11295  0.67154  1.0000
  S   S689      1.0  0.28580  0.11516  0.65551  1.0000
  S   S690      1.0  0.30077  0.12097  0.67265  1.0000
  Fe  Fe343     1.0  0.26886  0.11606  0.66375  1.0000
  S   S691      1.0  0.24116  0.19463  0.62649  1.0000
  Fe  Fe344     1.0  0.28706  0.09771  0.65961  1.0000
  S   S692      1.0  0.29637  0.08804  0.64774  1.0000
  S   S693      1.0  0.27161  0.11522  0.67962  1.0000
  S   S694      1.0  0.29160  0.09538  0.67501  1.0000
  Fe  Fe345     1.0  0.33791  0.10642  0.71729  1.0000
  S   S695      1.0  0.32490  0.11225  0.73000  1.0000
  S   S696      1.0  0.35241  0.11364  0.71026  1.0000
  Fe  Fe346     1.0  0.32692  0.08944  0.71597  1.0000
  S   S697      1.0  0.31326  0.09377  0.72880  1.0000
  S   S698      1.0  0.32678  0.07864  0.70558  1.0000
  Fe  Fe347     1.0  0.31400  0.11046  0.72099  1.0000
  S   S699      1.0  0.29798  0.12036  0.71986  1.0000
  Fe  Fe348     1.0  0.32506  0.09515  0.73701  1.0000
  H   H1975     1.0  0.34249  0.09459  0.74335  1.0000
  S   S700      1.0  0.32688  0.10625  0.70739  1.0000
  S   S701      1.0  0.33904  0.08914  0.72493  1.0000
  C   C1986     1.0  0.25127  0.09417  0.72363  1.0000
  Fe  Fe349     1.0  0.30064  0.03313  0.70723  1.0000
  S   S702      1.0  0.29267  0.04448  0.69485  1.0000
  S   S703      1.0  0.30291  0.04044  0.71962  1.0000
  H   H1976     1.0  0.26505  0.15939  0.59217  1.0000
  S   S704      1.0  0.29137  0.02394  0.68658  1.0000
  Fe  Fe350     1.0  0.30308  0.03401  0.68406  1.0000
  S   S705      1.0  0.31149  0.03999  0.66755  1.0000
  Fe  Fe351     1.0  0.28190  0.03334  0.69864  1.0000
  S   S706      1.0  0.26440  0.03903  0.70204  1.0000
  S   S707      1.0  0.31194  0.02315  0.69619  1.0000
  S   S708      1.0  0.28900  0.02256  0.71186  1.0000
  C   C1987     1.0  0.25914  0.04134  0.73614  1.0000
  C   C1988     1.0  0.26666  0.04612  0.72840  1.0000
  C   C1989     1.0  0.26803  0.04568  0.71786  1.0000
  C   C1990     1.0  0.26171  0.04065  0.71500  1.0000
  C   C1991     1.0  0.25408  0.03599  0.72270  1.0000
  C   C1992     1.0  0.25290  0.03621  0.73330  1.0000
  H   H1977     1.0  0.24939  0.03185  0.72054  1.0000
  H   H1978     1.0  0.24828  0.14906  0.64525  1.0000
  C   C1993     1.0  0.41042  0.23913  0.71472  1.0000
  H   H1979     1.0  0.30685  0.22021  0.58559  1.0000
  S   S709      1.0  0.29249  0.30549  0.58583  1.0000
  C   C1994     1.0  0.32005  0.06806  0.70978  1.0000
  C   C1995     1.0  0.31442  0.06537  0.72012  1.0000
  C   C1996     1.0  0.30919  0.05690  0.72305  1.0000
  C   C1997     1.0  0.30942  0.05115  0.71566  1.0000
  C   C1998     1.0  0.31483  0.05401  0.70528  1.0000
  C   C1999     1.0  0.32019  0.06235  0.70240  1.0000
  H   H1980     1.0  0.31424  0.06968  0.72589  1.0000
  H   H1981     1.0  0.30504  0.05472  0.73111  1.0000
  H   H1982     1.0  0.31511  0.04962  0.69953  1.0000
  H   H1983     1.0  0.32458  0.06424  0.69443  1.0000
  C   C2000     1.0  0.29933  0.12204  0.68561  1.0000
  C   C2001     1.0  0.30715  0.12515  0.68835  1.0000
  C   C2002     1.0  0.30645  0.12520  0.69889  1.0000
  C   C2003     1.0  0.29782  0.12237  0.70660  1.0000
  C   C2004     1.0  0.28980  0.11968  0.70379  1.0000
  C   C2005     1.0  0.29064  0.11935  0.69331  1.0000
  H   H1984     1.0  0.31390  0.12725  0.68241  1.0000
  H   H1985     1.0  0.31267  0.12730  0.70108  1.0000
  H   H1986     1.0  0.28323  0.11735  0.70979  1.0000
  H   H1987     1.0  0.28466  0.11681  0.69129  1.0000
  C   C2006     1.0  0.30113  0.07490  0.65347  1.0000
  C   C2007     1.0  0.29839  0.07119  0.66436  1.0000
  C   C2008     1.0  0.30191  0.06055  0.66880  1.0000
  C   C2009     1.0  0.30801  0.05356  0.66237  1.0000
  C   C2010     1.0  0.31099  0.05735  0.65152  1.0000
  C   C2011     1.0  0.30754  0.06801  0.64707  1.0000
  H   H1988     1.0  0.29331  0.07639  0.66934  1.0000
  H   H1989     1.0  0.29981  0.05780  0.67716  1.0000
  H   H1990     1.0  0.31576  0.05198  0.64651  1.0000
  H   H1991     1.0  0.30970  0.07086  0.63864  1.0000
  C   C2012     1.0  0.26463  0.10465  0.71671  1.0000
  C   C2013     1.0  0.26834  0.09995  0.70793  1.0000
  C   C2014     1.0  0.26356  0.09227  0.70707  1.0000
  C   C2015     1.0  0.25519  0.08921  0.71505  1.0000
  H   H1992     1.0  0.26820  0.11068  0.71735  1.0000
  H   H1993     1.0  0.27491  0.10221  0.70186  1.0000
  Fe  Fe352     1.0  0.24301  0.35992  0.67058  1.0000
  C   C2016     1.0  0.46451  0.26186  0.70790  1.0000
  C   C2017     1.0  0.45557  0.26001  0.70580  1.0000
  H   H1994     1.0  0.46370  0.26818  0.71178  1.0000
  H   H1995     1.0  0.44790  0.26496  0.70801  1.0000
  C   C2018     1.0  0.36305  0.13546  0.72448  1.0000
  C   C2019     1.0  0.35346  0.13222  0.72924  1.0000
  C   C2020     1.0  0.34965  0.12616  0.72460  1.0000
  C   C2021     1.0  0.35548  0.12319  0.71518  1.0000
  C   C2022     1.0  0.36470  0.12702  0.71007  1.0000
  C   C2023     1.0  0.36848  0.13311  0.71469  1.0000
  H   H1996     1.0  0.34926  0.13387  0.73686  1.0000
  H   H1997     1.0  0.34252  0.12332  0.72860  1.0000
  H   H1998     1.0  0.36927  0.12480  0.70278  1.0000
  H   H1999     1.0  0.37599  0.13533  0.71104  1.0000
  C   C2024     1.0  0.41342  0.18034  0.71575  1.0000
  C   C2025     1.0  0.40905  0.18509  0.72444  1.0000
  C   C2026     1.0  0.41381  0.19245  0.72610  1.0000
  C   C2027     1.0  0.42289  0.19522  0.71903  1.0000
  C   C2028     1.0  0.42710  0.19069  0.71020  1.0000
  C   C2029     1.0  0.42243  0.18321  0.70862  1.0000
  H   H2000     1.0  0.40227  0.18279  0.73013  1.0000
  H   H2001     1.0  0.41052  0.19589  0.73298  1.0000
  H   H2002     1.0  0.42588  0.17956  0.70190  1.0000
  C   C2030     1.0  0.37321  0.20024  0.68184  1.0000
  C   C2031     1.0  0.37049  0.20844  0.68724  1.0000
  C   C2032     1.0  0.36587  0.20664  0.69803  1.0000
  C   C2033     1.0  0.36415  0.19660  0.70341  1.0000
  C   C2034     1.0  0.36675  0.18847  0.69796  1.0000
  C   C2035     1.0  0.37124  0.19029  0.68717  1.0000
  H   H2003     1.0  0.37200  0.21615  0.68314  1.0000
  H   H2004     1.0  0.36389  0.21293  0.70224  1.0000
  H   H2005     1.0  0.36523  0.18076  0.70205  1.0000
  H   H2006     1.0  0.37330  0.18395  0.68299  1.0000
  C   C2036     1.0  0.42301  0.22693  0.65242  1.0000
  C   C2037     1.0  0.43338  0.22380  0.64708  1.0000
  H   H2007     1.0  0.31639  0.10210  0.68578  1.0000
  C   C2038     1.0  0.43966  0.21884  0.66341  1.0000
  C   C2039     1.0  0.42926  0.22197  0.66890  1.0000
  C   C2040     1.0  0.42090  0.22596  0.66340  1.0000
  H   H2008     1.0  0.43510  0.22459  0.63862  1.0000
  H   H2009     1.0  0.42770  0.22142  0.67730  1.0000
  H   H2010     1.0  0.41295  0.22860  0.66756  1.0000
  C   C2041     1.0  0.39341  0.26090  0.69100  1.0000
  C   C2042     1.0  0.39673  0.25228  0.68605  1.0000
  C   C2043     1.0  0.38970  0.24944  0.68180  1.0000
  C   C2044     1.0  0.37921  0.25501  0.68274  1.0000
  C   C2045     1.0  0.37584  0.26348  0.68789  1.0000
  C   C2046     1.0  0.38294  0.26648  0.69192  1.0000
  H   H2011     1.0  0.40476  0.24779  0.68548  1.0000
  H   H2012     1.0  0.39234  0.24285  0.67793  1.0000
  H   H2013     1.0  0.36773  0.26780  0.68866  1.0000
  H   H2014     1.0  0.38029  0.27312  0.69574  1.0000
  C   C2047     1.0  0.43016  0.28951  0.71913  1.0000
  C   C2048     1.0  0.42441  0.28839  0.72954  1.0000
  C   C2049     1.0  0.42974  0.28489  0.73793  1.0000
  C   C2050     1.0  0.44082  0.28217  0.73595  1.0000
  C   C2051     1.0  0.44653  0.28296  0.72555  1.0000
  C   C2052     1.0  0.44122  0.28676  0.71717  1.0000
  H   H2015     1.0  0.41588  0.29053  0.73113  1.0000
  H   H2016     1.0  0.42529  0.28427  0.74597  1.0000
  H   H2017     1.0  0.45506  0.28092  0.72396  1.0000
  H   H2018     1.0  0.44571  0.28761  0.70914  1.0000
  C   C2053     1.0  0.30532  0.10725  0.75486  1.0000
  H   H2019     1.0  0.30720  0.08542  0.77455  1.0000
  C   C2054     1.0  0.38794  0.18073  0.75809  1.0000
  H   H2020     1.0  0.26876  0.07745  0.66622  1.0000
  H   H2021     1.0  0.38670  0.18364  0.75013  1.0000
  C   C2055     1.0  0.37776  0.25941  0.75252  1.0000
  C   C2056     1.0  0.38072  0.26568  0.74259  1.0000
  C   C2057     1.0  0.38470  0.26109  0.73378  1.0000
  C   C2058     1.0  0.38623  0.25019  0.73495  1.0000
  H   H2022     1.0  0.37446  0.26296  0.75932  1.0000
  H   H2023     1.0  0.38667  0.26589  0.72603  1.0000
  H   H2024     1.0  0.38942  0.24672  0.72812  1.0000
  C   C2059     1.0  0.26390  0.45018  0.72846  1.0000
  C   C2060     1.0  0.25581  0.45036  0.72372  1.0000
  C   C2061     1.0  0.25663  0.44233  0.71860  1.0000
  C   C2062     1.0  0.26563  0.43420  0.71801  1.0000
  C   C2063     1.0  0.27398  0.43430  0.72230  1.0000
  C   C2064     1.0  0.27309  0.44228  0.72758  1.0000
  S   S710      1.0  0.25035  0.10894  0.73455  1.0000
  H   H2025     1.0  0.35495  0.18139  0.75274  1.0000
  H   H2026     1.0  0.28103  0.42814  0.72173  1.0000
  H   H2027     1.0  0.27949  0.44231  0.73099  1.0000
  H   H2028     1.0  0.24668  0.34385  0.70922  1.0000
  H   H2029     1.0  0.34455  0.25471  0.58171  1.0000
  H   H2030     1.0  0.40723  0.24709  0.75984  1.0000
  C   C2065     1.0  0.24314  0.12552  0.70926  1.0000
  H   H2031     1.0  0.44608  0.23874  0.66407  1.0000
  H   H2032     1.0  0.47314  0.22234  0.72854  1.0000
  H   H2033     1.0  0.25149  0.08327  0.71440  1.0000
  C   C2066     1.0  0.24799  0.25770  0.61081  1.0000
  H   H2034     1.0  0.28259  0.02779  0.73344  1.0000
  N   N168      1.0  0.27396  0.01748  0.74564  1.0000
  C   C2067     1.0  0.28467  0.21744  0.58021  1.0000
  H   H2035     1.0  0.27585  0.36468  0.73896  1.0000
  C   C2068     1.0  0.35453  0.34110  0.71599  1.0000
  C   C2069     1.0  0.36289  0.33366  0.71989  1.0000
  C   C2070     1.0  0.36875  0.32551  0.71466  1.0000
  C   C2071     1.0  0.36652  0.32495  0.70529  1.0000
  C   C2072     1.0  0.35814  0.33235  0.70143  1.0000
  C   C2073     1.0  0.35206  0.34031  0.70684  1.0000
  H   H2036     1.0  0.36480  0.33420  0.72700  1.0000
  H   H2037     1.0  0.37511  0.31981  0.71777  1.0000
  H   H2038     1.0  0.35635  0.33196  0.69420  1.0000
  H   H2039     1.0  0.34565  0.34601  0.70376  1.0000
  C   C2074     1.0  0.29709  0.36461  0.69374  1.0000
  C   C2075     1.0  0.29258  0.35801  0.70280  1.0000
  C   C2076     1.0  0.28324  0.35499  0.70316  1.0000
  C   C2077     1.0  0.27837  0.35860  0.69449  1.0000
  C   C2078     1.0  0.28275  0.36542  0.68557  1.0000
  C   C2079     1.0  0.29212  0.36835  0.68517  1.0000
  H   H2040     1.0  0.29638  0.35509  0.70946  1.0000
  H   H2041     1.0  0.27990  0.34972  0.71010  1.0000
  H   H2042     1.0  0.27892  0.36849  0.67899  1.0000
  H   H2043     1.0  0.29550  0.37358  0.67821  1.0000
  C   C2080     1.0  0.30404  0.40264  0.73327  1.0000
  C   C2081     1.0  0.29591  0.41149  0.73463  1.0000
  C   C2082     1.0  0.29749  0.41981  0.73800  1.0000
  C   C2083     1.0  0.30712  0.41931  0.74037  1.0000
  C   C2084     1.0  0.31538  0.41052  0.73882  1.0000
  C   C2085     1.0  0.31387  0.40220  0.73524  1.0000
  H   H2044     1.0  0.28830  0.41192  0.73311  1.0000
  H   H2045     1.0  0.29125  0.42665  0.73866  1.0000
  H   H2046     1.0  0.32291  0.41009  0.74054  1.0000
  H   H2047     1.0  0.32022  0.39542  0.73419  1.0000
  C   C2086     1.0  0.30118  0.35091  0.75910  1.0000
  C   C2087     1.0  0.29490  0.34710  0.75485  1.0000
  H   H2048     1.0  0.30945  0.35045  0.75552  1.0000
  C   C2088     1.0  0.25844  0.33446  0.62523  1.0000
  C   C2089     1.0  0.25334  0.34282  0.63038  1.0000
  C   C2090     1.0  0.25819  0.34547  0.63704  1.0000
  C   C2091     1.0  0.26830  0.33997  0.63841  1.0000
  C   C2092     1.0  0.27352  0.33179  0.63305  1.0000
  C   C2093     1.0  0.26857  0.32897  0.62655  1.0000
  H   H2049     1.0  0.35982  0.18848  0.76535  1.0000
  H   H2050     1.0  0.25408  0.35177  0.64110  1.0000
  H   H2051     1.0  0.28136  0.32750  0.63403  1.0000
  H   H2052     1.0  0.27258  0.32254  0.62259  1.0000
  C   C2094     1.0  0.25833  0.25931  0.60750  1.0000
  C   C2095     1.0  0.26159  0.26576  0.61209  1.0000
  C   C2096     1.0  0.25462  0.27031  0.62021  1.0000
  C   C2097     1.0  0.34489  0.10486  0.75183  1.0000
  H   H2053     1.0  0.26955  0.26710  0.60945  1.0000
  C   C2098     1.0  0.35313  0.23000  0.61153  1.0000
  C   C2099     1.0  0.36280  0.22574  0.61476  1.0000
  C   C2100     1.0  0.36560  0.22990  0.62194  1.0000
  C   C2101     1.0  0.35873  0.23839  0.62597  1.0000
  C   C2102     1.0  0.34897  0.24252  0.62290  1.0000
  C   C2103     1.0  0.34616  0.23834  0.61574  1.0000
  C   C2104     1.0  0.40628  0.25147  0.75177  1.0000
  H   H2054     1.0  0.37316  0.22668  0.62417  1.0000
  H   H2055     1.0  0.34357  0.24907  0.62598  1.0000
  H   H2056     1.0  0.33869  0.24169  0.61337  1.0000
  Fe  Fe353     1.0  0.29935  0.01371  0.69953  1.0000
  S   S711      1.0  0.31305  0.24279  0.57898  1.0000
  H   H2057     1.0  0.27946  0.34432  0.75652  1.0000
  H   H2058     1.0  0.33241  0.07955  0.68372  1.0000
  C   C2105     1.0  0.45116  0.22906  0.75764  1.0000
  N   N169      1.0  0.27742  0.10392  0.75112  1.0000
  C   C2106     1.0  0.44664  0.23722  0.76307  1.0000
  H   H2059     1.0  0.30805  0.26744  0.58880  1.0000
  C   C2107     1.0  0.42883  0.25645  0.67770  1.0000
  C   C2108     1.0  0.26748  0.14396  0.62382  1.0000
  C   C2109     1.0  0.25883  0.14952  0.63000  1.0000
  C   C2110     1.0  0.25487  0.14471  0.64042  1.0000
  C   C2111     1.0  0.25975  0.13446  0.64474  1.0000
  C   C2112     1.0  0.26814  0.12879  0.63841  1.0000
  C   C2113     1.0  0.27195  0.13352  0.62794  1.0000
  H   H2060     1.0  0.25524  0.15755  0.62680  1.0000
  H   H2061     1.0  0.36846  0.24703  0.59974  1.0000
  H   H2062     1.0  0.27165  0.12074  0.64155  1.0000
  H   H2063     1.0  0.27855  0.12915  0.62314  1.0000
  H   H2064     1.0  0.25624  0.21041  0.62396  1.0000
  C   C2114     1.0  0.29191  0.22240  0.58160  1.0000
  C   C2115     1.0  0.28955  0.98763  0.68257  1.0000
  C   C2116     1.0  0.26753  0.16191  0.58370  1.0000
  H   H2065     1.0  0.29788  0.19208  0.58607  1.0000
  C   C2117     1.0  0.27891  0.06720  0.65623  1.0000
  H   H2066     1.0  0.25432  0.27205  0.58537  1.0000
  C   C2118     1.0  0.27028  0.01450  0.75626  1.0000
  C   C2119     1.0  0.27373  0.48114  0.72909  1.0000
  S   S712      1.0  0.25592  0.12912  0.65821  1.0000
  H   H2067     1.0  0.29367  0.38638  0.75279  1.0000
  C   C2120     1.0  0.29296  0.20185  0.61178  1.0000
  C   C2121     1.0  0.28437  0.21001  0.60960  1.0000
  C   C2122     1.0  0.28499  0.22054  0.60824  1.0000
  C   C2123     1.0  0.29425  0.22289  0.60900  1.0000
  C   C2124     1.0  0.30260  0.21472  0.61173  1.0000
  C   C2125     1.0  0.30195  0.20421  0.61313  1.0000
  H   H2068     1.0  0.27739  0.20826  0.60868  1.0000
  H   H2069     1.0  0.27854  0.22687  0.60609  1.0000
  S   S713      1.0  0.26783  0.45848  0.76238  1.0000
  H   H2070     1.0  0.31659  0.20348  0.59285  1.0000
  H   H2071     1.0  0.27408  0.04911  0.71196  1.0000
  H   H2072     1.0  0.29440  0.28268  0.59445  1.0000
  H   H2073     1.0  0.25933  0.00621  0.73675  1.0000
  S   S714      1.0  0.29062  0.44532  0.76741  1.0000
  H   H2074     1.0  0.33551  0.33365  0.72847  1.0000
  C   C2126     1.0  0.25860  0.00539  0.75311  1.0000
  H   H2075     1.0  0.26377  0.25572  0.60129  1.0000
  H   H2076     1.0  0.26157  0.32886  0.66269  1.0000
  H   H2077     1.0  0.37278  0.10588  0.72138  1.0000
  S   S715      1.0  0.45527  0.20184  0.69853  1.0000
  H   H2078     1.0  0.24444  0.39607  0.73637  1.0000
  H   H2079     1.0  0.42252  0.25357  0.75836  1.0000
  C   C2127     1.0  0.43900  0.24450  0.66637  1.0000
  C   C2128     1.0  0.39433  0.18511  0.76172  1.0000
  S   S716      1.0  0.25479  0.17824  0.60399  1.0000
  C   C2129     1.0  0.30127  0.28403  0.58832  1.0000
  H   H2080     1.0  0.28078  0.02976  0.74638  1.0000
  H   H2081     1.0  0.33031  0.09712  0.68515  1.0000
  C   C2130     1.0  0.40976  0.15853  0.74912  1.0000
  C   C2131     1.0  0.28608  0.35587  0.77271  1.0000
  C   C2132     1.0  0.29395  0.09872  0.77445  1.0000
  H   H2082     1.0  0.41831  0.18471  0.75268  1.0000
  C   C2133     1.0  0.26241  0.00844  0.74231  1.0000
  C   C2134     1.0  0.25468  0.41345  0.77261  1.0000
  C   C2135     1.0  0.46653  0.24542  0.69809  1.0000
  H   H2083     1.0  0.27857  0.27486  0.58421  1.0000
  C   C2136     1.0  0.25541  0.23203  0.62620  1.0000
  C   C2137     1.0  0.34768  0.09929  0.74381  1.0000
  H   H2084     1.0  0.36623  0.11601  0.74535  1.0000
  H   H2085     1.0  0.25251  0.39320  0.67561  1.0000
  C   C2138     1.0  0.28360  0.04893  0.66481  1.0000
  C   C2139     1.0  0.24301  0.44199  0.75281  1.0000
  H   H2086     1.0  0.37624  0.11362  0.72828  1.0000
  H   H2087     1.0  0.26328  0.07258  0.68455  1.0000
  H   H2088     1.0  0.39442  0.19383  0.70863  1.0000
  C   C2140     1.0  0.35164  0.11085  0.75243  1.0000
  C   C2141     1.0  0.47447  0.25550  0.70506  1.0000
  Fe  Fe354     1.0  0.44863  0.23151  0.69858  1.0000
  H   H2089     1.0  0.48788  0.22265  0.69027  1.0000
  N   N170      1.0  0.34798  0.21639  0.66976  1.0000
  C   C2142     1.0  0.34428  0.22549  0.66313  1.0000
  C   C2143     1.0  0.35395  0.20778  0.66583  1.0000
  C   C2144     1.0  0.34654  0.22614  0.65225  1.0000
  C   C2145     1.0  0.35641  0.20818  0.65499  1.0000
  C   C2146     1.0  0.35264  0.21741  0.64818  1.0000
  C   C2147     1.0  0.34590  0.21613  0.68107  1.0000
  H   H2090     1.0  0.33980  0.23242  0.66620  1.0000
  H   H2091     1.0  0.35708  0.20062  0.67102  1.0000
  H   H2092     1.0  0.34384  0.23345  0.64697  1.0000
  H   H2093     1.0  0.36140  0.20143  0.65190  1.0000
  H   H2094     1.0  0.35455  0.21784  0.63975  1.0000
  H   H2095     1.0  0.34842  0.20804  0.68569  1.0000
  H   H2096     1.0  0.35033  0.22133  0.68246  1.0000
  H   H2097     1.0  0.33734  0.21885  0.68415  1.0000
  N   N171      1.0  0.42353  0.22899  0.72890  1.0000
  C   C2148     1.0  0.42656  0.23670  0.72051  1.0000
  C   C2149     1.0  0.42000  0.24197  0.71337  1.0000
  C   C2150     1.0  0.43046  0.22349  0.73632  1.0000
  H   H2098     1.0  0.43408  0.23884  0.71931  1.0000
  H   H2099     1.0  0.42235  0.24817  0.70677  1.0000
  H   H2100     1.0  0.43655  0.22791  0.73578  1.0000
  H   H2101     1.0  0.42584  0.22245  0.74456  1.0000
  N   N172      1.0  0.28899  0.40591  0.70148  1.0000
  C   C2151     1.0  0.28169  0.40998  0.69525  1.0000
  C   C2152     1.0  0.29191  0.39525  0.70492  1.0000
  C   C2153     1.0  0.27685  0.40333  0.69262  1.0000
  C   C2154     1.0  0.28717  0.38840  0.70251  1.0000
  C   C2155     1.0  0.27964  0.39246  0.69628  1.0000
  C   C2156     1.0  0.29411  0.41293  0.70410  1.0000
  H   H2102     1.0  0.27943  0.41844  0.69245  1.0000
  H   H2103     1.0  0.29800  0.39199  0.70949  1.0000
  H   H2104     1.0  0.27099  0.40660  0.68777  1.0000
  H   H2105     1.0  0.28947  0.37997  0.70530  1.0000
  H   H2106     1.0  0.27608  0.38715  0.69421  1.0000
  H   H2107     1.0  0.29524  0.41012  0.71234  1.0000
  H   H2108     1.0  0.30194  0.41316  0.69872  1.0000
  H   H2109     1.0  0.28922  0.42107  0.70353  1.0000
  N   N173      1.0  0.34494  0.31858  0.73374  1.0000
  C   C2157     1.0  0.35034  0.31244  0.74130  1.0000
  C   C2158     1.0  0.34644  0.31561  0.72441  1.0000
  C   C2159     1.0  0.35755  0.30310  0.73957  1.0000
  H   H2110     1.0  0.32160  0.07284  0.65950  1.0000
  H   H2111     1.0  0.42734  0.16197  0.72578  1.0000
  C   C2160     1.0  0.28228  0.02358  0.74179  1.0000
  H   H2112     1.0  0.34910  0.31476  0.74872  1.0000
  H   H2113     1.0  0.34224  0.32052  0.71836  1.0000
  H   H2114     1.0  0.36190  0.29821  0.74552  1.0000
  C   C2161     1.0  0.37930  0.24848  0.75369  1.0000
  H   H2115     1.0  0.28802  0.04094  0.66455  1.0000
  C   C2162     1.0  0.26259  0.00838  0.76015  1.0000
  C   C2163     1.0  0.24575  0.41330  0.65552  1.0000
  H   H2116     1.0  0.41189  0.21978  0.73670  1.0000
  Fe  Fe355     1.0  0.33615  0.23155  0.59403  1.0000
  H   H2117     1.0  0.24926  0.12363  0.71372  1.0000
  S   S717      1.0  0.46432  0.22776  0.75045  1.0000
  C   C2164     1.0  0.32830  0.08231  0.67725  1.0000
  C   C2165     1.0  0.43073  0.24721  0.66104  1.0000
  H   H2118     1.0  0.27852  0.36896  0.74938  1.0000
  H   H2119     1.0  0.41143  0.25607  0.73087  1.0000
  H   H2120     1.0  0.25260  0.34828  0.73738  1.0000
  C   C2166     1.0  0.24268  0.28130  0.59569  1.0000
  C   C2167     1.0  0.27114  0.09915  0.75988  1.0000
  H   H2121     1.0  0.25114  0.21612  0.57987  1.0000
  H   H2122     1.0  0.25252  0.00077  0.75606  1.0000
  C   C2168     1.0  0.39608  0.18121  0.77200  1.0000
  H   H2123     1.0  0.25824  0.31602  0.66790  1.0000
  H   H2124     1.0  0.35507  0.30419  0.71486  1.0000
  C   C2169     1.0  0.33722  0.32817  0.73588  1.0000
  N   N174      1.0  0.27997  0.36870  0.63331  1.0000
  C   C2170     1.0  0.27836  0.36296  0.62714  1.0000
  C   C2171     1.0  0.27286  0.37773  0.63522  1.0000
  C   C2172     1.0  0.26934  0.36611  0.62284  1.0000
  C   C2173     1.0  0.26380  0.38116  0.63097  1.0000
  C   C2174     1.0  0.26201  0.37527  0.62480  1.0000
  C   C2175     1.0  0.28931  0.36494  0.63802  1.0000
  H   H2125     1.0  0.28386  0.35565  0.62586  1.0000
  H   H2126     1.0  0.27403  0.38227  0.64020  1.0000
  H   H2127     1.0  0.26794  0.36132  0.61824  1.0000
  H   H2128     1.0  0.25809  0.38823  0.63269  1.0000
  H   H2129     1.0  0.25490  0.37771  0.62166  1.0000
  H   H2130     1.0  0.28898  0.35713  0.64345  1.0000
  H   H2131     1.0  0.29661  0.36410  0.63178  1.0000
  H   H2132     1.0  0.28984  0.37040  0.64267  1.0000
  H   H2133     1.0  0.34335  0.27384  0.60297  1.0000
  H   H2134     1.0  0.27874  0.11720  0.73815  1.0000
  C   C2176     1.0  0.41300  0.25673  0.65855  1.0000
  C   C2177     1.0  0.24479  0.40921  0.67719  1.0000
  C   C2178     1.0  0.24450  0.44614  0.76062  1.0000
  H   H2135     1.0  0.29224  0.00198  0.68469  1.0000
  H   H2136     1.0  0.42798  0.26010  0.68424  1.0000
  C   C2179     1.0  0.28757  0.09889  0.74768  1.0000
  C   C2180     1.0  0.28437  0.05690  0.65573  1.0000
  H   H2137     1.0  0.29226  0.12061  0.75477  1.0000
  H   H2138     1.0  0.47816  0.22588  0.71464  1.0000
  C   C2181     1.0  0.41757  0.25644  0.73450  1.0000
  C   C2182     1.0  0.28463  0.14992  0.58472  1.0000
  H   H2139     1.0  0.25063  0.47550  0.70097  1.0000
  H   H2140     1.0  0.37227  0.21578  0.73525  1.0000
  H   H2141     1.0  0.29915  0.37771  0.76368  1.0000
  C   C2183     1.0  0.41297  0.16463  0.75411  1.0000
  C   C2184     1.0  0.30127  0.21629  0.58451  1.0000
  H   H2142     1.0  0.27305  0.01682  0.73028  1.0000
  H   H2143     1.0  0.36471  0.29282  0.72869  1.0000
  H   H2144     1.0  0.30174  0.39967  0.75569  1.0000
  C   C2185     1.0  0.29665  0.98879  0.69696  1.0000
  S   S718      1.0  0.40799  0.21426  0.76333  1.0000
  C   C2186     1.0  0.42365  0.17682  0.75402  1.0000
  H   H2145     1.0  0.24875  0.45250  0.75827  1.0000
  H   H2146     1.0  0.25712  0.47739  0.71731  1.0000
  C   C2187     1.0  0.38289  0.17284  0.76491  1.0000
  H   H2147     1.0  0.25461  0.41222  0.76502  1.0000
  S   S719      1.0  0.32480  0.22189  0.59408  1.0000
  H   H2148     1.0  0.30959  0.21649  0.61274  1.0000
  H   H2149     1.0  0.34035  0.33260  0.73980  1.0000
  S   S720      1.0  0.24414  0.41388  0.70518  1.0000
  C   C2188     1.0  0.40753  0.23107  0.72314  1.0000
  S   S721      1.0  0.48684  0.24379  0.73788  1.0000
  N   N175      1.0  0.28734  0.07684  0.71353  1.0000
  C   C2189     1.0  0.29435  0.07791  0.70405  1.0000
  C   C2190     1.0  0.28619  0.08329  0.72025  1.0000
  C   C2191     1.0  0.30029  0.08571  0.70101  1.0000
  C   C2192     1.0  0.29199  0.09121  0.71742  1.0000
  C   C2193     1.0  0.29912  0.09237  0.70777  1.0000
  C   C2194     1.0  0.28145  0.06839  0.71668  1.0000
  H   H2150     1.0  0.29546  0.07261  0.69886  1.0000
  H   H2151     1.0  0.28068  0.08241  0.72778  1.0000
  H   H2152     1.0  0.30599  0.08638  0.69360  1.0000
  H   H2153     1.0  0.29100  0.09642  0.72267  1.0000
  H   H2154     1.0  0.30384  0.09832  0.70560  1.0000
  H   H2155     1.0  0.27930  0.06716  0.70975  1.0000
  H   H2156     1.0  0.28634  0.06091  0.72027  1.0000
  H   H2157     1.0  0.27394  0.07036  0.72239  1.0000
  N   N176      1.0  0.35990  0.19593  0.74922  1.0000
  C   C2195     1.0  0.36241  0.19456  0.75875  1.0000
  C   C2196     1.0  0.36330  0.20348  0.74085  1.0000
  C   C2197     1.0  0.36858  0.20078  0.76007  1.0000
  C   C2198     1.0  0.36953  0.20981  0.74189  1.0000
  C   C2199     1.0  0.37217  0.20843  0.75157  1.0000
  H   H2158     1.0  0.36090  0.24298  0.58685  1.0000
  Fe  Fe356     1.0  0.27478  0.44177  0.76911  1.0000
  C   C2200     1.0  0.31770  0.27723  0.57692  1.0000
  C   C2201     1.0  0.43031  0.23077  0.76956  1.0000
  C   C2202     1.0  0.24254  0.47610  0.70531  1.0000
  N   N177      1.0  0.24886  0.22600  0.62580  1.0000
  H   H2159     1.0  0.36125  0.20460  0.73330  1.0000
  H   H2160     1.0  0.24730  0.03226  0.73925  1.0000
  S   S722      1.0  0.38770  0.23010  0.74660  1.0000
  C   C2203     1.0  0.29167  0.08880  0.75306  1.0000
  Fe  Fe357     1.0  0.25409  0.30658  0.59417  1.0000
  C   C2204     1.0  0.30900  0.27542  0.58514  1.0000
  Fe  Fe358     1.0  0.48543  0.25621  0.74673  1.0000
  C   C2205     1.0  0.30962  0.09732  0.76036  1.0000
  H   H2161     1.0  0.35909  0.09579  0.72997  1.0000
  C   C2206     1.0  0.37367  0.10615  0.72927  1.0000
  H   H2162     1.0  0.29030  0.23091  0.58056  1.0000
  H   H2163     1.0  0.30169  0.35806  0.77143  1.0000
  N   N178      1.0  0.24972  0.32615  0.65655  1.0000
  C   C2207     1.0  0.29266  0.99365  0.68785  1.0000
  H   H2164     1.0  0.33747  0.10455  0.75751  1.0000
  H   H2165     1.0  0.37989  0.09938  0.73185  1.0000
  S   S723      1.0  0.47920  0.26981  0.73444  1.0000
  C   C2208     1.0  0.31790  0.08914  0.66067  1.0000
  H   H2166     1.0  0.31517  0.10451  0.66390  1.0000
  H   H2167     1.0  0.31374  0.09189  0.65423  1.0000
  N   N179      1.0  0.28984  0.39237  0.76677  1.0000
  N   N180      1.0  0.27227  0.06158  0.67479  1.0000
  H   H2168     1.0  0.25223  0.11538  0.69853  1.0000
  S   S724      1.0  0.26361  0.31849  0.59245  1.0000
  H   H2169     1.0  0.28758  0.15390  0.58924  1.0000
  H   H2170     1.0  0.33564  0.27008  0.58992  1.0000
  H   H2171     1.0  0.26474  0.42461  0.76602  1.0000
  Fe  Fe359     1.0  0.46542  0.21151  0.70112  1.0000
  H   H2172     1.0  0.27968  0.07351  0.64927  1.0000
  H   H2173     1.0  0.25604  0.40897  0.72837  1.0000
  H   H2174     1.0  0.40352  0.24634  0.74833  1.0000
  H   H2175     1.0  0.36825  0.21928  0.61155  1.0000
  H   H2176     1.0  0.41460  0.26272  0.65118  1.0000
  H   H2177     1.0  0.41038  0.20949  0.66387  1.0000
  C   C2209     1.0  0.43801  0.24913  0.67477  1.0000
  C   C2210     1.0  0.25594  0.10195  0.72443  1.0000
  C   C2211     1.0  0.27228  0.36926  0.74525  1.0000
  H   H2178     1.0  0.32579  0.10780  0.67499  1.0000
  H   H2179     1.0  0.25697  0.24453  0.63255  1.0000
  C   C2212     1.0  0.43315  0.25782  0.74369  1.0000
  C   C2213     1.0  0.43467  0.26002  0.73273  1.0000
  S   S725      1.0  0.24266  0.30748  0.58423  1.0000
  H   H2180     1.0  0.35398  0.18923  0.73987  1.0000
  H   H2181     1.0  0.43911  0.25853  0.74737  1.0000
  H   H2182     1.0  0.44181  0.26246  0.72787  1.0000
  N   N181      1.0  0.40025  0.32343  0.69234  1.0000
  C   C2214     1.0  0.39193  0.33047  0.69667  1.0000
  C   C2215     1.0  0.40849  0.31862  0.69728  1.0000
  C   C2216     1.0  0.39168  0.33280  0.70626  1.0000
  C   C2217     1.0  0.40846  0.32070  0.70692  1.0000
  C   C2218     1.0  0.39998  0.32782  0.71143  1.0000
  C   C2219     1.0  0.40035  0.32130  0.68219  1.0000
  H   H2183     1.0  0.38533  0.33418  0.69281  1.0000
  H   H2184     1.0  0.41512  0.31303  0.69389  1.0000
  H   H2185     1.0  0.38499  0.33829  0.70971  1.0000
  H   H2186     1.0  0.41493  0.31668  0.71090  1.0000
  H   H2187     1.0  0.39981  0.32940  0.71896  1.0000
  H   H2188     1.0  0.39285  0.31911  0.68252  1.0000
  H   H2189     1.0  0.40125  0.32843  0.67585  1.0000
  H   H2190     1.0  0.40688  0.31465  0.68011  1.0000
  H   H2191     1.0  0.27166  0.04989  0.73060  1.0000
  C   C2220     1.0  0.31873  0.09623  0.66618  1.0000
  S   S726      1.0  0.24709  0.37121  0.67761  1.0000
  C   C2221     1.0  0.25935  0.40088  0.73176  1.0000
  H   H2192     1.0  0.48509  0.21629  0.73982  1.0000
  H   H2193     1.0  0.26620  0.31925  0.65479  1.0000
  N   N182      1.0  0.28074  0.14750  0.64678  1.0000
  C   C2222     1.0  0.27078  0.15366  0.64800  1.0000
  C   C2223     1.0  0.28463  0.14149  0.65539  1.0000
  C   C2224     1.0  0.26426  0.15357  0.65802  1.0000
  C   C2225     1.0  0.27838  0.14133  0.66554  1.0000
  C   C2226     1.0  0.26809  0.14731  0.66683  1.0000
  C   C2227     1.0  0.28731  0.14715  0.63622  1.0000
  H   H2194     1.0  0.26769  0.15849  0.64122  1.0000
  H   H2195     1.0  0.29257  0.13666  0.65446  1.0000
  H   H2196     1.0  0.25623  0.15815  0.65889  1.0000
  H   H2197     1.0  0.28147  0.13651  0.67235  1.0000
  H   H2198     1.0  0.26308  0.14703  0.67463  1.0000
  H   H2199     1.0  0.28321  0.15234  0.62992  1.0000
  H   H2200     1.0  0.29473  0.14973  0.63533  1.0000
  H   H2201     1.0  0.28920  0.13898  0.63489  1.0000
  N   N183      1.0  0.35643  0.26077  0.60198  1.0000
  C   C2228     1.0  0.34731  0.26714  0.59935  1.0000
  C   C2229     1.0  0.36139  0.25228  0.59746  1.0000
  C   C2230     1.0  0.34292  0.26507  0.59199  1.0000
  C   C2231     1.0  0.35718  0.24995  0.59013  1.0000
  C   C2232     1.0  0.34792  0.25643  0.58736  1.0000
  C   C2233     1.0  0.36090  0.26322  0.60962  1.0000
  C   C2234     1.0  0.25185  0.23954  0.63250  1.0000
  H   H2202     1.0  0.24455  0.09204  0.72956  1.0000
  S   S727      1.0  0.48534  0.25658  0.70927  1.0000
  C   C2235     1.0  0.27986  0.35190  0.76855  1.0000
  H   H2203     1.0  0.42269  0.17371  0.76268  1.0000
  H   H2204     1.0  0.27110  0.47334  0.71454  1.0000
  S   S728      1.0  0.26733  0.29257  0.59647  1.0000
  H   H2205     1.0  0.31216  0.19170  0.59442  1.0000
  N   N184      1.0  0.26775  0.38019  0.74070  1.0000
  C   C2236     1.0  0.25719  0.38326  0.74071  1.0000
  C   C2237     1.0  0.27424  0.38718  0.73607  1.0000
  C   C2238     1.0  0.25283  0.39365  0.73629  1.0000
  C   C2239     1.0  0.27014  0.39764  0.73158  1.0000
  C   C2240     1.0  0.24439  0.26842  0.62374  1.0000
  H   H2206     1.0  0.27529  0.40321  0.72799  1.0000
  H   H2207     1.0  0.24623  0.21689  0.61640  1.0000
  H   H2208     1.0  0.28263  0.38467  0.73588  1.0000
  S   S729      1.0  0.44519  0.24848  0.69966  1.0000
  H   H2209     1.0  0.40525  0.24316  0.70924  1.0000
  H   H2210     1.0  0.43455  0.21559  0.73463  1.0000
  Fe  Fe360     1.0  0.27329  0.45383  0.74687  1.0000
  C   C2241     1.0  0.45653  0.25158  0.70117  1.0000
  H   H2211     1.0  0.30950  0.11062  0.74727  1.0000
  H   H2212     1.0  0.43158  0.24361  0.65448  1.0000
  C   C2242     1.0  0.38388  0.24383  0.74496  1.0000
  C   C2243     1.0  0.27498  0.08907  0.76547  1.0000
  H   H2213     1.0  0.36369  0.27072  0.60630  1.0000
  C   C2244     1.0  0.24104  0.26223  0.61895  1.0000
  C   C2245     1.0  0.27739  0.05142  0.67430  1.0000
  Fe  Fe361     1.0  0.29420  0.44118  0.75144  1.0000
  H   H2214     1.0  0.28943  0.05514  0.64839  1.0000
  Fe  Fe362     1.0  0.32539  0.25050  0.58008  1.0000
  C   C2246     1.0  0.32230  0.07844  0.66363  1.0000
  H   H2215     1.0  0.42786  0.26144  0.71955  1.0000
  C   C2247     1.0  0.47551  0.24752  0.69981  1.0000
  C   C2248     1.0  0.24929  0.40103  0.67158  1.0000
  H   H2216     1.0  0.24851  0.28266  0.59907  1.0000
  N   N185      1.0  0.32388  0.09278  0.67435  1.0000
  C   C2249     1.0  0.44159  0.21968  0.65254  1.0000
  S   S730      1.0  0.27870  0.43683  0.75381  1.0000
  C   C2250     1.0  0.28432  0.34731  0.75976  1.0000
  H   H2217     1.0  0.43226  0.17324  0.73466  1.0000
  C   C2251     1.0  0.29681  0.35516  0.76813  1.0000
  C   C2252     1.0  0.32757  0.07499  0.67195  1.0000
  C   C2253     1.0  0.24488  0.34280  0.71775  1.0000
  N   N186      1.0  0.36367  0.10584  0.73698  1.0000
  C   C2254     1.0  0.36112  0.11115  0.74497  1.0000
  N   N187      1.0  0.42102  0.16976  0.74897  1.0000
  C   C2255     1.0  0.44518  0.22180  0.75807  1.0000
  C   C2256     1.0  0.25052  0.34675  0.72256  1.0000
  H   H2218     1.0  0.41251  0.21020  0.68081  1.0000
  Fe  Fe363     1.0  0.47024  0.24284  0.74630  1.0000
  S   S731      1.0  0.24777  0.30607  0.61140  1.0000
  H   H2219     1.0  0.43019  0.21705  0.76432  1.0000
  H   H2220     1.0  0.30855  0.19792  0.61501  1.0000
  C   C2257     1.0  0.35713  0.09990  0.73637  1.0000
  H   H2221     1.0  0.41593  0.19556  0.66498  1.0000
  H   H2222     1.0  0.25911  0.06022  0.68754  1.0000
  H   H2223     1.0  0.43193  0.17776  0.75088  1.0000
  H   H2224     1.0  0.48186  0.19945  0.68592  1.0000
  C   C2258     1.0  0.42375  0.25501  0.74985  1.0000
  H   H2225     1.0  0.40887  0.16535  0.76206  1.0000
  N   N188      1.0  0.41620  0.25418  0.74523  1.0000
  H   H2226     1.0  0.45119  0.24282  0.76283  1.0000
  C   C2259     1.0  0.40743  0.20462  0.68445  1.0000
  C   C2260     1.0  0.42616  0.16885  0.73892  1.0000
  S   S732      1.0  0.25803  0.04160  0.74931  1.0000
  H   H2227     1.0  0.40261  0.20109  0.66290  1.0000
  H   H2228     1.0  0.31918  0.19770  0.58159  1.0000
  H   H2229     1.0  0.34949  0.11534  0.75855  1.0000
  H   H2230     1.0  0.26340  0.23120  0.62151  1.0000
  H   H2231     1.0  0.48318  0.24270  0.69741  1.0000
  C   C2261     1.0  0.27285  0.06941  0.66589  1.0000
  H   H2232     1.0  0.25020  0.44244  0.71525  1.0000
  H   H2233     1.0  0.41251  0.15297  0.73482  1.0000
  C   C2262     1.0  0.40861  0.20149  0.66700  1.0000
  C   C2263     1.0  0.42682  0.25942  0.72808  1.0000
  H   H2234     1.0  0.29010  0.01830  0.74239  1.0000
  C   C2264     1.0  0.29548  0.11294  0.75915  1.0000
  H   H2235     1.0  0.24752  0.46435  0.67187  1.0000
  H   H2236     1.0  0.27093  0.06080  0.69104  1.0000
  H   H2237     1.0  0.29268  0.10287  0.74100  1.0000
  S   S733      1.0  0.26384  0.19573  0.57632  1.0000
  S   S734      1.0  0.48126  0.20455  0.70616  1.0000
  N   N189      1.0  0.30332  0.20554  0.58612  1.0000
  C   C2265     1.0  0.40377  0.20271  0.69539  1.0000
  H   H2238     1.0  0.40603  0.20671  0.70016  1.0000
  C   C2266     1.0  0.28532  0.08389  0.76203  1.0000
  Fe  Fe364     1.0  0.44177  0.21068  0.70891  1.0000
  C   C2267     1.0  0.47811  0.22735  0.72239  1.0000
  C   C2268     1.0  0.39859  0.19213  0.68311  1.0000
  H   H2239     1.0  0.37687  0.24367  0.76133  1.0000
  C   C2269     1.0  0.31332  0.19927  0.58885  1.0000
  H   H2240     1.0  0.27244  0.12025  0.75086  1.0000
  H   H2241     1.0  0.25207  0.37769  0.74417  1.0000
  C   C2270     1.0  0.41503  0.15748  0.73891  1.0000
  C   C2271     1.0  0.42071  0.25896  0.67220  1.0000
  C   C2272     1.0  0.30397  0.09313  0.77026  1.0000
  S   S735      1.0  0.35037  0.22502  0.60183  1.0000
  Fe  Fe365     1.0  0.27650  0.30435  0.59618  1.0000
  Fe  Fe366     1.0  0.45081  0.21570  0.68564  1.0000
  H   H2242     1.0  0.44956  0.21729  0.64823  1.0000
  C   C2273     1.0  0.39479  0.19003  0.69402  1.0000
  S   S736      1.0  0.42906  0.20394  0.72175  1.0000
  S   S737      1.0  0.38347  0.21101  0.77435  1.0000
  S   S738      1.0  0.46923  0.25410  0.75630  1.0000
  H   H2243     1.0  0.31709  0.99151  0.67390  1.0000
  C   C2274     1.0  0.39730  0.19545  0.70016  1.0000
  S   S739      1.0  0.45066  0.21408  0.66948  1.0000
  H   H2244     1.0  0.39652  0.18792  0.67839  1.0000
  H   H2245     1.0  0.40010  0.25879  0.75236  1.0000
  H   H2246     1.0  0.38996  0.18421  0.69770  1.0000
  H   H2247     1.0  0.43411  0.19275  0.70470  1.0000
  H   H2248     1.0  0.44867  0.21543  0.75392  1.0000
  C   C2275     1.0  0.29377  0.40845  0.76769  1.0000
  H   H2249     1.0  0.48375  0.21159  0.67711  1.0000
  H   H2250     1.0  0.41212  0.24958  0.65649  1.0000
  H   H2251     1.0  0.40529  0.25982  0.66347  1.0000
  C   C2276     1.0  0.35917  0.30006  0.73007  1.0000
  C   C2277     1.0  0.35301  0.18963  0.74821  1.0000
  S   S740      1.0  0.24376  0.25023  0.60455  1.0000
  H   H2252     1.0  0.29985  0.08499  0.75057  1.0000
  H   H2253     1.0  0.44436  0.24710  0.67899  1.0000
  S   S741      1.0  0.32173  0.08990  0.75466  1.0000
  H   H2254     1.0  0.24605  0.44510  0.74458  1.0000
  C   C2278     1.0  0.42340  0.16252  0.73383  1.0000
  H   H2255     1.0  0.27318  0.01697  0.76178  1.0000
  C   C2279     1.0  0.29562  0.40003  0.76275  1.0000
  H   H2256     1.0  0.24449  0.40762  0.68553  1.0000
  C   C2280     1.0  0.27334  0.11468  0.74575  1.0000
  S   S742      1.0  0.45219  0.21910  0.71269  1.0000
  N   N190      1.0  0.42162  0.25415  0.66416  1.0000
  H   H2257     1.0  0.41362  0.26470  0.67449  1.0000
  H   H2258     1.0  0.25669  0.35089  0.71777  1.0000
  Fe  Fe367     1.0  0.28397  0.46195  0.75928  1.0000
  C   C2281     1.0  0.43472  0.22272  0.76394  1.0000
  S   S743      1.0  0.46230  0.22440  0.68710  1.0000
  H   H2259     1.0  0.46741  0.23902  0.69438  1.0000
  H   H2260     1.0  0.32971  0.32617  0.74090  1.0000
  Fe  Fe368     1.0  0.31229  0.23641  0.59622  1.0000
  H   H2261     1.0  0.24157  0.23802  0.58770  1.0000
  Fe  Fe369     1.0  0.39149  0.22313  0.76257  1.0000
  C   C2282     1.0  0.35365  0.30636  0.72239  1.0000
  C   C2283     1.0  0.26607  0.06395  0.68494  1.0000
  H   H2262     1.0  0.25466  0.31562  0.64595  1.0000
  C   C2284     1.0  0.24151  0.24086  0.63839  1.0000
  C   C2285     1.0  0.48709  0.20296  0.67866  1.0000
  H   H2263     1.0  0.24616  0.41498  0.64712  1.0000
  H   H2264     1.0  0.43300  0.24417  0.77353  1.0000
  C   C2286     1.0  0.24980  0.40312  0.66069  1.0000
  H   H2265     1.0  0.26556  0.11523  0.74401  1.0000
  C   C2287     1.0  0.25938  0.32234  0.66073  1.0000
  H   H2266     1.0  0.28537  0.37952  0.76376  1.0000
  H   H2267     1.0  0.28848  0.07620  0.76646  1.0000
  C   C2288     1.0  0.43632  0.23797  0.76914  1.0000
  S   S744      1.0  0.24247  0.36328  0.76047  1.0000
  H   H2268     1.0  0.37072  0.19951  0.76759  1.0000
  C   C2289     1.0  0.29629  0.20061  0.58472  1.0000
  Fe  Fe370     1.0  0.24978  0.42569  0.71003  1.0000
  H   H2269     1.0  0.32341  0.98363  0.69055  1.0000
  H   H2270     1.0  0.34464  0.19317  0.75121  1.0000
  C   C2290     1.0  0.29210  0.38356  0.76150  1.0000
  H   H2271     1.0  0.24550  0.34709  0.62940  1.0000
  H   H2272     1.0  0.25876  0.22058  0.61222  1.0000
  H   H2273     1.0  0.40311  0.15479  0.75310  1.0000
  H   H2274     1.0  0.24871  0.45647  0.72437  1.0000
  C   C2291     1.0  0.24827  0.34526  0.73352  1.0000
  C   C2292     1.0  0.28967  0.10863  0.76887  1.0000
  C   C2293     1.0  0.24602  0.27534  0.58790  1.0000
  H   H2275     1.0  0.28048  0.14391  0.59046  1.0000
  Fe  Fe371     1.0  0.24471  0.03528  0.76110  1.0000
  H   H2276     1.0  0.36766  0.25690  0.61188  1.0000
  C   C2294     1.0  0.25275  0.21808  0.61927  1.0000
  C   C2295     1.0  0.24061  0.41938  0.67194  1.0000
  C   C2296     1.0  0.26038  0.42056  0.77316  1.0000
  H   H2277     1.0  0.24101  0.26895  0.57745  1.0000
  C   C2297     1.0  0.31798  0.98309  0.67709  1.0000
  C   C2298     1.0  0.24489  0.12088  0.70065  1.0000
  H   H2278     1.0  0.24222  0.46018  0.70517  1.0000
  C   C2299     1.0  0.24109  0.42134  0.66112  1.0000
  H   H2279     1.0  0.25285  0.17313  0.58223  1.0000
  H   H2280     1.0  0.24278  0.33731  0.66642  1.0000
  N   N191      1.0  0.27738  0.15770  0.57859  1.0000
  H   H2281     1.0  0.24824  0.06418  0.73529  1.0000
  C   C2300     1.0  0.28505  0.27616  0.57754  1.0000
  H   H2282     1.0  0.29147  0.14567  0.57964  1.0000
  Fe  Fe372     1.0  0.32613  0.22879  0.57672  1.0000
  H   H2283     1.0  0.29196  0.25963  0.57850  1.0000
  H   H2284     1.0  0.25965  0.00602  0.76857  1.0000
  S   S745      1.0  0.24282  0.43957  0.69869  1.0000
  S   S746      1.0  0.33882  0.23703  0.57634  1.0000
  H   H2285     1.0  0.27007  0.08537  0.77255  1.0000
  H   H2286     1.0  0.24444  0.22436  0.59454  1.0000
  Fe  Fe373     1.0  0.24497  0.36549  0.77556  1.0000
  H   H2287     1.0  0.48682  0.19971  0.67202  1.0000
  H   H2288     1.0  0.27159  0.35243  0.77199  1.0000
  C   C2301     1.0  0.24187  0.33386  0.66041  1.0000
  S   S747      1.0  0.25568  0.37670  0.77213  1.0000
  C   C2302     1.0  0.26056  0.16961  0.57812  1.0000
  S   S748      1.0  0.39055  0.23236  0.77440  1.0000
  S   S749      1.0  0.27701  0.11577  0.77355  1.0000
  H   H2289     1.0  0.29828  0.41461  0.76435  1.0000
  C   C2303     1.0  0.24393  0.21994  0.57707  1.0000
  H   H2290     1.0  0.24295  0.48079  0.67878  1.0000
  C   C2304     1.0  0.28236  0.39263  0.77592  1.0000
  N   N192      1.0  0.24074  0.44222  0.77104  1.0000
  Fe  Fe374     1.0  0.39992  0.20279  0.77618  1.0000
  Fe  Fe375     1.0  0.25959  0.27509  0.86224  1.0000
  H   H2291     1.0  0.24247  0.44099  0.78665  1.0000
  S   S750      1.0  0.26825  0.25895  0.85972  1.0000
  H   H2292     1.0  0.27435  0.40116  0.78831  1.0000
  H   H2293     1.0  0.28148  0.27138  0.86253  1.0000
  H   H2294     1.0  0.26956  0.23601  0.85945  1.0000
  H   H2295     1.0  0.28956  0.09524  0.78190  1.0000
  S   S751      1.0  0.26594  0.28982  0.85821  1.0000
  H   H2296     1.0  0.25444  0.35845  0.81942  1.0000
  Fe  Fe376     1.0  0.32241  0.21399  0.87590  1.0000
  S   S752      1.0  0.33465  0.22300  0.86571  1.0000
  S   S753      1.0  0.31838  0.21044  0.89369  1.0000
  Fe  Fe377     1.0  0.31345  0.21395  0.85734  1.0000
  S   S754      1.0  0.32464  0.22329  0.84561  1.0000
  S   S755      1.0  0.30033  0.21098  0.85179  1.0000
  Fe  Fe378     1.0  0.33690  0.21260  0.85433  1.0000
  S   S756      1.0  0.35289  0.20497  0.84570  1.0000
  Fe  Fe379     1.0  0.32148  0.23284  0.85782  1.0000
  S   S757      1.0  0.31733  0.25045  0.85523  1.0000
  S   S758      1.0  0.32584  0.20246  0.86538  1.0000
  S   S759      1.0  0.30913  0.22451  0.86877  1.0000
  Fe  Fe380     1.0  0.27972  0.16493  0.85368  1.0000
  S   S760      1.0  0.27101  0.15160  0.86075  1.0000
  S   S761      1.0  0.29642  0.16467  0.85405  1.0000
  Fe  Fe381     1.0  0.26054  0.18069  0.84758  1.0000
  C   C2305     1.0  0.24293  0.22988  0.94174  1.0000
  Fe  Fe382     1.0  0.25814  0.16399  0.86782  1.0000
  H   H2297     1.0  0.24461  0.11579  0.84807  1.0000
  Fe  Fe383     1.0  0.26400  0.15768  0.84620  1.0000
  S   S762      1.0  0.25957  0.15028  0.83504  1.0000
  S   S763      1.0  0.26739  0.17663  0.86181  1.0000
  S   S764      1.0  0.27368  0.17017  0.83872  1.0000
  Fe  Fe384     1.0  0.29183  0.25273  0.95318  1.0000
  S   S765      1.0  0.27477  0.25574  0.95237  1.0000
  Fe  Fe385     1.0  0.29932  0.24983  0.93016  1.0000
  S   S766      1.0  0.28300  0.25234  0.92773  1.0000
  S   S767      1.0  0.31253  0.24780  0.91598  1.0000
  Fe  Fe386     1.0  0.27933  0.26549  0.93609  1.0000
  S   S768      1.0  0.26871  0.28079  0.93020  1.0000
  Fe  Fe387     1.0  0.27977  0.24240  0.94398  1.0000
  S   S769      1.0  0.29603  0.26382  0.93754  1.0000
  S   S770      1.0  0.29655  0.23853  0.94571  1.0000
  H   H2298     1.0  0.26425  0.35548  0.82734  1.0000
  H   H2299     1.0  0.39831  0.24026  0.79175  1.0000
  H   H2300     1.0  0.24846  0.19782  0.87366  1.0000
  S   S771      1.0  0.25219  0.37395  0.79766  1.0000
  S   S772      1.0  0.27011  0.22999  0.94895  1.0000
  S   S773      1.0  0.25329  0.35358  0.78758  1.0000
  C   C2306     1.0  0.24958  0.32397  0.81835  1.0000
  Fe  Fe388     1.0  0.24459  0.10788  0.80037  1.0000
  Fe  Fe389     1.0  0.26283  0.36567  0.78516  1.0000
  H   H2301     1.0  0.27541  0.14515  0.79441  1.0000
  C   C2307     1.0  0.25898  0.35210  0.82471  1.0000
  S   S774      1.0  0.29814  0.24906  0.96828  1.0000
  C   C2308     1.0  0.39842  0.22051  0.81352  1.0000
  C   C2309     1.0  0.31134  0.20015  0.82714  1.0000
  H   H2302     1.0  0.29132  0.24923  0.87963  1.0000
  H   H2303     1.0  0.26251  0.22530  0.97138  1.0000
  H   H2304     1.0  0.26878  0.17525  0.93817  1.0000
  H   H2305     1.0  0.27657  0.21722  0.93193  1.0000
  C   C2310     1.0  0.29225  0.10551  0.81090  1.0000
  C   C2311     1.0  0.24283  0.23737  0.93226  1.0000
  C   C2312     1.0  0.25140  0.18558  0.90265  1.0000
  C   C2313     1.0  0.26958  0.34597  0.80879  1.0000
  Fe  Fe390     1.0  0.38380  0.21947  0.78648  1.0000
  S   S775      1.0  0.39971  0.21020  0.78941  1.0000
  S   S776      1.0  0.36904  0.22572  0.79771  1.0000
  S   S777      1.0  0.41732  0.23220  0.77716  1.0000
  H   H2306     1.0  0.25404  0.41881  0.79963  1.0000
  H   H2307     1.0  0.31180  0.25906  0.87361  1.0000
  H   H2308     1.0  0.26546  0.20117  0.85767  1.0000
  N   N193      1.0  0.26654  0.19187  0.93553  1.0000
  C   C2314     1.0  0.27560  0.33799  0.80349  1.0000
  C   C2315     1.0  0.26154  0.21787  0.85181  1.0000
  H   H2309     1.0  0.25130  0.22186  0.95417  1.0000
  H   H2310     1.0  0.31755  0.22559  0.93324  1.0000
  H   H2311     1.0  0.28460  0.41533  0.78086  1.0000
  H   H2312     1.0  0.24405  0.06913  0.80868  1.0000
  H   H2313     1.0  0.38469  0.21814  0.82586  1.0000
  C   C2316     1.0  0.39123  0.17317  0.77867  1.0000
  Fe  Fe391     1.0  0.26023  0.08714  0.79917  1.0000
  H   H2314     1.0  0.25459  0.14302  0.81952  1.0000
  S   S778      1.0  0.26409  0.07159  0.79407  1.0000
  Fe  Fe392     1.0  0.26227  0.10233  0.81192  1.0000
  S   S779      1.0  0.25667  0.11657  0.80014  1.0000
  S   S780      1.0  0.26722  0.10450  0.82596  1.0000
  H   H2315     1.0  0.37291  0.23373  0.81753  1.0000
  C   C2317     1.0  0.28485  0.11873  0.79683  1.0000
  Fe  Fe393     1.0  0.26706  0.10765  0.78801  1.0000
  H   H2316     1.0  0.30365  0.27822  0.89658  1.0000
  H   H2317     1.0  0.25952  0.18260  0.92987  1.0000
  S   S781      1.0  0.27363  0.09393  0.79968  1.0000
  C   C2318     1.0  0.37779  0.24690  0.79903  1.0000
  N   N194      1.0  0.28756  0.11640  0.80641  1.0000
  C   C2319     1.0  0.26634  0.20878  0.85817  1.0000
  S   S782      1.0  0.24952  0.09390  0.81285  1.0000
  H   H2318     1.0  0.26839  0.35407  0.80440  1.0000
  C   C2320     1.0  0.24535  0.06466  0.80271  1.0000
  H   H2319     1.0  0.28852  0.12243  0.81917  1.0000
  H   H2320     1.0  0.31431  0.27392  0.87947  1.0000
  H   H2321     1.0  0.30506  0.20650  0.82455  1.0000
  C   C2321     1.0  0.29386  0.25750  0.89644  1.0000
  H   H2322     1.0  0.27400  0.31711  0.82426  1.0000
  H   H2323     1.0  0.24149  0.28486  0.82293  1.0000
  H   H2324     1.0  0.25012  0.04817  0.78157  1.0000
  C   C2322     1.0  0.31866  0.18157  0.83220  1.0000
  C   C2323     1.0  0.27296  0.32523  0.81986  1.0000
  C   C2324     1.0  0.25448  0.06455  0.79473  1.0000
  C   C2325     1.0  0.25615  0.05855  0.78714  1.0000
  C   C2326     1.0  0.24785  0.32001  0.82927  1.0000
  H   H2325     1.0  0.26275  0.19166  0.95200  1.0000
  H   H2326     1.0  0.27173  0.19934  0.87982  1.0000
  C   C2327     1.0  0.33706  0.22774  0.91326  1.0000
  S   S783      1.0  0.25427  0.10061  0.78683  1.0000
  H   H2327     1.0  0.33322  0.20126  0.91066  1.0000
  C   C2328     1.0  0.27676  0.19998  0.87176  1.0000
  H   H2328     1.0  0.30524  0.24353  0.87761  1.0000
  Fe  Fe394     1.0  0.25183  0.29774  0.85096  1.0000
  N   N195      1.0  0.27222  0.20949  0.86472  1.0000
  H   H2329     1.0  0.33287  0.17776  0.83806  1.0000
  H   H2330     1.0  0.28812  0.25289  0.90126  1.0000
  H   H2331     1.0  0.24343  0.10380  0.83759  1.0000
  S   S784      1.0  0.25407  0.19798  0.84265  1.0000
  H   H2332     1.0  0.31975  0.21054  0.82941  1.0000
  N   N196      1.0  0.32743  0.19438  0.83353  1.0000
  C   C2329     1.0  0.24872  0.05279  0.78744  1.0000
  H   H2333     1.0  0.29071  0.10405  0.81965  1.0000
  H   H2334     1.0  0.27781  0.21002  0.91633  1.0000
  H   H2335     1.0  0.32984  0.22072  0.93781  1.0000
  N   N197      1.0  0.38489  0.23782  0.80411  1.0000
  C   C2330     1.0  0.26008  0.42262  0.78288  1.0000
  H   H2336     1.0  0.25424  0.31884  0.81306  1.0000
  H   H2337     1.0  0.32658  0.23402  0.93037  1.0000
  H   H2338     1.0  0.26352  0.33150  0.83324  1.0000
  H   H2339     1.0  0.28177  0.32127  0.80504  1.0000
  C   C2331     1.0  0.25927  0.23344  0.94288  1.0000
  H   H2340     1.0  0.37897  0.25433  0.80017  1.0000
  H   H2341     1.0  0.27750  0.19271  0.86896  1.0000
  S   S785      1.0  0.25935  0.30024  0.88448  1.0000
  H   H2342     1.0  0.25567  0.18191  0.94374  1.0000
  H   H2343     1.0  0.33660  0.20520  0.83350  1.0000
  C   C2332     1.0  0.30709  0.26092  0.88104  1.0000
  H   H2344     1.0  0.30089  0.10381  0.80769  1.0000
  C   C2333     1.0  0.33460  0.20855  0.91147  1.0000
  C   C2334     1.0  0.32694  0.18409  0.83482  1.0000
  H   H2345     1.0  0.34384  0.19206  0.83312  1.0000
  C   C2335     1.0  0.27394  0.21000  0.93292  1.0000
  C   C2336     1.0  0.28199  0.13470  0.80735  1.0000
  H   H2346     1.0  0.24708  0.33755  0.80577  1.0000
  C   C2337     1.0  0.30257  0.27177  0.89388  1.0000
  H   H2347     1.0  0.25302  0.34921  0.83163  1.0000
  H   H2348     1.0  0.27126  0.19382  0.91880  1.0000
  S   S786      1.0  0.25340  0.19414  0.90947  1.0000
  S   S787      1.0  0.26646  0.43207  0.78388  1.0000
  C   C2338     1.0  0.29823  0.24645  0.88346  1.0000
  H   H2349     1.0  0.29696  0.23963  0.89010  1.0000
  C   C2339     1.0  0.32610  0.22570  0.93122  1.0000
  H   H2350     1.0  0.28074  0.14085  0.81165  1.0000
  C   C2340     1.0  0.27723  0.32755  0.80907  1.0000
  H   H2351     1.0  0.40365  0.21361  0.81706  1.0000
  H   H2352     1.0  0.28508  0.26950  0.97239  1.0000
  C   C2341     1.0  0.33612  0.19677  0.83647  1.0000
  H   H2353     1.0  0.34372  0.21186  0.89565  1.0000
  H   H2354     1.0  0.25897  0.23485  0.84744  1.0000
  S   S788      1.0  0.24536  0.20916  0.93128  1.0000
  S   S789      1.0  0.24713  0.16379  0.88382  1.0000
  H   H2355     1.0  0.41046  0.22491  0.79997  1.0000
  C   C2342     1.0  0.25116  0.22787  0.94700  1.0000
  N   N198      1.0  0.33120  0.22186  0.92149  1.0000
  C   C2343     1.0  0.38782  0.22306  0.81847  1.0000
  C   C2344     1.0  0.25892  0.24126  0.93365  1.0000
  C   C2345     1.0  0.24858  0.40843  0.78177  1.0000
  Fe  Fe395     1.0  0.25510  0.29283  0.87349  1.0000
  H   H2356     1.0  0.26513  0.24554  0.93036  1.0000
  H   H2357     1.0  0.38058  0.16309  0.78052  1.0000
  C   C2346     1.0  0.26247  0.13746  0.83255  1.0000
  C   C2347     1.0  0.25875  0.13620  0.82429  1.0000
  C   C2348     1.0  0.26022  0.12618  0.82221  1.0000
  C   C2349     1.0  0.26544  0.11725  0.82836  1.0000
  C   C2350     1.0  0.26921  0.11849  0.83663  1.0000
  C   C2351     1.0  0.26775  0.12857  0.83873  1.0000
  H   H2358     1.0  0.28601  0.11257  0.79259  1.0000
  H   H2359     1.0  0.25713  0.12542  0.81595  1.0000
  H   H2360     1.0  0.27323  0.11162  0.84149  1.0000
  H   H2361     1.0  0.27058  0.12944  0.84518  1.0000
  H   H2362     1.0  0.24450  0.08447  0.78087  1.0000
  C   C2352     1.0  0.25861  0.17476  0.88946  1.0000
  C   C2353     1.0  0.25985  0.18152  0.89515  1.0000
  C   C2354     1.0  0.27091  0.19680  0.92565  1.0000
  H   H2363     1.0  0.26529  0.17142  0.88396  1.0000
  H   H2364     1.0  0.26746  0.18345  0.89384  1.0000
  C   C2355     1.0  0.35737  0.21065  0.83231  1.0000
  C   C2356     1.0  0.35187  0.22033  0.82750  1.0000
  C   C2357     1.0  0.35545  0.22467  0.81683  1.0000
  C   C2358     1.0  0.36461  0.21944  0.81087  1.0000
  C   C2359     1.0  0.37019  0.20979  0.81566  1.0000
  C   C2360     1.0  0.36656  0.20541  0.82637  1.0000
  H   H2365     1.0  0.34492  0.22455  0.83200  1.0000
  H   H2366     1.0  0.35114  0.23219  0.81320  1.0000
  H   H2367     1.0  0.37730  0.20573  0.81115  1.0000
  H   H2368     1.0  0.37087  0.19792  0.83004  1.0000
  C   C2361     1.0  0.29961  0.19799  0.85246  1.0000
  C   C2362     1.0  0.29181  0.19642  0.84831  1.0000
  C   C2363     1.0  0.29077  0.18619  0.84889  1.0000
  C   C2364     1.0  0.29764  0.17747  0.85349  1.0000
  C   C2365     1.0  0.30558  0.17902  0.85750  1.0000
  C   C2366     1.0  0.30653  0.18929  0.85705  1.0000
  H   H2369     1.0  0.28659  0.20313  0.84456  1.0000
  H   H2370     1.0  0.28478  0.18507  0.84556  1.0000
  H   H2371     1.0  0.31091  0.17228  0.86107  1.0000
  H   H2372     1.0  0.31256  0.19045  0.86028  1.0000
  C   C2367     1.0  0.31519  0.22170  0.89914  1.0000
  C   C2368     1.0  0.31962  0.23045  0.89382  1.0000
  C   C2369     1.0  0.31841  0.23865  0.89892  1.0000
  C   C2370     1.0  0.31248  0.23830  0.90923  1.0000
  C   C2371     1.0  0.30742  0.22992  0.91430  1.0000
  C   C2372     1.0  0.30892  0.22154  0.90932  1.0000
  H   H2373     1.0  0.32446  0.23065  0.88597  1.0000
  H   H2374     1.0  0.32233  0.24513  0.89496  1.0000
  H   H2375     1.0  0.30278  0.22963  0.92225  1.0000
  H   H2376     1.0  0.30544  0.21480  0.91345  1.0000
  H   H2377     1.0  0.31807  0.17340  0.83356  1.0000
  H   H2378     1.0  0.28865  0.09985  0.80910  1.0000
  H   H2379     1.0  0.27815  0.13086  0.78485  1.0000
  C   C2373     1.0  0.25076  0.24317  0.92829  1.0000
  C   C2374     1.0  0.34181  0.22416  0.90391  1.0000
  S   S790      1.0  0.24690  0.02547  0.77696  1.0000
  C   C2375     1.0  0.26301  0.29404  0.89667  1.0000
  C   C2376     1.0  0.26268  0.30060  0.90327  1.0000
  C   C2377     1.0  0.26478  0.29634  0.91334  1.0000
  C   C2378     1.0  0.26751  0.28543  0.91693  1.0000
  C   C2379     1.0  0.26818  0.27874  0.91026  1.0000
  C   C2380     1.0  0.26584  0.28305  0.90013  1.0000
  C   C2381     1.0  0.28037  0.40088  0.78113  1.0000
  H   H2380     1.0  0.26418  0.30156  0.91843  1.0000
  H   H2381     1.0  0.27011  0.27029  0.91303  1.0000
  H   H2382     1.0  0.26610  0.27793  0.89506  1.0000
  C   C2382     1.0  0.28196  0.25736  0.85747  1.0000
  C   C2383     1.0  0.28847  0.24853  0.85381  1.0000
  C   C2384     1.0  0.29941  0.24677  0.85254  1.0000
  C   C2385     1.0  0.30390  0.25382  0.85495  1.0000
  C   C2386     1.0  0.29746  0.26291  0.85819  1.0000
  C   C2387     1.0  0.28646  0.26461  0.85958  1.0000
  H   H2383     1.0  0.28510  0.24298  0.85197  1.0000
  H   H2384     1.0  0.30436  0.23989  0.84976  1.0000
  H   H2385     1.0  0.30090  0.26845  0.85995  1.0000
  H   H2386     1.0  0.25702  0.21725  0.84651  1.0000
  C   C2388     1.0  0.40224  0.22683  0.80393  1.0000
  C   C2389     1.0  0.31967  0.20238  0.82993  1.0000
  C   C2390     1.0  0.26267  0.22772  0.85230  1.0000
  C   C2391     1.0  0.26613  0.19560  0.94415  1.0000
  S   S791      1.0  0.28035  0.36219  0.78330  1.0000
  H   H2387     1.0  0.28486  0.20026  0.87209  1.0000
  H   H2388     1.0  0.27894  0.33994  0.79511  1.0000
  C   C2392     1.0  0.27894  0.13711  0.79772  1.0000
  C   C2393     1.0  0.30856  0.26933  0.88432  1.0000
  H   H2389     1.0  0.30423  0.18781  0.82651  1.0000
  C   C2394     1.0  0.27345  0.21911  0.86516  1.0000
  S   S792      1.0  0.24641  0.28268  0.85376  1.0000
  N   N199      1.0  0.26520  0.34360  0.81931  1.0000
  C   C2395     1.0  0.26976  0.20475  0.94298  1.0000
  H   H2390     1.0  0.24409  0.13346  0.84908  1.0000
  C   C2396     1.0  0.26247  0.18242  0.93690  1.0000
  C   C2397     1.0  0.33001  0.21234  0.92073  1.0000
  H   H2391     1.0  0.26915  0.20786  0.94980  1.0000
  N   N200      1.0  0.29986  0.25508  0.88712  1.0000
  H   H2392     1.0  0.39261  0.17009  0.78659  1.0000
  C   C2398     1.0  0.24560  0.33460  0.81419  1.0000
  C   C2399     1.0  0.25431  0.41728  0.79207  1.0000
  H   H2393     1.0  0.29056  0.26765  0.90746  1.0000
  C   C2400     1.0  0.29517  0.26583  0.89998  1.0000
  H   H2394     1.0  0.36938  0.24636  0.80225  1.0000
  C   C2401     1.0  0.26864  0.22837  0.85902  1.0000
  S   S793      1.0  0.25394  0.30685  0.83398  1.0000
  C   C2402     1.0  0.24853  0.41024  0.79152  1.0000
  C   C2403     1.0  0.31086  0.18967  0.82826  1.0000
  H   H2395     1.0  0.33505  0.19496  0.84517  1.0000
  C   C2404     1.0  0.28044  0.12910  0.79238  1.0000
  C   C2405     1.0  0.39532  0.23550  0.79930  1.0000
  H   H2396     1.0  0.26054  0.30908  0.90067  1.0000
  H   H2397     1.0  0.34614  0.22900  0.89727  1.0000
  H   H2398     1.0  0.33776  0.23543  0.91375  1.0000
  H   H2399     1.0  0.27826  0.21967  0.87021  1.0000
  C   C2406     1.0  0.28636  0.12425  0.81158  1.0000
  H   H2400     1.0  0.37926  0.24709  0.79047  1.0000
  C   C2407     1.0  0.34050  0.21453  0.90301  1.0000
  H   H2401     1.0  0.27791  0.38643  0.77925  1.0000
  C   C2408     1.0  0.38117  0.23189  0.81369  1.0000
  H   H2402     1.0  0.32520  0.20778  0.92716  1.0000
  C   C2409     1.0  0.27461  0.20597  0.92419  1.0000
  C   C2410     1.0  0.26698  0.33341  0.82490  1.0000
  H   H2403     1.0  0.24267  0.18509  0.86750  1.0000
  Fe  Fe396     1.0  0.24406  0.38405  0.78476  1.0000
  C   C2411     1.0  0.28610  0.40884  0.77695  1.0000
  H   H2404     1.0  0.24370  0.40653  0.79861  1.0000
  S   S794      1.0  0.24991  0.27745  0.87811  1.0000
  H   H2405     1.0  0.25093  0.24873  0.92081  1.0000
  S   S795      1.0  0.25036  0.16880  0.85403  1.0000
  H   H2406     1.0  0.26325  0.05832  0.78102  1.0000
  C   C2412     1.0  0.24103  0.28553  0.91330  1.0000
  H   H2407     1.0  0.24502  0.29025  0.91566  1.0000
  C   C2413     1.0  0.24484  0.27129  0.92842  1.0000
  H   H2408     1.0  0.25292  0.26658  0.92614  1.0000
  H   H2409     1.0  0.24553  0.27761  0.93192  1.0000
  H   H2410     1.0  0.24964  0.44962  0.77670  1.0000
  C   C2414     1.0  0.24890  0.17197  0.89122  1.0000
  H   H2411     1.0  0.27793  0.23333  0.96807  1.0000
  C   C2415     1.0  0.27181  0.23392  0.97514  1.0000
  C   C2416     1.0  0.24179  0.32669  0.83604  1.0000
  Fe  Fe397     1.0  0.24194  0.36261  0.79928  1.0000
  C   C2417     1.0  0.24167  0.18277  0.90451  1.0000
  S   S796      1.0  0.24136  0.30203  0.86590  1.0000
  C   C2418     1.0  0.24207  0.44689  0.77912  1.0000
  Fe  Fe398     1.0  0.40644  0.22248  0.77624  1.0000
  C   C2419     1.0  0.24063  0.11900  0.84152  1.0000
  S   S797      1.0  0.40506  0.18554  0.77630  1.0000
  H   H2412     1.0  0.32161  0.76532  0.06611  1.0000
  S   S798      1.0  0.27706  0.85823  0.15602  1.0000
  C   C2420     1.0  0.29137  0.77579  0.12215  1.0000
  Fe  Fe399     1.0  0.26760  0.85006  0.15051  1.0000
  S   S799      1.0  0.27592  0.84061  0.13789  1.0000
  H   H2413     1.0  0.29295  0.74315  0.02128  1.0000
  H   H2414     1.0  0.47741  0.70401  0.17115  1.0000
  H   H2415     1.0  0.25317  0.70187  0.09081  1.0000
  Fe  Fe400     1.0  0.25913  0.81061  0.10594  1.0000
  S   S800      1.0  0.26833  0.79659  0.11534  1.0000
  S   S801      1.0  0.25087  0.82435  0.11390  1.0000
  Fe  Fe401     1.0  0.26463  0.80050  0.08672  1.0000
  S   S802      1.0  0.27441  0.78590  0.09480  1.0000
  H   H2416     1.0  0.32904  0.77493  0.06466  1.0000
  Fe  Fe402     1.0  0.26117  0.78717  0.10883  1.0000
  Fe  Fe403     1.0  0.28058  0.79673  0.10038  1.0000
  S   S803      1.0  0.29752  0.79576  0.10019  1.0000
  C   C2421     1.0  0.31858  0.67526  0.98569  1.0000
  S   S804      1.0  0.27193  0.81142  0.09125  1.0000
  Fe  Fe404     1.0  0.30064  0.65971  0.10053  1.0000
  S   S805      1.0  0.30149  0.67671  0.09729  1.0000
  S   S806      1.0  0.31282  0.64888  0.09119  1.0000
  Fe  Fe405     1.0  0.28106  0.66191  0.11786  1.0000
  S   S807      1.0  0.28002  0.67917  0.11575  1.0000
  S   S808      1.0  0.26898  0.65533  0.13127  1.0000
  Fe  Fe406     1.0  0.28408  0.67953  0.09849  1.0000
  S   S809      1.0  0.27534  0.69221  0.08745  1.0000
  Fe  Fe407     1.0  0.29739  0.67456  0.11484  1.0000
  S   S810      1.0  0.30550  0.67998  0.12423  1.0000
  S   S811      1.0  0.28342  0.66263  0.10058  1.0000
  S   S812      1.0  0.29827  0.65723  0.11804  1.0000
  Fe  Fe408     1.0  0.33074  0.74257  0.09199  1.0000
  S   S813      1.0  0.34415  0.72849  0.09050  1.0000
  S   S814      1.0  0.33275  0.75889  0.08365  1.0000
  Fe  Fe409     1.0  0.31563  0.72984  0.10688  1.0000
  S   S815      1.0  0.32781  0.71484  0.10682  1.0000
  S   S816      1.0  0.29887  0.72914  0.11487  1.0000
  Fe  Fe410     1.0  0.33892  0.72409  0.10818  1.0000
  S   S817      1.0  0.34950  0.71663  0.12015  1.0000
  Fe  Fe411     1.0  0.33167  0.72074  0.08932  1.0000
  S   S818      1.0  0.33271  0.70894  0.07954  1.0000
  S   S819      1.0  0.32622  0.73868  0.10964  1.0000
  S   S820      1.0  0.31882  0.73526  0.08937  1.0000
  S   S821      1.0  0.28143  0.60604  0.14761  1.0000
  H   H2417     1.0  0.26202  0.73433  0.01150  1.0000
  N   N201      1.0  0.26017  0.68582  0.13702  1.0000
  C   C2422     1.0  0.25087  0.76764  0.08986  1.0000
  C   C2423     1.0  0.24568  0.80363  0.06691  1.0000
  S   S822      1.0  0.26085  0.74780  0.04539  1.0000
  H   H2418     1.0  0.30814  0.57919  0.16960  1.0000
  Fe  Fe412     1.0  0.30855  0.68342  0.03645  1.0000
  S   S823      1.0  0.31720  0.69573  0.02557  1.0000
  S   S824      1.0  0.31697  0.66685  0.04231  1.0000
  Fe  Fe413     1.0  0.28725  0.69775  0.03591  1.0000
  S   S825      1.0  0.29408  0.71116  0.02518  1.0000
  S   S826      1.0  0.26971  0.70074  0.04119  1.0000
  Fe  Fe414     1.0  0.30456  0.69902  0.01620  1.0000
  S   S827      1.0  0.30700  0.70279  0.99826  1.0000
  Fe  Fe415     1.0  0.30581  0.70663  0.03563  1.0000
  S   S828      1.0  0.30804  0.71949  0.04233  1.0000
  S   S829      1.0  0.29687  0.68586  0.02638  1.0000
  S   S830      1.0  0.29805  0.69409  0.04701  1.0000
  Fe  Fe416     1.0  0.38033  0.73575  0.15328  1.0000
  H   H2419     1.0  0.25505  0.86715  0.12534  1.0000
  S   S831      1.0  0.37312  0.74052  0.13868  1.0000
  Fe  Fe417     1.0  0.39944  0.72312  0.16298  1.0000
  C   C2424     1.0  0.24506  0.77026  0.11586  1.0000
  S   S832      1.0  0.41398  0.71016  0.16079  1.0000
  H   H2420     1.0  0.33895  0.67410  0.07437  1.0000
  C   C2425     1.0  0.29671  0.56073  0.16746  1.0000
  H   H2421     1.0  0.24372  0.83558  0.13083  1.0000
  S   S833      1.0  0.24791  0.77502  0.03012  1.0000
  S   S834      1.0  0.38373  0.71970  0.16376  1.0000
  S   S835      1.0  0.39666  0.73847  0.15133  1.0000
  C   C2426     1.0  0.27761  0.67787  0.06273  1.0000
  N   N202      1.0  0.27684  0.74458  0.02122  1.0000
  H   H2422     1.0  0.28191  0.75139  0.11452  1.0000
  C   C2427     1.0  0.30288  0.84066  0.16375  1.0000
  H   H2423     1.0  0.38078  0.78243  0.16933  1.0000
  C   C2428     1.0  0.28468  0.76919  0.12277  1.0000
  H   H2424     1.0  0.24995  0.75335  0.11832  1.0000
  S   S836      1.0  0.26465  0.88823  0.15286  1.0000
  C   C2429     1.0  0.28166  0.75204  0.12263  1.0000
  C   C2430     1.0  0.24525  0.76085  0.08867  1.0000
  H   H2425     1.0  0.30445  0.70813  0.97681  1.0000
  H   H2426     1.0  0.27650  0.72886  0.02111  1.0000
  C   C2431     1.0  0.26257  0.73457  0.04494  1.0000
  C   C2432     1.0  0.27107  0.72728  0.04855  1.0000
  C   C2433     1.0  0.27306  0.71679  0.04766  1.0000
  C   C2434     1.0  0.26639  0.71350  0.04342  1.0000
  C   C2435     1.0  0.25772  0.72071  0.04005  1.0000
  C   C2436     1.0  0.25588  0.73128  0.04070  1.0000
  H   H2427     1.0  0.27632  0.72980  0.05174  1.0000
  H   H2428     1.0  0.27983  0.71126  0.05017  1.0000
  H   H2429     1.0  0.25274  0.71822  0.03650  1.0000
  H   H2430     1.0  0.24945  0.73687  0.03770  1.0000
  Fe  Fe418     1.0  0.24679  0.75885  0.03983  1.0000
  C   C2437     1.0  0.29032  0.68515  0.99151  1.0000
  C   C2438     1.0  0.29471  0.68973  0.99710  1.0000
  C   C2439     1.0  0.30001  0.69790  0.99182  1.0000
  C   C2440     1.0  0.24205  0.72780  0.07886  1.0000
  H   H2431     1.0  0.26257  0.84400  0.10017  1.0000
  H   H2432     1.0  0.28641  0.67870  0.99566  1.0000
  H   H2433     1.0  0.29424  0.68671  0.00545  1.0000
  C   C2441     1.0  0.29176  0.72033  0.08079  1.0000
  C   C2442     1.0  0.43386  0.70063  0.16358  1.0000
  C   C2443     1.0  0.35502  0.72374  0.12594  1.0000
  C   C2444     1.0  0.35553  0.73431  0.12164  1.0000
  C   C2445     1.0  0.36073  0.73943  0.12594  1.0000
  C   C2446     1.0  0.36538  0.73412  0.13464  1.0000
  C   C2447     1.0  0.36455  0.72365  0.13917  1.0000
  C   C2448     1.0  0.35950  0.71847  0.13477  1.0000
  H   H2434     1.0  0.35215  0.73847  0.11485  1.0000
  H   H2435     1.0  0.36131  0.74753  0.12236  1.0000
  H   H2436     1.0  0.36804  0.71947  0.14589  1.0000
  H   H2437     1.0  0.35909  0.71031  0.13819  1.0000
  C   C2449     1.0  0.32582  0.71204  0.06918  1.0000
  C   C2450     1.0  0.32015  0.72223  0.06586  1.0000
  C   C2451     1.0  0.31472  0.72438  0.05766  1.0000
  C   C2452     1.0  0.31482  0.71636  0.05275  1.0000
  C   C2453     1.0  0.32030  0.70612  0.05622  1.0000
  C   C2454     1.0  0.32583  0.70399  0.06434  1.0000
  H   H2438     1.0  0.32009  0.72850  0.06947  1.0000
  H   H2439     1.0  0.31052  0.73232  0.05502  1.0000
  H   H2440     1.0  0.32046  0.69988  0.05249  1.0000
  H   H2441     1.0  0.33019  0.69609  0.06681  1.0000
  C   C2455     1.0  0.30252  0.69367  0.12280  1.0000
  C   C2456     1.0  0.29473  0.70000  0.11739  1.0000
  C   C2457     1.0  0.29292  0.71102  0.11574  1.0000
  C   C2458     1.0  0.29913  0.71565  0.11922  1.0000
  C   C2459     1.0  0.30667  0.70929  0.12493  1.0000
  C   C2460     1.0  0.30831  0.69830  0.12679  1.0000
  H   H2442     1.0  0.29025  0.69643  0.11433  1.0000
  H   H2443     1.0  0.28718  0.71595  0.11122  1.0000
  H   H2444     1.0  0.31150  0.71284  0.12763  1.0000
  H   H2445     1.0  0.31433  0.69341  0.13100  1.0000
  C   C2461     1.0  0.31450  0.65437  0.07766  1.0000
  C   C2462     1.0  0.30857  0.66429  0.07396  1.0000
  C   C2463     1.0  0.30963  0.66841  0.06310  1.0000
  C   C2464     1.0  0.31653  0.66258  0.05590  1.0000
  C   C2465     1.0  0.32262  0.65275  0.05963  1.0000
  C   C2466     1.0  0.32164  0.64867  0.07049  1.0000
  H   H2446     1.0  0.30291  0.66868  0.07941  1.0000
  H   H2447     1.0  0.30480  0.67590  0.06036  1.0000
  H   H2448     1.0  0.32796  0.64819  0.05410  1.0000
  H   H2449     1.0  0.32626  0.64099  0.07332  1.0000
  C   C2467     1.0  0.26767  0.70141  0.09497  1.0000
  C   C2468     1.0  0.27233  0.70480  0.10120  1.0000
  H   H2450     1.0  0.28075  0.70235  0.10072  1.0000
  C   C2469     1.0  0.30703  0.78513  0.09599  1.0000
  C   C2470     1.0  0.30429  0.77608  0.09518  1.0000
  C   C2471     1.0  0.31221  0.76773  0.09181  1.0000
  C   C2472     1.0  0.32280  0.76862  0.08894  1.0000
  C   C2473     1.0  0.32547  0.77769  0.08966  1.0000
  C   C2474     1.0  0.31763  0.78583  0.09335  1.0000
  H   H2451     1.0  0.29612  0.77546  0.09730  1.0000
  H   H2452     1.0  0.31013  0.76073  0.09121  1.0000
  H   H2453     1.0  0.33364  0.77838  0.08745  1.0000
  H   H2454     1.0  0.31978  0.79278  0.09400  1.0000
  S   S837      1.0  0.26604  0.79932  0.06994  1.0000
  H   H2455     1.0  0.24396  0.80983  0.07120  1.0000
  S   S838      1.0  0.39448  0.76000  0.16701  1.0000
  C   C2475     1.0  0.26088  0.84944  0.10536  1.0000
  H   H2456     1.0  0.43381  0.69607  0.15811  1.0000
  H   H2457     1.0  0.32436  0.65578  0.10326  1.0000
  N   N203      1.0  0.29227  0.62933  0.16400  1.0000
  N   N204      1.0  0.29113  0.82891  0.16719  1.0000
  C   C2476     1.0  0.27769  0.61964  0.14267  1.0000
  C   C2477     1.0  0.28378  0.62459  0.13345  1.0000
  C   C2478     1.0  0.28108  0.63556  0.12979  1.0000
  C   C2479     1.0  0.27218  0.64156  0.13526  1.0000
  C   C2480     1.0  0.26598  0.63657  0.14434  1.0000
  C   C2481     1.0  0.26882  0.62567  0.14812  1.0000
  H   H2458     1.0  0.29065  0.61996  0.12919  1.0000
  H   H2459     1.0  0.28587  0.63936  0.12272  1.0000
  H   H2460     1.0  0.25903  0.64116  0.14854  1.0000
  C   C2482     1.0  0.25679  0.70467  0.09550  1.0000
  H   H2461     1.0  0.25809  0.76451  0.09281  1.0000
  C   C2483     1.0  0.26874  0.83490  0.13249  1.0000
  C   C2484     1.0  0.27426  0.82845  0.12527  1.0000
  C   C2485     1.0  0.26881  0.82467  0.11998  1.0000
  C   C2486     1.0  0.25779  0.82739  0.12179  1.0000
  C   C2487     1.0  0.25225  0.83353  0.12929  1.0000
  C   C2488     1.0  0.25770  0.83724  0.13466  1.0000
  H   H2462     1.0  0.28280  0.82658  0.12355  1.0000
  H   H2463     1.0  0.27317  0.81997  0.11421  1.0000
  C   C2489     1.0  0.26717  0.85799  0.11534  1.0000
  H   H2464     1.0  0.25336  0.84214  0.14026  1.0000
  C   C2490     1.0  0.24853  0.86009  0.11657  1.0000
  C   C2491     1.0  0.30222  0.77179  0.12083  1.0000
  H   H2465     1.0  0.32544  0.66853  0.98622  1.0000
  H   H2466     1.0  0.27159  0.67197  0.14142  1.0000
  C   C2492     1.0  0.32758  0.66269  0.09902  1.0000
  H   H2467     1.0  0.26285  0.71094  0.13307  1.0000
  C   C2493     1.0  0.28930  0.66455  0.05365  1.0000
  H   H2468     1.0  0.29778  0.58597  0.15626  1.0000
  C   C2494     1.0  0.24736  0.91011  0.16988  1.0000
  Fe  Fe419     1.0  0.24781  0.85670  0.16610  1.0000
  C   C2495     1.0  0.25016  0.78797  0.05525  1.0000
  H   H2469     1.0  0.24561  0.72807  0.08509  1.0000
  H   H2470     1.0  0.32399  0.66942  0.11262  1.0000
  H   H2471     1.0  0.24351  0.88553  0.16271  1.0000
  H   H2472     1.0  0.29754  0.83901  0.14105  1.0000
  C   C2496     1.0  0.25309  0.67992  0.13568  1.0000
  H   H2473     1.0  0.33208  0.68401  0.11247  1.0000
  H   H2474     1.0  0.30431  0.57597  0.14863  1.0000
  C   C2497     1.0  0.25795  0.78929  0.05968  1.0000
  H   H2475     1.0  0.32418  0.77447  0.05358  1.0000
  S   S839      1.0  0.25534  0.86535  0.17303  1.0000
  H   H2476     1.0  0.37961  0.80012  0.17306  1.0000
  N   N205      1.0  0.33132  0.67921  0.09888  1.0000
  C   C2498     1.0  0.25517  0.71416  0.10901  1.0000
  H   H2477     1.0  0.27534  0.67372  0.07963  1.0000
  H   H2478     1.0  0.27360  0.85930  0.11795  1.0000
  H   H2479     1.0  0.28630  0.80037  0.07358  1.0000
  H   H2480     1.0  0.28707  0.73277  0.03034  1.0000
  C   C2499     1.0  0.25778  0.69661  0.13457  1.0000
  H   H2481     1.0  0.33630  0.69257  0.10018  1.0000
  H   H2482     1.0  0.27626  0.77241  0.12363  1.0000
  C   C2500     1.0  0.25675  0.86233  0.11956  1.0000
  C   C2501     1.0  0.30157  0.62351  0.15777  1.0000
  C   C2502     1.0  0.30677  0.70273  0.08702  1.0000
  C   C2503     1.0  0.25424  0.89558  0.16070  1.0000
  C   C2504     1.0  0.24692  0.77849  0.08766  1.0000
  H   H2483     1.0  0.29102  0.71632  0.06125  1.0000
  H   H2484     1.0  0.30976  0.71186  0.09640  1.0000
  C   C2505     1.0  0.33573  0.67298  0.08279  1.0000
  H   H2485     1.0  0.25416  0.75346  0.00609  1.0000
  H   H2486     1.0  0.44969  0.69284  0.16529  1.0000
  H   H2487     1.0  0.30750  0.77694  0.12000  1.0000
  H   H2488     1.0  0.26405  0.62192  0.15520  1.0000
  C   C2506     1.0  0.27321  0.73719  0.01872  1.0000
  C   C2507     1.0  0.24278  0.73540  0.06950  1.0000
  H   H2489     1.0  0.29339  0.66214  0.04628  1.0000
  C   C2508     1.0  0.26477  0.70238  0.13514  1.0000
  H   H2490     1.0  0.27998  0.70144  0.13814  1.0000
  S   S840      1.0  0.26074  0.84217  0.16691  1.0000
  H   H2491     1.0  0.27218  0.70270  0.97719  1.0000
  C   C2509     1.0  0.26951  0.68052  0.13992  1.0000
  H   H2492     1.0  0.29909  0.61961  0.15278  1.0000
  H   H2493     1.0  0.27534  0.76093  0.02040  1.0000
  C   C2510     1.0  0.27255  0.75508  0.01831  1.0000
  C   C2511     1.0  0.26927  0.85153  0.10817  1.0000
  S   S841      1.0  0.25406  0.86407  0.14928  1.0000
  C   C2512     1.0  0.33052  0.68748  0.10443  1.0000
  H   H2494     1.0  0.26971  0.71373  0.11306  1.0000
  C   C2513     1.0  0.26610  0.71120  0.10818  1.0000
  C   C2514     1.0  0.30047  0.70173  0.98095  1.0000
  H   H2495     1.0  0.30630  0.61717  0.16288  1.0000
  N   N206      1.0  0.29083  0.65802  0.06307  1.0000
  C   C2515     1.0  0.29152  0.83060  0.15664  1.0000
  H   H2496     1.0  0.29617  0.72754  0.09109  1.0000
  H   H2497     1.0  0.33189  0.65808  0.08406  1.0000
  H   H2498     1.0  0.30709  0.84472  0.16670  1.0000
  N   N207      1.0  0.29349  0.71150  0.07687  1.0000
  C   C2516     1.0  0.26498  0.74024  0.01329  1.0000
  C   C2517     1.0  0.25051  0.71100  0.10260  1.0000
  H   H2499     1.0  0.30256  0.74672  0.12019  1.0000
  H   H2500     1.0  0.29282  0.64181  0.06336  1.0000
  C   C2518     1.0  0.44287  0.69877  0.16769  1.0000
  C   C2519     1.0  0.28557  0.74135  0.02679  1.0000
  C   C2520     1.0  0.29935  0.75487  0.12083  1.0000
  C   C2521     1.0  0.29750  0.72055  0.08796  1.0000
  Fe  Fe420     1.0  0.26893  0.85162  0.17231  1.0000
  H   H2501     1.0  0.27919  0.71507  0.07148  1.0000
  H   H2502     1.0  0.30120  0.64467  0.07025  1.0000
  H   H2503     1.0  0.27336  0.75519  0.12632  1.0000
  H   H2504     1.0  0.28132  0.67962  0.04589  1.0000
  N   N208      1.0  0.28870  0.75883  0.12224  1.0000
  C   C2522     1.0  0.24465  0.89234  0.16472  1.0000
  H   H2505     1.0  0.28598  0.72728  0.07830  1.0000
  S   S842      1.0  0.25083  0.80112  0.10048  1.0000
  C   C2523     1.0  0.28771  0.71165  0.06901  1.0000
  H   H2506     1.0  0.28479  0.63597  0.15092  1.0000
  Fe  Fe421     1.0  0.38996  0.74556  0.16563  1.0000
  C   C2524     1.0  0.26439  0.75842  0.01276  1.0000
  H   H2507     1.0  0.26298  0.90707  0.16008  1.0000
  H   H2508     1.0  0.36677  0.78727  0.16985  1.0000
  C   C2525     1.0  0.26057  0.75094  0.01028  1.0000
  N   N209      1.0  0.25066  0.85373  0.10954  1.0000
  H   H2509     1.0  0.26097  0.76675  0.01046  1.0000
  H   H2510     1.0  0.27734  0.84777  0.10519  1.0000
  C   C2526     1.0  0.25557  0.90452  0.16321  1.0000
  H   H2511     1.0  0.28368  0.74549  0.03338  1.0000
  H   H2512     1.0  0.28412  0.74400  0.12733  1.0000
  C   C2527     1.0  0.27435  0.69705  0.13800  1.0000
  H   H2513     1.0  0.24477  0.68439  0.13681  1.0000
  H   H2514     1.0  0.25196  0.78197  0.05070  1.0000
  C   C2528     1.0  0.24378  0.76014  0.11644  1.0000
  Fe  Fe422     1.0  0.26282  0.87148  0.15639  1.0000
  C   C2529     1.0  0.30316  0.84260  0.15299  1.0000
  C   C2530     1.0  0.28260  0.67451  0.05335  1.0000
  H   H2515     1.0  0.26577  0.78433  0.05844  1.0000
  H   H2516     1.0  0.30245  0.69586  0.07656  1.0000
  C   C2531     1.0  0.27918  0.67115  0.07230  1.0000
  H   H2517     1.0  0.28702  0.82680  0.15377  1.0000
  H   H2518     1.0  0.25051  0.70083  0.13200  1.0000
  C   C2532     1.0  0.29753  0.83747  0.14938  1.0000
  C   C2533     1.0  0.30627  0.76127  0.12013  1.0000
  H   H2519     1.0  0.33867  0.68743  0.08400  1.0000
  H   H2520     1.0  0.28826  0.70357  0.06805  1.0000
  H   H2521     1.0  0.31473  0.75816  0.11886  1.0000
  Fe  Fe423     1.0  0.27413  0.60222  0.16479  1.0000
  S   S843      1.0  0.25688  0.77178  0.11786  1.0000
  C   C2534     1.0  0.30091  0.70278  0.07985  1.0000
  H   H2522     1.0  0.32246  0.69254  0.10518  1.0000
  H   H2523     1.0  0.25113  0.78383  0.08873  1.0000
  C   C2535     1.0  0.33177  0.66400  0.08821  1.0000
  C   C2536     1.0  0.32737  0.67045  0.10425  1.0000
  C   C2537     1.0  0.33548  0.68053  0.08828  1.0000
  H   H2524     1.0  0.24204  0.71314  0.10338  1.0000
  H   H2525     1.0  0.28696  0.65595  0.07980  1.0000
  N   N210      1.0  0.39104  0.72242  0.12487  1.0000
  C   C2538     1.0  0.39801  0.72526  0.12880  1.0000
  C   C2539     1.0  0.38825  0.71286  0.12905  1.0000
  C   C2540     1.0  0.40239  0.71843  0.13711  1.0000
  C   C2541     1.0  0.39231  0.70594  0.13752  1.0000
  C   C2542     1.0  0.39946  0.70875  0.14153  1.0000
  C   C2543     1.0  0.38694  0.72953  0.11586  1.0000
  H   H2526     1.0  0.40008  0.73291  0.12562  1.0000
  H   H2527     1.0  0.38264  0.71065  0.12600  1.0000
  H   H2528     1.0  0.40793  0.72067  0.14022  1.0000
  H   H2529     1.0  0.38985  0.69850  0.14099  1.0000
  H   H2530     1.0  0.40267  0.70351  0.14812  1.0000
  H   H2531     1.0  0.38446  0.73777  0.11706  1.0000
  H   H2532     1.0  0.39307  0.72919  0.10851  1.0000
  H   H2533     1.0  0.37982  0.72747  0.11491  1.0000
  C   C2544     1.0  0.28575  0.66113  0.07233  1.0000
  H   H2534     1.0  0.28823  0.78405  0.12242  1.0000
  H   H2535     1.0  0.31281  0.69592  0.08918  1.0000
  C   C2545     1.0  0.29755  0.64745  0.06324  1.0000
  C   C2546     1.0  0.30509  0.71170  0.09103  1.0000
  H   H2536     1.0  0.27256  0.68568  0.06256  1.0000
  C   C2547     1.0  0.42503  0.70842  0.16633  1.0000
  C   C2548     1.0  0.25574  0.79711  0.06554  1.0000
  H   H2537     1.0  0.30416  0.64746  0.05620  1.0000
  N   N211      1.0  0.31242  0.78092  0.06556  1.0000
  C   C2549     1.0  0.30308  0.77916  0.06492  1.0000
  C   C2550     1.0  0.31258  0.78957  0.06894  1.0000
  C   C2551     1.0  0.29356  0.78613  0.06777  1.0000
  C   C2552     1.0  0.30318  0.79666  0.07194  1.0000
  C   C2553     1.0  0.29364  0.79493  0.07130  1.0000
  C   C2554     1.0  0.32229  0.77359  0.06227  1.0000
  H   H2538     1.0  0.30296  0.77231  0.06221  1.0000
  H   H2539     1.0  0.31995  0.79092  0.06959  1.0000
  H   H2540     1.0  0.28614  0.78475  0.06727  1.0000
  H   H2541     1.0  0.30327  0.80332  0.07499  1.0000
  N   N212      1.0  0.30002  0.57002  0.16509  1.0000
  H   H2542     1.0  0.30663  0.62899  0.15260  1.0000
  C   C2555     1.0  0.29123  0.68863  0.98058  1.0000
  H   H2543     1.0  0.28438  0.68185  0.14222  1.0000
  H   H2544     1.0  0.31731  0.67929  0.99227  1.0000
  C   C2556     1.0  0.27677  0.68605  0.14037  1.0000
  S   S844      1.0  0.37343  0.74425  0.16671  1.0000
  C   C2557     1.0  0.29803  0.57787  0.15552  1.0000
  H   H2545     1.0  0.31135  0.67223  0.98683  1.0000
  H   H2546     1.0  0.28221  0.86501  0.17311  1.0000
  H   H2547     1.0  0.29024  0.57810  0.15399  1.0000
  S   S845      1.0  0.25714  0.60569  0.17318  1.0000
  H   H2548     1.0  0.29225  0.55930  0.16256  1.0000
  H   H2549     1.0  0.26850  0.64513  0.16131  1.0000
  C   C2558     1.0  0.44316  0.70449  0.17482  1.0000
  H   H2550     1.0  0.29210  0.87691  0.17562  1.0000
  S   S846      1.0  0.24745  0.72135  0.11849  1.0000
  H   H2551     1.0  0.25333  0.67226  0.14146  1.0000
  C   C2559     1.0  0.30561  0.57180  0.17134  1.0000
  H   H2552     1.0  0.24804  0.75238  0.09077  1.0000
  H   H2553     1.0  0.30760  0.84818  0.14747  1.0000
  H   H2554     1.0  0.24703  0.74158  0.06826  1.0000
  C   C2560     1.0  0.27502  0.64064  0.16504  1.0000
  H   H2555     1.0  0.32630  0.69265  0.98121  1.0000
  C   C2561     1.0  0.42523  0.71428  0.17345  1.0000
  C   C2562     1.0  0.28422  0.63539  0.15923  1.0000
  C   C2563     1.0  0.29693  0.83361  0.17076  1.0000
  H   H2556     1.0  0.24842  0.91698  0.17184  1.0000
  H   H2557     1.0  0.25557  0.67824  0.12763  1.0000
  S   S847      1.0  0.27778  0.58597  0.17466  1.0000
  H   H2558     1.0  0.27796  0.82145  0.17166  1.0000
  H   H2559     1.0  0.24464  0.84646  0.10069  1.0000
  C   C2564     1.0  0.29165  0.62872  0.17445  1.0000
  C   C2565     1.0  0.28480  0.82167  0.17469  1.0000
  S   S848      1.0  0.27985  0.60983  0.17436  1.0000
  C   C2566     1.0  0.24187  0.85122  0.10688  1.0000
  C   C2567     1.0  0.37279  0.78286  0.17457  1.0000
  H   H2560     1.0  0.41847  0.72036  0.17560  1.0000
  C   C2568     1.0  0.27418  0.63980  0.17576  1.0000
  Fe  Fe424     1.0  0.30241  0.87268  0.23003  1.0000
  S   S849      1.0  0.30446  0.88530  0.21552  1.0000
  S   S850      1.0  0.28875  0.87794  0.24248  1.0000
  Fe  Fe425     1.0  0.32223  0.85758  0.22179  1.0000
  S   S851      1.0  0.32605  0.86913  0.20653  1.0000
  S   S852      1.0  0.33117  0.84096  0.22730  1.0000
  Fe  Fe426     1.0  0.32134  0.88122  0.21663  1.0000
  S   S853      1.0  0.33018  0.89401  0.21407  1.0000
  Fe  Fe427     1.0  0.30870  0.87226  0.20678  1.0000
  S   S854      1.0  0.30187  0.87628  0.19226  1.0000
  S   S855      1.0  0.31908  0.86944  0.23188  1.0000
  S   S856      1.0  0.30509  0.85989  0.22131  1.0000
  S   S857      1.0  0.25404  0.85054  0.26142  1.0000
  Fe  Fe428     1.0  0.29808  0.93868  0.24462  1.0000
  S   S858      1.0  0.29078  0.94482  0.25954  1.0000
  S   S859      1.0  0.31495  0.93011  0.24034  1.0000
  Fe  Fe429     1.0  0.27802  0.94656  0.23661  1.0000
  S   S860      1.0  0.26886  0.95296  0.25080  1.0000
  S   S861      1.0  0.27036  0.94993  0.22301  1.0000
  Fe  Fe430     1.0  0.28305  0.95956  0.24921  1.0000
  H   H2561     1.0  0.25343  0.89205  0.24302  1.0000
  Fe  Fe431     1.0  0.27718  0.93785  0.25975  1.0000
  S   S862      1.0  0.26882  0.92760  0.27405  1.0000
  S   S863      1.0  0.29170  0.95386  0.23435  1.0000
  S   S864      1.0  0.28509  0.93090  0.24559  1.0000
  H   H2562     1.0  0.24279  0.93400  0.27131  1.0000
  H   H2563     1.0  0.24997  0.73029  0.34421  1.0000
  S   S865      1.0  0.26614  0.59667  0.19528  1.0000
  S   S866      1.0  0.29688  0.58645  0.19100  1.0000
  H   H2564     1.0  0.25521  0.96901  0.21589  1.0000
  H   H2565     1.0  0.31257  0.98055  0.25102  1.0000
  Fe  Fe432     1.0  0.26326  0.61197  0.18362  1.0000
  H   H2566     1.0  0.36198  0.78591  0.20935  1.0000
  C   C2569     1.0  0.25798  0.87284  0.19378  1.0000
  C   C2570     1.0  0.36935  0.79846  0.19918  1.0000
  Fe  Fe433     1.0  0.28218  0.59389  0.18491  1.0000
  H   H2567     1.0  0.40389  0.75752  0.21172  1.0000
  Fe  Fe434     1.0  0.32873  0.58507  0.23354  1.0000
  S   S867      1.0  0.31275  0.59542  0.23762  1.0000
  S   S868      1.0  0.32959  0.56761  0.23516  1.0000
  Fe  Fe435     1.0  0.34022  0.60320  0.22908  1.0000
  S   S869      1.0  0.32509  0.61486  0.23247  1.0000
  S   S870      1.0  0.35565  0.60884  0.22281  1.0000
  Fe  Fe436     1.0  0.32042  0.60222  0.24630  1.0000
  S   S871      1.0  0.31202  0.60876  0.26070  1.0000
  Fe  Fe437     1.0  0.31881  0.60707  0.22352  1.0000
  S   S872      1.0  0.30771  0.61668  0.21308  1.0000
  S   S873      1.0  0.33605  0.59090  0.24360  1.0000
  S   S874      1.0  0.33434  0.59635  0.21873  1.0000
  Fe  Fe438     1.0  0.27016  0.59117  0.30583  1.0000
  S   S875      1.0  0.25993  0.58483  0.32118  1.0000
  S   S876      1.0  0.28549  0.58131  0.29893  1.0000
  Fe  Fe439     1.0  0.25328  0.61027  0.30068  1.0000
  C   C2571     1.0  0.42143  0.68291  0.19737  1.0000
  H   H2568     1.0  0.26439  0.89818  0.23682  1.0000
  Fe  Fe440     1.0  0.25528  0.60170  0.32320  1.0000
  S   S877      1.0  0.24878  0.62463  0.28864  1.0000
  S   S878      1.0  0.25109  0.54085  0.28960  1.0000
  H   H2569     1.0  0.26170  0.94882  0.20649  1.0000
  S   S879      1.0  0.26666  0.60763  0.30861  1.0000
  S   S880      1.0  0.25781  0.59453  0.29638  1.0000
  C   C2572     1.0  0.27818  0.87821  0.21742  1.0000
  S   S881      1.0  0.45504  0.70187  0.17928  1.0000
  H   H2570     1.0  0.27082  0.61722  0.23480  1.0000
  C   C2573     1.0  0.26246  0.51389  0.23788  1.0000
  H   H2571     1.0  0.24696  0.89864  0.19118  1.0000
  S   S882      1.0  0.24643  0.52512  0.27119  1.0000
  Fe  Fe441     1.0  0.31520  0.53357  0.20514  1.0000
  S   S883      1.0  0.29811  0.53906  0.21180  1.0000
  S   S884      1.0  0.32382  0.54708  0.20011  1.0000
  Fe  Fe442     1.0  0.31260  0.51079  0.20801  1.0000
  S   S885      1.0  0.29543  0.51469  0.21540  1.0000
  H   H2572     1.0  0.24406  0.62806  0.31066  1.0000
  Fe  Fe443     1.0  0.29499  0.52922  0.20253  1.0000
  S   S886      1.0  0.28147  0.53346  0.19439  1.0000
  Fe  Fe444     1.0  0.30021  0.52415  0.22396  1.0000
  S   S887      1.0  0.29272  0.52554  0.24057  1.0000
  S   S888      1.0  0.31195  0.52491  0.19447  1.0000
  S   S889      1.0  0.31755  0.51904  0.21795  1.0000
  Fe  Fe445     1.0  0.38552  0.80415  0.21414  1.0000
  S   S890      1.0  0.39609  0.79259  0.20444  1.0000
  S   S891      1.0  0.37739  0.82012  0.20601  1.0000
  Fe  Fe446     1.0  0.38913  0.78922  0.23464  1.0000
  S   S892      1.0  0.39965  0.77632  0.22686  1.0000
  S   S893      1.0  0.38627  0.78656  0.25218  1.0000
  Fe  Fe447     1.0  0.40695  0.78924  0.21559  1.0000
  S   S894      1.0  0.42465  0.78520  0.21034  1.0000
  Fe  Fe448     1.0  0.38799  0.78062  0.21649  1.0000
  S   S895      1.0  0.38216  0.76784  0.21329  1.0000
  S   S896      1.0  0.39725  0.80198  0.22414  1.0000
  S   S897      1.0  0.37661  0.79237  0.22542  1.0000
  Fe  Fe449     1.0  0.38086  0.73313  0.27798  1.0000
  S   S898      1.0  0.38820  0.73591  0.28971  1.0000
  S   S899      1.0  0.36795  0.74530  0.27152  1.0000
  Fe  Fe450     1.0  0.39570  0.71213  0.27637  1.0000
  S   S900      1.0  0.40435  0.71315  0.28814  1.0000
  S   S901      1.0  0.40143  0.69925  0.26711  1.0000
  Fe  Fe451     1.0  0.38797  0.71897  0.29727  1.0000
  S   S902      1.0  0.38228  0.71450  0.31498  1.0000
  Fe  Fe452     1.0  0.40369  0.73003  0.27942  1.0000
  S   S903      1.0  0.41515  0.74101  0.27351  1.0000
  S   S904      1.0  0.37947  0.71659  0.28614  1.0000
  S   S905      1.0  0.39619  0.72855  0.26709  1.0000
  Fe  Fe453     1.0  0.37745  0.65008  0.23904  1.0000
  S   S906      1.0  0.36640  0.66563  0.23510  1.0000
  S   S907      1.0  0.36947  0.63617  0.24675  1.0000
  Fe  Fe454     1.0  0.39681  0.66032  0.23095  1.0000
  S   S908      1.0  0.38713  0.67642  0.22615  1.0000
  S   S909      1.0  0.41456  0.65848  0.22725  1.0000
  Fe  Fe455     1.0  0.37617  0.67231  0.24169  1.0000
  S   S910      1.0  0.36839  0.68418  0.25197  1.0000
  Fe  Fe456     1.0  0.37842  0.66809  0.22013  1.0000
  S   S911      1.0  0.37414  0.67378  0.20436  1.0000
  S   S912      1.0  0.38639  0.65659  0.24702  1.0000
  S   S913      1.0  0.38897  0.65221  0.22353  1.0000
  Fe  Fe457     1.0  0.46592  0.76763  0.24405  1.0000
  S   S914      1.0  0.47086  0.75759  0.25893  1.0000
  S   S915      1.0  0.45063  0.77994  0.24507  1.0000
  Fe  Fe458     1.0  0.48309  0.75453  0.23040  1.0000
  C   C2574     1.0  0.30171  0.90568  0.19352  1.0000
  C   C2575     1.0  0.28502  0.76316  0.36895  1.0000
  Fe  Fe459     1.0  0.47211  0.74392  0.25184  1.0000
  S   S916      1.0  0.46511  0.72950  0.25960  1.0000
  H   H2573     1.0  0.25358  0.90090  0.23022  1.0000
  C   C2576     1.0  0.30644  0.97894  0.23852  1.0000
  S   S917      1.0  0.46623  0.75388  0.23765  1.0000
  S   S918      1.0  0.48250  0.76927  0.23551  1.0000
  S   S919      1.0  0.44202  0.71439  0.20429  1.0000
  S   S920      1.0  0.43307  0.69585  0.23016  1.0000
  Fe  Fe460     1.0  0.45402  0.72178  0.20669  1.0000
  S   S921      1.0  0.45040  0.73897  0.20692  1.0000
  Fe  Fe461     1.0  0.45578  0.70547  0.19445  1.0000
  S   S922      1.0  0.27730  0.78193  0.34232  1.0000
  Fe  Fe462     1.0  0.32576  0.72363  0.35177  1.0000
  S   S923      1.0  0.33348  0.72835  0.33449  1.0000
  C   C2577     1.0  0.30713  0.89815  0.25400  1.0000
  C   C2578     1.0  0.26647  0.88774  0.18484  1.0000
  H   H2574     1.0  0.26345  0.97811  0.23524  1.0000
  C   C2579     1.0  0.26346  0.91695  0.26203  1.0000
  H   H2575     1.0  0.26206  0.61427  0.25365  1.0000
  S   S924      1.0  0.30876  0.72230  0.35503  1.0000
  H   H2576     1.0  0.41812  0.65564  0.24865  1.0000
  H   H2577     1.0  0.36837  0.80255  0.20541  1.0000
  C   C2580     1.0  0.28855  0.90281  0.26852  1.0000
  C   C2581     1.0  0.48089  0.71288  0.23437  1.0000
  C   C2582     1.0  0.28379  0.77165  0.35092  1.0000
  C   C2583     1.0  0.28158  0.77205  0.36155  1.0000
  C   C2584     1.0  0.25971  0.53909  0.31341  1.0000
  C   C2585     1.0  0.24912  0.86856  0.19909  1.0000
  C   C2586     1.0  0.29349  0.75358  0.35501  1.0000
  C   C2587     1.0  0.29005  0.76254  0.34757  1.0000
  N   N213      1.0  0.24531  0.57127  0.22460  1.0000
  C   C2588     1.0  0.29618  0.90885  0.26625  1.0000
  H   H2578     1.0  0.29791  0.74639  0.35248  1.0000
  H   H2579     1.0  0.29171  0.76221  0.33935  1.0000
  C   C2589     1.0  0.47917  0.74815  0.21077  1.0000
  C   C2590     1.0  0.46936  0.75513  0.21169  1.0000
  C   C2591     1.0  0.46062  0.75241  0.21016  1.0000
  C   C2592     1.0  0.46162  0.74262  0.20789  1.0000
  H   H2580     1.0  0.46852  0.76263  0.21366  1.0000
  H   H2581     1.0  0.45306  0.75778  0.21104  1.0000
  H   H2582     1.0  0.36658  0.70846  0.21288  1.0000
  S   S925      1.0  0.25001  0.61365  0.23765  1.0000
  H   H2583     1.0  0.26907  0.88548  0.17703  1.0000
  H   H2584     1.0  0.24600  0.82228  0.34200  1.0000
  S   S926      1.0  0.29334  0.74233  0.37528  1.0000
  C   C2593     1.0  0.37135  0.68756  0.20137  1.0000
  C   C2594     1.0  0.36937  0.69314  0.20932  1.0000
  C   C2595     1.0  0.36806  0.70414  0.20675  1.0000
  C   C2596     1.0  0.36887  0.70954  0.19623  1.0000
  C   C2597     1.0  0.37056  0.70397  0.18833  1.0000
  C   C2598     1.0  0.37177  0.69298  0.19090  1.0000
  H   H2585     1.0  0.36878  0.68901  0.21745  1.0000
  H   H2586     1.0  0.25158  0.94184  0.24237  1.0000
  H   H2587     1.0  0.37320  0.68868  0.18476  1.0000
  C   C2599     1.0  0.41947  0.66952  0.22687  1.0000
  C   C2600     1.0  0.41285  0.67817  0.23078  1.0000
  C   C2601     1.0  0.41705  0.68642  0.23137  1.0000
  C   C2602     1.0  0.42786  0.68625  0.22777  1.0000
  C   C2603     1.0  0.43444  0.67785  0.22336  1.0000
  C   C2604     1.0  0.43027  0.66944  0.22304  1.0000
  H   H2588     1.0  0.40457  0.67830  0.23372  1.0000
  H   H2589     1.0  0.41195  0.69288  0.23480  1.0000
  H   H2590     1.0  0.44282  0.67759  0.22067  1.0000
  H   H2591     1.0  0.43546  0.66276  0.22002  1.0000
  C   C2605     1.0  0.36862  0.71756  0.32042  1.0000
  C   C2606     1.0  0.36505  0.71607  0.33140  1.0000
  C   C2607     1.0  0.35426  0.71911  0.33588  1.0000
  C   C2608     1.0  0.34698  0.72368  0.32938  1.0000
  C   C2609     1.0  0.35052  0.72487  0.31842  1.0000
  C   C2610     1.0  0.36128  0.72183  0.31395  1.0000
  H   H2592     1.0  0.37069  0.71275  0.33646  1.0000
  H   H2593     1.0  0.35162  0.71813  0.34434  1.0000
  H   H2594     1.0  0.34493  0.72831  0.31333  1.0000
  H   H2595     1.0  0.36392  0.72297  0.30549  1.0000
  C   C2611     1.0  0.39200  0.69504  0.26326  1.0000
  C   C2612     1.0  0.39547  0.68828  0.25617  1.0000
  C   C2613     1.0  0.38822  0.68462  0.25306  1.0000
  C   C2614     1.0  0.37743  0.68801  0.25668  1.0000
  C   C2615     1.0  0.37388  0.69486  0.26369  1.0000
  C   C2616     1.0  0.38116  0.69833  0.26704  1.0000
  H   H2596     1.0  0.40378  0.68592  0.25300  1.0000
  H   H2597     1.0  0.39094  0.67924  0.24777  1.0000
  H   H2598     1.0  0.36550  0.69750  0.26653  1.0000
  H   H2599     1.0  0.37838  0.70356  0.27249  1.0000
  C   C2617     1.0  0.42898  0.73727  0.26938  1.0000
  C   C2618     1.0  0.43457  0.74520  0.26384  1.0000
  C   C2619     1.0  0.44561  0.74286  0.26095  1.0000
  C   C2620     1.0  0.45121  0.73247  0.26335  1.0000
  C   C2621     1.0  0.44563  0.72443  0.26855  1.0000
  C   C2622     1.0  0.43452  0.72682  0.27160  1.0000
  H   H2600     1.0  0.43036  0.75322  0.26173  1.0000
  H   H2601     1.0  0.44978  0.74912  0.25687  1.0000
  H   H2602     1.0  0.44992  0.71636  0.27039  1.0000
  H   H2603     1.0  0.43028  0.72063  0.27582  1.0000
  C   C2623     1.0  0.38631  0.76524  0.20056  1.0000
  C   C2624     1.0  0.39295  0.77096  0.19260  1.0000
  H   H2604     1.0  0.28188  0.63308  0.18886  1.0000
  Fe  Fe463     1.0  0.32610  0.71764  0.37528  1.0000
  C   C2625     1.0  0.25939  0.64450  0.31023  1.0000
  C   C2626     1.0  0.38263  0.75748  0.19829  1.0000
  H   H2605     1.0  0.39589  0.77689  0.19427  1.0000
  C   C2627     1.0  0.24999  0.56744  0.29883  1.0000
  H   H2606     1.0  0.27871  0.50957  0.23954  1.0000
  S   S927      1.0  0.24429  0.54255  0.24304  1.0000
  C   C2628     1.0  0.43191  0.78427  0.21978  1.0000
  C   C2629     1.0  0.44258  0.77913  0.21834  1.0000
  C   C2630     1.0  0.44836  0.77779  0.22605  1.0000
  C   C2631     1.0  0.44361  0.78184  0.23512  1.0000
  C   C2632     1.0  0.43305  0.78737  0.23634  1.0000
  C   C2633     1.0  0.42716  0.78839  0.22881  1.0000
  H   H2607     1.0  0.44640  0.77622  0.21123  1.0000
  H   H2608     1.0  0.45658  0.77387  0.22485  1.0000
  H   H2609     1.0  0.42943  0.79101  0.24302  1.0000
  H   H2610     1.0  0.41900  0.79255  0.22989  1.0000
  C   C2634     1.0  0.38084  0.77531  0.25767  1.0000
  C   C2635     1.0  0.38120  0.77002  0.26807  1.0000
  C   C2636     1.0  0.37722  0.76080  0.27235  1.0000
  C   C2637     1.0  0.37261  0.75702  0.26633  1.0000
  C   C2638     1.0  0.37207  0.76243  0.25601  1.0000
  C   C2639     1.0  0.37634  0.77147  0.25164  1.0000
  H   H2611     1.0  0.38468  0.77296  0.27276  1.0000
  H   H2612     1.0  0.37764  0.75671  0.28033  1.0000
  H   H2613     1.0  0.36860  0.75950  0.25130  1.0000
  H   H2614     1.0  0.37608  0.77545  0.24359  1.0000
  H   H2615     1.0  0.26727  0.92196  0.25521  1.0000
  Fe  Fe464     1.0  0.37801  0.72837  0.17702  1.0000
  C   C2640     1.0  0.26677  0.92203  0.21250  1.0000
  C   C2641     1.0  0.26140  0.61460  0.21748  1.0000
  S   S928      1.0  0.45973  0.69199  0.20783  1.0000
  S   S929      1.0  0.25270  0.86533  0.28240  1.0000
  S   S930      1.0  0.25330  0.80037  0.35774  1.0000
  H   H2616     1.0  0.27517  0.80403  0.32733  1.0000
  C   C2642     1.0  0.25547  0.63770  0.30681  1.0000
  C   C2643     1.0  0.25793  0.53994  0.24176  1.0000
  C   C2644     1.0  0.26217  0.53855  0.25056  1.0000
  C   C2645     1.0  0.27296  0.53438  0.25013  1.0000
  C   C2646     1.0  0.27949  0.53177  0.24083  1.0000
  C   C2647     1.0  0.27535  0.53390  0.23181  1.0000
  C   C2648     1.0  0.26457  0.53808  0.23225  1.0000
  H   H2617     1.0  0.25712  0.54049  0.25778  1.0000
  H   H2618     1.0  0.27615  0.53292  0.25707  1.0000
  H   H2619     1.0  0.28027  0.53183  0.22462  1.0000
  H   H2620     1.0  0.26133  0.53919  0.22540  1.0000
  H   H2621     1.0  0.26092  0.53265  0.30952  1.0000
  H   H2622     1.0  0.25893  0.63574  0.29913  1.0000
  C   C2649     1.0  0.26470  0.94083  0.21041  1.0000
  C   C2650     1.0  0.25829  0.97693  0.23064  1.0000
  C   C2651     1.0  0.42849  0.75775  0.23740  1.0000
  C   C2652     1.0  0.25477  0.64696  0.32008  1.0000
  H   H2623     1.0  0.26911  0.61683  0.32608  1.0000
  C   C2653     1.0  0.48118  0.69095  0.18379  1.0000
  H   H2624     1.0  0.31865  0.70827  0.32989  1.0000
  S   S931      1.0  0.24744  0.78554  0.34475  1.0000
  C   C2654     1.0  0.40769  0.67322  0.20108  1.0000
  C   C2655     1.0  0.25321  0.55898  0.29365  1.0000
  N   N214      1.0  0.24279  0.63553  0.32318  1.0000
  Fe  Fe465     1.0  0.24678  0.78938  0.37254  1.0000
  S   S932      1.0  0.31984  0.49384  0.20625  1.0000
  H   H2625     1.0  0.26119  0.55729  0.28911  1.0000
  H   H2626     1.0  0.25546  0.57228  0.29820  1.0000
  H   H2627     1.0  0.26037  0.54081  0.19145  1.0000
  C   C2656     1.0  0.35961  0.61621  0.22962  1.0000
  C   C2657     1.0  0.36729  0.62220  0.22421  1.0000
  C   C2658     1.0  0.37041  0.62835  0.22933  1.0000
  C   C2659     1.0  0.36601  0.62841  0.23997  1.0000
  C   C2660     1.0  0.35853  0.62221  0.24543  1.0000
  C   C2661     1.0  0.35524  0.61624  0.24026  1.0000
  H   H2628     1.0  0.37079  0.62214  0.21600  1.0000
  H   H2629     1.0  0.37633  0.63292  0.22508  1.0000
  H   H2630     1.0  0.35514  0.62214  0.25368  1.0000
  H   H2631     1.0  0.34938  0.61161  0.24455  1.0000
  C   C2662     1.0  0.30494  0.60084  0.27129  1.0000
  C   C2663     1.0  0.30565  0.59023  0.27152  1.0000
  C   C2664     1.0  0.29976  0.58419  0.28010  1.0000
  C   C2665     1.0  0.29297  0.58883  0.28829  1.0000
  C   C2666     1.0  0.29216  0.59947  0.28793  1.0000
  C   C2667     1.0  0.29823  0.60542  0.27953  1.0000
  H   H2632     1.0  0.31083  0.58666  0.26518  1.0000
  H   H2633     1.0  0.30042  0.57595  0.28037  1.0000
  H   H2634     1.0  0.28709  0.60305  0.29429  1.0000
  H   H2635     1.0  0.29773  0.61360  0.27941  1.0000
  C   C2668     1.0  0.32788  0.56219  0.22526  1.0000
  C   C2669     1.0  0.32630  0.55182  0.22791  1.0000
  C   C2670     1.0  0.32471  0.54725  0.22037  1.0000
  C   C2671     1.0  0.32511  0.55286  0.20995  1.0000
  C   C2672     1.0  0.32688  0.56317  0.20724  1.0000
  C   C2673     1.0  0.32809  0.56789  0.21489  1.0000
  H   H2636     1.0  0.32624  0.54730  0.23588  1.0000
  H   H2637     1.0  0.32348  0.53926  0.22253  1.0000
  H   H2638     1.0  0.32725  0.56755  0.19920  1.0000
  H   H2639     1.0  0.32930  0.57588  0.21273  1.0000
  C   C2674     1.0  0.25417  0.62482  0.20227  1.0000
  C   C2675     1.0  0.26235  0.61759  0.20655  1.0000
  H   H2640     1.0  0.25932  0.93385  0.20085  1.0000
  H   H2641     1.0  0.26932  0.61415  0.20143  1.0000
  C   C2676     1.0  0.29783  0.68348  0.35956  1.0000
  H   H2642     1.0  0.27301  0.88461  0.18915  1.0000
  C   C2677     1.0  0.26944  0.56435  0.19508  1.0000
  C   C2678     1.0  0.27614  0.55430  0.19604  1.0000
  C   C2679     1.0  0.27293  0.54584  0.19456  1.0000
  C   C2680     1.0  0.26747  0.54499  0.31115  1.0000
  C   C2681     1.0  0.39574  0.76906  0.18238  1.0000
  H   H2643     1.0  0.27206  0.57094  0.19593  1.0000
  H   H2644     1.0  0.28389  0.55320  0.19756  1.0000
  H   H2645     1.0  0.24305  0.64415  0.33425  1.0000
  C   C2682     1.0  0.29996  0.59503  0.19685  1.0000
  C   C2683     1.0  0.30846  0.59152  0.20189  1.0000
  C   C2684     1.0  0.31076  0.59813  0.20700  1.0000
  C   C2685     1.0  0.30472  0.60836  0.20685  1.0000
  C   C2686     1.0  0.29620  0.61190  0.20179  1.0000
  C   C2687     1.0  0.29377  0.60520  0.19685  1.0000
  H   H2646     1.0  0.31318  0.58364  0.20196  1.0000
  H   H2647     1.0  0.31725  0.59531  0.21099  1.0000
  H   H2648     1.0  0.29141  0.61974  0.20187  1.0000
  H   H2649     1.0  0.28709  0.60786  0.19313  1.0000
  H   H2650     1.0  0.38229  0.74977  0.18633  1.0000
  C   C2688     1.0  0.30553  0.90648  0.25895  1.0000
  H   H2651     1.0  0.24515  0.62286  0.26927  1.0000
  H   H2652     1.0  0.28831  0.67629  0.35415  1.0000
  C   C2689     1.0  0.25863  0.90952  0.26068  1.0000
  H   H2653     1.0  0.41758  0.69916  0.18973  1.0000
  H   H2654     1.0  0.25226  0.63427  0.35641  1.0000
  H   H2655     1.0  0.41230  0.75738  0.24524  1.0000
  C   C2690     1.0  0.30798  0.56418  0.18022  1.0000
  N   N215      1.0  0.40488  0.69148  0.19227  1.0000
  C   C2691     1.0  0.26959  0.93904  0.21882  1.0000
  C   C2692     1.0  0.27340  0.92870  0.22388  1.0000
  C   C2693     1.0  0.27201  0.92015  0.22069  1.0000
  S   S933      1.0  0.48623  0.69345  0.21444  1.0000
  H   H2656     1.0  0.27717  0.92725  0.23037  1.0000
  H   H2657     1.0  0.27469  0.91217  0.22479  1.0000
  C   C2694     1.0  0.26302  0.91811  0.27214  1.0000
  C   C2695     1.0  0.25796  0.91154  0.28091  1.0000
  C   C2696     1.0  0.25316  0.90404  0.27956  1.0000
  H   H2658     1.0  0.25764  0.91234  0.28877  1.0000
  C   C2697     1.0  0.28900  0.68341  0.35591  1.0000
  C   C2698     1.0  0.34345  0.83502  0.22034  1.0000
  C   C2699     1.0  0.34925  0.84069  0.21144  1.0000
  C   C2700     1.0  0.35955  0.83594  0.20690  1.0000
  C   C2701     1.0  0.36410  0.82552  0.21122  1.0000
  C   C2702     1.0  0.35814  0.81978  0.21989  1.0000
  C   C2703     1.0  0.34786  0.82450  0.22440  1.0000
  H   H2659     1.0  0.34590  0.84880  0.20821  1.0000
  H   H2660     1.0  0.36409  0.84043  0.20015  1.0000
  H   H2661     1.0  0.36150  0.81177  0.22330  1.0000
  H   H2662     1.0  0.34341  0.82005  0.23126  1.0000
  C   C2704     1.0  0.29555  0.86725  0.19038  1.0000
  C   C2705     1.0  0.29446  0.85788  0.19778  1.0000
  H   H2663     1.0  0.28795  0.84393  0.20217  1.0000
  H   H2664     1.0  0.29789  0.85584  0.20463  1.0000
  C   C2706     1.0  0.32540  0.90377  0.22170  1.0000
  C   C2707     1.0  0.31466  0.90680  0.22621  1.0000
  C   C2708     1.0  0.31121  0.91512  0.23169  1.0000
  C   C2709     1.0  0.31853  0.92017  0.23294  1.0000
  C   C2710     1.0  0.32921  0.91704  0.22847  1.0000
  C   C2711     1.0  0.33259  0.90903  0.22275  1.0000
  H   H2665     1.0  0.30902  0.90284  0.22536  1.0000
  H   H2666     1.0  0.30294  0.91743  0.23513  1.0000
  H   H2667     1.0  0.33493  0.92087  0.22937  1.0000
  H   H2668     1.0  0.34088  0.90681  0.21923  1.0000
  C   C2712     1.0  0.27934  0.87006  0.24715  1.0000
  C   C2713     1.0  0.28132  0.85990  0.24525  1.0000
  C   C2714     1.0  0.27350  0.85385  0.24936  1.0000
  C   C2715     1.0  0.26372  0.85805  0.25526  1.0000
  C   C2716     1.0  0.26172  0.86835  0.25667  1.0000
  C   C2717     1.0  0.26954  0.87423  0.25286  1.0000
  H   H2669     1.0  0.28894  0.85660  0.24090  1.0000
  H   H2670     1.0  0.27512  0.84587  0.24823  1.0000
  H   H2671     1.0  0.25413  0.87189  0.26075  1.0000
  H   H2672     1.0  0.26787  0.88210  0.25427  1.0000
  Fe  Fe466     1.0  0.44655  0.70152  0.21779  1.0000
  H   H2673     1.0  0.30710  0.54007  0.24140  1.0000
  H   H2674     1.0  0.24078  0.55334  0.32954  1.0000
  S   S934      1.0  0.25540  0.77463  0.36690  1.0000
  C   C2718     1.0  0.43243  0.73595  0.24343  1.0000
  H   H2675     1.0  0.25757  0.96855  0.23325  1.0000
  H   H2676     1.0  0.25112  0.71119  0.35175  1.0000
  C   C2719     1.0  0.41278  0.74846  0.20003  1.0000
  S   S935      1.0  0.25119  0.57842  0.19122  1.0000
  C   C2720     1.0  0.39188  0.76144  0.18007  1.0000
  C   C2721     1.0  0.28255  0.63387  0.18050  1.0000
  C   C2722     1.0  0.25754  0.50460  0.25908  1.0000
  H   H2677     1.0  0.47662  0.71431  0.24233  1.0000
  C   C2723     1.0  0.30467  0.55470  0.18265  1.0000
  H   H2678     1.0  0.24385  0.53779  0.32160  1.0000
  H   H2679     1.0  0.24836  0.55840  0.19033  1.0000
  S   S936      1.0  0.25439  0.62691  0.18887  1.0000
  H   H2680     1.0  0.42706  0.76627  0.23503  1.0000
  H   H2681     1.0  0.29897  0.49906  0.20120  1.0000
  H   H2682     1.0  0.35144  0.56020  0.22550  1.0000
  C   C2724     1.0  0.43866  0.75167  0.23488  1.0000
  N   N216      1.0  0.26268  0.97943  0.21930  1.0000
  C   C2725     1.0  0.35432  0.56741  0.22191  1.0000
  C   C2726     1.0  0.34406  0.69176  0.33907  1.0000
  C   C2727     1.0  0.29065  0.75382  0.36573  1.0000
  Fe  Fe467     1.0  0.48764  0.75794  0.24983  1.0000
  H   H2683     1.0  0.31814  0.89963  0.19419  1.0000
  C   C2728     1.0  0.41132  0.75574  0.20623  1.0000
  H   H2684     1.0  0.25236  0.83813  0.33048  1.0000
  S   S937      1.0  0.48959  0.75082  0.21439  1.0000
  S   S938      1.0  0.24639  0.85256  0.31204  1.0000
  C   C2729     1.0  0.24639  0.64242  0.32648  1.0000
  S   S939      1.0  0.27984  0.97757  0.24638  1.0000
  C   C2730     1.0  0.24963  0.50940  0.25332  1.0000
  H   H2685     1.0  0.27141  0.56701  0.30632  1.0000
  C   C2731     1.0  0.25935  0.87736  0.23205  1.0000
  H   H2686     1.0  0.39181  0.70436  0.19386  1.0000
  H   H2687     1.0  0.25554  0.59298  0.21945  1.0000
  H   H2688     1.0  0.29624  0.54561  0.17822  1.0000
  Fe  Fe468     1.0  0.24124  0.77613  0.36054  1.0000
  C   C2732     1.0  0.25850  0.89471  0.23524  1.0000
  C   C2733     1.0  0.40126  0.68234  0.19643  1.0000
  H   H2689     1.0  0.27039  0.74446  0.37565  1.0000
  H   H2690     1.0  0.40237  0.70704  0.18268  1.0000
  H   H2691     1.0  0.31436  0.89628  0.24826  1.0000
  S   S940      1.0  0.24160  0.60543  0.31528  1.0000
  C   C2734     1.0  0.27302  0.88649  0.22260  1.0000
  H   H2692     1.0  0.33219  0.75485  0.30038  1.0000
  N   N217      1.0  0.26380  0.88592  0.22992  1.0000
  C   C2735     1.0  0.27360  0.56005  0.31256  1.0000
  C   C2736     1.0  0.25598  0.63045  0.34983  1.0000
  C   C2737     1.0  0.41941  0.76088  0.20514  1.0000
  H   H2693     1.0  0.37747  0.80950  0.18731  1.0000
  Fe  Fe469     1.0  0.47029  0.70147  0.20996  1.0000
  H   H2694     1.0  0.40518  0.78381  0.26580  1.0000
  C   C2738     1.0  0.25334  0.90314  0.26942  1.0000
  C   C2739     1.0  0.26287  0.54733  0.19262  1.0000
  H   H2695     1.0  0.27473  0.54293  0.30554  1.0000
  Fe  Fe470     1.0  0.26426  0.67664  0.35717  1.0000
  H   H2696     1.0  0.25495  0.57892  0.21100  1.0000
  C   C2740     1.0  0.33563  0.70547  0.32644  1.0000
  H   H2697     1.0  0.29164  0.70892  0.36229  1.0000
  H   H2698     1.0  0.29475  0.91541  0.27006  1.0000
  C   C2741     1.0  0.41476  0.69189  0.19283  1.0000
  H   H2699     1.0  0.36413  0.59328  0.20912  1.0000
  S   S941      1.0  0.36834  0.72311  0.19305  1.0000
  C   C2742     1.0  0.24628  0.55247  0.29460  1.0000
  S   S942      1.0  0.27682  0.84545  0.18619  1.0000
  H   H2700     1.0  0.43749  0.76537  0.20477  1.0000
  C   C2743     1.0  0.25631  0.55641  0.32221  1.0000
  S   S943      1.0  0.25144  0.60715  0.33862  1.0000
  H   H2701     1.0  0.24608  0.59303  0.23797  1.0000
  C   C2744     1.0  0.37564  0.79703  0.18100  1.0000
  H   H2702     1.0  0.25060  0.80657  0.32140  1.0000
  N   N218      1.0  0.42882  0.75864  0.19826  1.0000
  C   C2745     1.0  0.26330  0.93234  0.20725  1.0000
  C   C2746     1.0  0.24370  0.51927  0.23709  1.0000
  H   H2703     1.0  0.41424  0.78046  0.25404  1.0000
  C   C2747     1.0  0.41787  0.67351  0.20144  1.0000
  H   H2704     1.0  0.24157  0.51337  0.23411  1.0000
  H   H2705     1.0  0.30652  0.54876  0.18949  1.0000
  C   C2748     1.0  0.26409  0.82974  0.30602  1.0000
  H   H2706     1.0  0.30122  0.89942  0.19010  1.0000
  H   H2707     1.0  0.26749  0.83661  0.30211  1.0000
  Fe  Fe471     1.0  0.26143  0.59015  0.18411  1.0000
  C   C2749     1.0  0.36691  0.78411  0.19319  1.0000
  H   H2708     1.0  0.26695  0.64357  0.18044  1.0000
  C   C2750     1.0  0.25572  0.82821  0.30276  1.0000
  H   H2709     1.0  0.25880  0.90888  0.25281  1.0000
  C   C2751     1.0  0.36563  0.78923  0.20135  1.0000
  H   H2710     1.0  0.28536  0.91352  0.19416  1.0000
  S   S944      1.0  0.25330  0.67135  0.35064  1.0000
  H   H2711     1.0  0.28938  0.61947  0.22940  1.0000
  H   H2712     1.0  0.26497  0.81183  0.33565  1.0000
  H   H2713     1.0  0.26546  0.86756  0.19172  1.0000
  H   H2714     1.0  0.24416  0.81874  0.30603  1.0000
  S   S945      1.0  0.39399  0.73039  0.17705  1.0000
  H   H2715     1.0  0.24146  0.50949  0.25728  1.0000
  H   H2716     1.0  0.43394  0.72743  0.24597  1.0000
  N   N219      1.0  0.35078  0.64899  0.22369  1.0000
  C   C2752     1.0  0.34707  0.64913  0.23416  1.0000
  C   C2753     1.0  0.34734  0.64295  0.21915  1.0000
  C   C2754     1.0  0.33961  0.64324  0.24033  1.0000
  C   C2755     1.0  0.33989  0.63696  0.22509  1.0000
  C   C2756     1.0  0.33599  0.63712  0.23575  1.0000
  C   C2757     1.0  0.35877  0.65507  0.21750  1.0000
  H   H2717     1.0  0.35014  0.65353  0.23788  1.0000
  H   H2718     1.0  0.35054  0.64252  0.21096  1.0000
  H   H2719     1.0  0.33696  0.64312  0.24870  1.0000
  H   H2720     1.0  0.33745  0.63193  0.22153  1.0000
  H   H2721     1.0  0.33046  0.63225  0.24054  1.0000
  H   H2722     1.0  0.36055  0.65502  0.20897  1.0000
  H   H2723     1.0  0.35602  0.66345  0.21821  1.0000
  H   H2724     1.0  0.36624  0.65175  0.22035  1.0000
  H   H2725     1.0  0.26484  0.89649  0.18335  1.0000
  C   C2758     1.0  0.43041  0.75139  0.19227  1.0000
  C   C2759     1.0  0.32585  0.70352  0.33230  1.0000
  C   C2760     1.0  0.24379  0.93878  0.26311  1.0000
  H   H2726     1.0  0.35121  0.68742  0.34180  1.0000
  C   C2761     1.0  0.37444  0.80238  0.18897  1.0000
  C   C2762     1.0  0.42021  0.75277  0.24307  1.0000
  Fe  Fe472     1.0  0.24777  0.91997  0.20522  1.0000
  C   C2763     1.0  0.24594  0.58687  0.23425  1.0000
  H   H2727     1.0  0.37173  0.77459  0.17757  1.0000
  S   S946      1.0  0.24529  0.92971  0.18945  1.0000
  C   C2764     1.0  0.26657  0.80741  0.32933  1.0000
  H   H2728     1.0  0.45354  0.72919  0.24249  1.0000
  H   H2729     1.0  0.35869  0.58427  0.19816  1.0000
  C   C2765     1.0  0.35481  0.57156  0.21114  1.0000
  N   N220      1.0  0.26291  0.81441  0.32003  1.0000
  H   H2730     1.0  0.25034  0.98207  0.23242  1.0000
  C   C2766     1.0  0.25009  0.54201  0.32017  1.0000
  H   H2731     1.0  0.26448  0.51752  0.22959  1.0000
  S   S947      1.0  0.27453  0.66055  0.36071  1.0000
  C   C2767     1.0  0.38541  0.75558  0.18807  1.0000
  C   C2768     1.0  0.24688  0.93583  0.24527  1.0000
  C   C2769     1.0  0.25224  0.62206  0.34873  1.0000
  Fe  Fe473     1.0  0.24734  0.58923  0.31176  1.0000
  H   H2732     1.0  0.37080  0.70814  0.18026  1.0000
  H   H2733     1.0  0.28555  0.87864  0.21171  1.0000
  H   H2734     1.0  0.24613  0.52565  0.23037  1.0000
  C   C2770     1.0  0.41349  0.67273  0.26895  1.0000
  S   S948      1.0  0.25399  0.67510  0.37327  1.0000
  H   H2735     1.0  0.26145  0.97390  0.19669  1.0000
  H   H2736     1.0  0.41585  0.73785  0.25076  1.0000
  H   H2737     1.0  0.25792  0.65203  0.32296  1.0000
  H   H2738     1.0  0.25472  0.56343  0.32535  1.0000
  N   N221      1.0  0.37189  0.78802  0.18317  1.0000
  H   H2739     1.0  0.37747  0.75303  0.20441  1.0000
  H   H2740     1.0  0.43791  0.74953  0.18689  1.0000
  C   C2771     1.0  0.29873  0.69260  0.36205  1.0000
  S   S949      1.0  0.26901  0.64494  0.34283  1.0000
  N   N222      1.0  0.25213  0.51417  0.24292  1.0000
  Fe  Fe474     1.0  0.26286  0.65494  0.35527  1.0000
  C   C2772     1.0  0.27388  0.86930  0.21979  1.0000
  H   H2741     1.0  0.40076  0.77360  0.17620  1.0000
  H   H2742     1.0  0.25190  0.94029  0.26105  1.0000
  C   C2773     1.0  0.29896  0.55294  0.17628  1.0000
  N   N223      1.0  0.27553  0.61486  0.25885  1.0000
  C   C2774     1.0  0.27017  0.61524  0.25140  1.0000
  C   C2775     1.0  0.28564  0.61642  0.25591  1.0000
  C   C2776     1.0  0.27507  0.61691  0.24070  1.0000
  C   C2777     1.0  0.29081  0.61800  0.24531  1.0000
  C   C2778     1.0  0.28548  0.61822  0.23766  1.0000
  C   C2779     1.0  0.27043  0.61313  0.27006  1.0000
  C   C2780     1.0  0.25095  0.81973  0.30823  1.0000
  H   H2743     1.0  0.28976  0.61645  0.26177  1.0000
  C   C2781     1.0  0.24551  0.93074  0.23810  1.0000
  H   H2744     1.0  0.29891  0.61903  0.24306  1.0000
  H   H2745     1.0  0.28163  0.55570  0.30947  1.0000
  H   H2746     1.0  0.26860  0.62058  0.27290  1.0000
  H   H2747     1.0  0.26293  0.61044  0.27162  1.0000
  H   H2748     1.0  0.27570  0.60699  0.27479  1.0000
  N   N224      1.0  0.41854  0.77161  0.26861  1.0000
  C   C2782     1.0  0.42827  0.77411  0.26585  1.0000
  C   C2783     1.0  0.41613  0.76401  0.27736  1.0000
  C   C2784     1.0  0.43608  0.76854  0.27154  1.0000
  C   C2785     1.0  0.42373  0.75831  0.28329  1.0000
  C   C2786     1.0  0.43380  0.76054  0.28028  1.0000
  H   H2749     1.0  0.43017  0.78027  0.25909  1.0000
  H   H2750     1.0  0.40845  0.76195  0.27953  1.0000
  H   H2751     1.0  0.44391  0.77031  0.26900  1.0000
  H   H2752     1.0  0.42195  0.75189  0.28987  1.0000
  H   H2753     1.0  0.43989  0.75593  0.28456  1.0000
  H   H2754     1.0  0.40576  0.77182  0.26192  1.0000
  N   N225      1.0  0.30285  0.92135  0.20281  1.0000
  C   C2787     1.0  0.29358  0.92143  0.20039  1.0000
  C   C2788     1.0  0.31164  0.91374  0.20044  1.0000
  C   C2789     1.0  0.29282  0.91355  0.19581  1.0000
  C   C2790     1.0  0.31120  0.90580  0.19578  1.0000
  C   C2791     1.0  0.24838  0.55071  0.32463  1.0000
  C   C2792     1.0  0.30321  0.92948  0.20800  1.0000
  H   H2755     1.0  0.28668  0.92759  0.20206  1.0000
  H   H2756     1.0  0.31904  0.91367  0.20226  1.0000
  H   H2757     1.0  0.42927  0.68327  0.19778  1.0000
  C   C2793     1.0  0.26805  0.50474  0.25413  1.0000
  H   H2758     1.0  0.25266  0.83387  0.29628  1.0000
  H   H2759     1.0  0.30148  0.93742  0.20285  1.0000
  H   H2760     1.0  0.29725  0.92925  0.21554  1.0000
  H   H2761     1.0  0.31105  0.92831  0.20991  1.0000
  H   H2762     1.0  0.40477  0.66600  0.20446  1.0000
  H   H2763     1.0  0.35245  0.70125  0.32548  1.0000
  S   S950      1.0  0.32271  0.73314  0.36409  1.0000
  C   C2794     1.0  0.29723  0.48506  0.19747  1.0000
  C   C2795     1.0  0.28567  0.86293  0.17996  1.0000
  H   H2764     1.0  0.33607  0.71176  0.31946  1.0000
  H   H2765     1.0  0.43504  0.77247  0.19201  1.0000
  H   H2766     1.0  0.48070  0.70483  0.23385  1.0000
  H   H2767     1.0  0.34973  0.75214  0.28809  1.0000
  C   C2796     1.0  0.27056  0.50931  0.24344  1.0000
  C   C2797     1.0  0.24492  0.56320  0.21936  1.0000
  H   H2768     1.0  0.26108  0.86189  0.22923  1.0000
  H   H2769     1.0  0.24983  0.86008  0.20108  1.0000
  Fe  Fe475     1.0  0.24407  0.66818  0.36728  1.0000
  C   C2798     1.0  0.25607  0.55727  0.19198  1.0000
  H   H2770     1.0  0.30383  0.67634  0.36070  1.0000
  N   N226      1.0  0.33445  0.68968  0.34461  1.0000
  H   H2771     1.0  0.44493  0.76028  0.19343  1.0000
  H   H2772     1.0  0.41812  0.76673  0.20978  1.0000
  C   C2799     1.0  0.24559  0.71536  0.34667  1.0000
  H   H2773     1.0  0.31149  0.91117  0.25703  1.0000
  H   H2774     1.0  0.27392  0.82412  0.31741  1.0000
  C   C2800     1.0  0.33380  0.68155  0.35434  1.0000
  C   C2801     1.0  0.39791  0.70095  0.18759  1.0000
  H   H2775     1.0  0.48786  0.73309  0.20739  1.0000
  H   H2776     1.0  0.30632  0.97065  0.24170  1.0000
  H   H2777     1.0  0.31775  0.69407  0.34588  1.0000
  H   H2778     1.0  0.39337  0.68205  0.19614  1.0000
  H   H2779     1.0  0.34092  0.67506  0.35399  1.0000
  H   H2780     1.0  0.33297  0.68510  0.36115  1.0000
  H   H2781     1.0  0.32684  0.67800  0.35577  1.0000
  Fe  Fe476     1.0  0.26079  0.78550  0.35172  1.0000
  N   N227      1.0  0.44052  0.74091  0.23794  1.0000
  C   C2802     1.0  0.24706  0.63332  0.31340  1.0000
  C   C2803     1.0  0.45116  0.73452  0.23527  1.0000
  H   H2782     1.0  0.28893  0.97561  0.26461  1.0000
  H   H2783     1.0  0.27797  0.86271  0.21605  1.0000
  C   C2804     1.0  0.43699  0.76447  0.19699  1.0000
  H   H2784     1.0  0.25294  0.55829  0.21730  1.0000
  C   C2805     1.0  0.25222  0.61884  0.22411  1.0000
  H   H2785     1.0  0.24187  0.56696  0.21204  1.0000
  H   H2786     1.0  0.27692  0.77917  0.36410  1.0000
  C   C2806     1.0  0.42217  0.74179  0.24609  1.0000
  H   H2787     1.0  0.28137  0.90465  0.27428  1.0000
  C   C2807     1.0  0.29123  0.86969  0.18142  1.0000
  C   C2808     1.0  0.34481  0.69958  0.32984  1.0000
  C   C2809     1.0  0.42700  0.68231  0.25767  1.0000
  H   H2788     1.0  0.41185  0.67783  0.27447  1.0000
  H   H2789     1.0  0.43488  0.68047  0.25243  1.0000
  H   H2790     1.0  0.42240  0.68972  0.25358  1.0000
  N   N228      1.0  0.35782  0.74731  0.31096  1.0000
  C   C2810     1.0  0.35839  0.74855  0.30042  1.0000
  C   C2811     1.0  0.34823  0.74904  0.31773  1.0000
  C   C2812     1.0  0.34920  0.75132  0.29645  1.0000
  C   C2813     1.0  0.33888  0.75173  0.31404  1.0000
  C   C2814     1.0  0.33938  0.75287  0.30333  1.0000
  C   C2815     1.0  0.36756  0.74437  0.31497  1.0000
  H   H2791     1.0  0.36595  0.74723  0.29502  1.0000
  H   H2792     1.0  0.34774  0.74791  0.32611  1.0000
  C   C2816     1.0  0.48808  0.68611  0.19062  1.0000
  H   H2793     1.0  0.33130  0.75263  0.31953  1.0000
  C   C2817     1.0  0.26368  0.97752  0.20182  1.0000
  H   H2794     1.0  0.37053  0.75151  0.31426  1.0000
  H   H2795     1.0  0.36626  0.74007  0.32335  1.0000
  H   H2796     1.0  0.37376  0.73888  0.31055  1.0000
  C   C2818     1.0  0.26928  0.62881  0.33392  1.0000
  C   C2819     1.0  0.25944  0.56585  0.19294  1.0000
  H   H2797     1.0  0.28146  0.82431  0.18228  1.0000
  S   S951      1.0  0.33080  0.70821  0.36258  1.0000
  Fe  Fe477     1.0  0.30635  0.73023  0.36843  1.0000
  H   H2798     1.0  0.24280  0.58571  0.28345  1.0000
  N   N229      1.0  0.26573  0.55348  0.31559  1.0000
  Fe  Fe478     1.0  0.31366  0.70741  0.36648  1.0000
  C   C2820     1.0  0.28216  0.70176  0.35676  1.0000
  S   S952      1.0  0.48921  0.74327  0.24408  1.0000
  C   C2821     1.0  0.25464  0.81288  0.31693  1.0000
  H   H2799     1.0  0.39392  0.69903  0.18233  1.0000
  C   C2822     1.0  0.26449  0.63390  0.34238  1.0000
  C   C2823     1.0  0.30270  0.49108  0.20031  1.0000
  C   C2824     1.0  0.25685  0.61718  0.34009  1.0000
  N   N230      1.0  0.29010  0.89475  0.26351  1.0000
  N   N231      1.0  0.25714  0.88352  0.19090  1.0000
  C   C2825     1.0  0.29922  0.89244  0.25626  1.0000
  H   H2800     1.0  0.36412  0.77685  0.19499  1.0000
  H   H2801     1.0  0.45713  0.73946  0.23154  1.0000
  H   H2802     1.0  0.45132  0.72979  0.22962  1.0000
  C   C2826     1.0  0.28171  0.88902  0.26537  1.0000
  C   C2827     1.0  0.28440  0.85366  0.18748  1.0000
  H   H2803     1.0  0.30039  0.88617  0.25215  1.0000
  H   H2804     1.0  0.42293  0.66647  0.20500  1.0000
  C   C2828     1.0  0.28102  0.69248  0.35474  1.0000
  S   S953      1.0  0.26942  0.69224  0.35117  1.0000
  H   H2805     1.0  0.27715  0.89240  0.25904  1.0000
  H   H2806     1.0  0.28503  0.88053  0.26530  1.0000
  H   H2807     1.0  0.27616  0.88951  0.27308  1.0000
  N   N232      1.0  0.35711  0.57253  0.22790  1.0000
  C   C2829     1.0  0.36076  0.58162  0.22337  1.0000
  C   C2830     1.0  0.36146  0.58593  0.21260  1.0000
  C   C2831     1.0  0.35643  0.56802  0.23919  1.0000
  H   H2808     1.0  0.36299  0.58573  0.22808  1.0000
  H   H2809     1.0  0.24225  0.60669  0.20609  1.0000
  H   H2810     1.0  0.36280  0.56088  0.24036  1.0000
  H   H2811     1.0  0.35712  0.57374  0.24345  1.0000
  H   H2812     1.0  0.34865  0.56582  0.24284  1.0000
  C   C2832     1.0  0.26541  0.62058  0.33270  1.0000
  H   H2813     1.0  0.24908  0.93284  0.22980  1.0000
  C   C2833     1.0  0.25084  0.57892  0.21910  1.0000
  H   H2814     1.0  0.27411  0.56288  0.31939  1.0000
  C   C2834     1.0  0.43426  0.71222  0.17780  1.0000
  H   H2815     1.0  0.35227  0.56761  0.20651  1.0000
  C   C2835     1.0  0.28888  0.85111  0.19634  1.0000
  C   C2836     1.0  0.31297  0.48680  0.20192  1.0000
  S   S954      1.0  0.26340  0.91179  0.20939  1.0000
  H   H2816     1.0  0.25545  0.50107  0.26740  1.0000
  N   N233      1.0  0.35994  0.83933  0.23317  1.0000
  C   C2837     1.0  0.35534  0.83240  0.24141  1.0000
  C   C2838     1.0  0.37009  0.83629  0.22792  1.0000
  C   C2839     1.0  0.36088  0.82207  0.24448  1.0000
  C   C2840     1.0  0.37586  0.82604  0.23077  1.0000
  C   C2841     1.0  0.37122  0.81888  0.23911  1.0000
  C   C2842     1.0  0.35415  0.85021  0.23023  1.0000
  H   H2817     1.0  0.34722  0.83474  0.24545  1.0000
  H   H2818     1.0  0.37370  0.84171  0.22127  1.0000
  H   H2819     1.0  0.35714  0.81651  0.25084  1.0000
  H   H2820     1.0  0.38378  0.82360  0.22633  1.0000
  H   H2821     1.0  0.37555  0.81084  0.24130  1.0000
  H   H2822     1.0  0.35611  0.85321  0.22157  1.0000
  H   H2823     1.0  0.34547  0.85073  0.23239  1.0000
  H   H2824     1.0  0.35612  0.85540  0.23425  1.0000
  N   N234      1.0  0.38019  0.71045  0.23813  1.0000
  C   C2843     1.0  0.37025  0.71499  0.24276  1.0000
  C   C2844     1.0  0.38886  0.71252  0.24002  1.0000
  C   C2845     1.0  0.36880  0.72170  0.24960  1.0000
  C   C2846     1.0  0.38769  0.71913  0.24685  1.0000
  C   C2847     1.0  0.37758  0.72377  0.25166  1.0000
  C   C2848     1.0  0.38157  0.70374  0.23071  1.0000
  H   H2825     1.0  0.36339  0.71330  0.24129  1.0000
  H   H2826     1.0  0.39675  0.70888  0.23641  1.0000
  H   H2827     1.0  0.36091  0.72520  0.25336  1.0000
  H   H2828     1.0  0.30564  0.54839  0.25038  1.0000
  C   C2849     1.0  0.26761  0.82272  0.31473  1.0000
  H   H2829     1.0  0.38179  0.70861  0.22260  1.0000
  H   H2830     1.0  0.38895  0.69757  0.23085  1.0000
  H   H2831     1.0  0.37499  0.69950  0.23284  1.0000
  N   N235      1.0  0.29912  0.55583  0.23663  1.0000
  C   C2850     1.0  0.29360  0.55509  0.22980  1.0000
  C   C2851     1.0  0.30245  0.56491  0.23548  1.0000
  C   C2852     1.0  0.29137  0.56352  0.22145  1.0000
  C   C2853     1.0  0.30037  0.57349  0.22722  1.0000
  C   C2854     1.0  0.29478  0.57276  0.22019  1.0000
  C   C2855     1.0  0.30171  0.54664  0.24497  1.0000
  H   H2832     1.0  0.29100  0.54789  0.23072  1.0000
  H   H2833     1.0  0.30700  0.56547  0.24077  1.0000
  H   H2834     1.0  0.28719  0.56282  0.21591  1.0000
  H   H2835     1.0  0.30328  0.58057  0.22614  1.0000
  H   H2836     1.0  0.29316  0.57930  0.21371  1.0000
  H   H2837     1.0  0.29442  0.54389  0.24970  1.0000
  H   H2838     1.0  0.40643  0.74466  0.20060  1.0000
  C   C2856     1.0  0.41056  0.77721  0.26230  1.0000
  N   N236      1.0  0.42128  0.67381  0.26006  1.0000
  C   C2857     1.0  0.47146  0.73565  0.20687  1.0000
  C   C2858     1.0  0.35840  0.58089  0.20647  1.0000
  C   C2859     1.0  0.48028  0.73850  0.20812  1.0000
  H   H2839     1.0  0.27606  0.70884  0.35575  1.0000
  H   H2840     1.0  0.27651  0.89331  0.22084  1.0000
  C   C2860     1.0  0.42306  0.66766  0.25291  1.0000
  C   C2861     1.0  0.40708  0.66551  0.27075  1.0000
  H   H2841     1.0  0.40065  0.66499  0.27760  1.0000
  C   C2862     1.0  0.24228  0.82685  0.33554  1.0000
  H   H2842     1.0  0.26755  0.60868  0.22078  1.0000
  S   S955      1.0  0.46760  0.71402  0.19553  1.0000
  H   H2843     1.0  0.47230  0.72805  0.20520  1.0000
  H   H2844     1.0  0.42913  0.66860  0.24579  1.0000
  S   S956      1.0  0.45732  0.70981  0.22120  1.0000
  H   H2845     1.0  0.44506  0.75564  0.23055  1.0000
  C   C2863     1.0  0.41684  0.66032  0.25448  1.0000
  C   C2864     1.0  0.40874  0.65933  0.26341  1.0000
  H   H2846     1.0  0.48752  0.73087  0.22724  1.0000
  C   C2865     1.0  0.29099  0.70182  0.36044  1.0000
  H   H2847     1.0  0.27592  0.63138  0.32815  1.0000
  H   H2848     1.0  0.37656  0.72888  0.25703  1.0000
  H   H2849     1.0  0.40366  0.65390  0.26454  1.0000
  H   H2850     1.0  0.42817  0.68375  0.26497  1.0000
  C   C2866     1.0  0.32540  0.69552  0.34139  1.0000
  C   C2867     1.0  0.26014  0.97479  0.21272  1.0000
  H   H2851     1.0  0.47668  0.71849  0.22836  1.0000
  C   C2868     1.0  0.42240  0.74622  0.19303  1.0000
  H   H2852     1.0  0.39459  0.72047  0.24858  1.0000
  H   H2853     1.0  0.26256  0.80065  0.33255  1.0000
  H   H2854     1.0  0.43444  0.71677  0.18322  1.0000
  Fe  Fe479     1.0  0.24111  0.88052  0.27853  1.0000
  H   H2855     1.0  0.28932  0.48850  0.19615  1.0000
  H   H2856     1.0  0.27423  0.50140  0.25859  1.0000
  H   H2857     1.0  0.31229  0.56565  0.18526  1.0000
  H   H2858     1.0  0.26606  0.64778  0.30530  1.0000
  C   C2869     1.0  0.25122  0.58685  0.22382  1.0000
  S   S957      1.0  0.30931  0.69203  0.36768  1.0000
  H   H2859     1.0  0.42365  0.74054  0.18819  1.0000
  C   C2870     1.0  0.26438  0.86887  0.22713  1.0000
  H   H2860     1.0  0.24750  0.69490  0.35110  1.0000
  S   S958      1.0  0.25276  0.65144  0.37158  1.0000
  S   S959      1.0  0.24629  0.89498  0.26713  1.0000
  H   H2861     1.0  0.25207  0.87689  0.23789  1.0000
  H   H2862     1.0  0.29805  0.62396  0.17825  1.0000
  Fe  Fe480     1.0  0.24415  0.85879  0.27436  1.0000
  H   H2863     1.0  0.24905  0.89918  0.28635  1.0000
  H   H2864     1.0  0.29670  0.83220  0.17912  1.0000
  C   C2871     1.0  0.24534  0.62960  0.20887  1.0000
  H   H2865     1.0  0.47442  0.68772  0.18437  1.0000
  H   H2866     1.0  0.48667  0.67916  0.19665  1.0000
  C   C2872     1.0  0.24502  0.72614  0.34241  1.0000
  C   C2873     1.0  0.24583  0.83586  0.32903  1.0000
  H   H2867     1.0  0.24374  0.85035  0.18762  1.0000
  N   N237      1.0  0.24243  0.93322  0.25576  1.0000
  H   H2868     1.0  0.24567  0.61941  0.35453  1.0000
  H   H2869     1.0  0.49001  0.71462  0.20423  1.0000
  C   C2874     1.0  0.24764  0.89018  0.19340  1.0000
  H   H2870     1.0  0.25181  0.74619  0.37441  1.0000
  C   C2875     1.0  0.24433  0.62654  0.21981  1.0000
  H   H2871     1.0  0.29936  0.97997  0.22563  1.0000
  C   C2876     1.0  0.48288  0.70011  0.17635  1.0000
  C   C2877     1.0  0.24107  0.84187  0.32060  1.0000
  H   H2872     1.0  0.27582  0.67342  0.37580  1.0000
  Fe  Fe481     1.0  0.24058  0.86094  0.29697  1.0000
  H   H2873     1.0  0.28976  0.81361  0.17618  1.0000
  C   C2878     1.0  0.28523  0.70990  0.56194  1.0000
  C   C2879     1.0  0.25169  0.64843  0.41916  1.0000
  H   H2874     1.0  0.27384  0.75141  0.38945  1.0000
  H   H2875     1.0  0.26745  0.70426  0.47992  1.0000
  C   C2880     1.0  0.26628  0.67737  0.41073  1.0000
  C   C2881     1.0  0.28490  0.67876  0.55536  1.0000
  N   N238      1.0  0.27567  0.70262  0.49198  1.0000
  H   H2876     1.0  0.32063  0.72279  0.56143  1.0000
  H   H2877     1.0  0.24931  0.80013  0.55715  1.0000
  C   C2882     1.0  0.27367  0.77418  0.40531  1.0000
  H   H2878     1.0  0.24114  0.74418  0.47997  1.0000
  C   C2883     1.0  0.25474  0.78042  0.40670  1.0000
  S   S960      1.0  0.27439  0.76238  0.44343  1.0000
  H   H2879     1.0  0.27215  0.72127  0.46993  1.0000
  C   C2884     1.0  0.27783  0.71930  0.56003  1.0000
  S   S961      1.0  0.33473  0.71610  0.38796  1.0000
  S   S962      1.0  0.24608  0.70768  0.49103  1.0000
  H   H2880     1.0  0.28117  0.72948  0.52798  1.0000
  H   H2881     1.0  0.26969  0.73041  0.54859  1.0000
  C   C2885     1.0  0.28759  0.70853  0.54393  1.0000
  C   C2886     1.0  0.26386  0.74808  0.38117  1.0000
  Fe  Fe482     1.0  0.27172  0.75572  0.54534  1.0000
  S   S963      1.0  0.28634  0.74451  0.53968  1.0000
  S   S964      1.0  0.25647  0.75020  0.55204  1.0000
  Fe  Fe483     1.0  0.28251  0.77406  0.53718  1.0000
  S   S965      1.0  0.29803  0.76414  0.53031  1.0000
  S   S966      1.0  0.27950  0.79168  0.53535  1.0000
  Fe  Fe484     1.0  0.28798  0.75669  0.52451  1.0000
  S   S967      1.0  0.28919  0.74883  0.51094  1.0000
  Fe  Fe485     1.0  0.29475  0.75291  0.54598  1.0000
  S   S968      1.0  0.30547  0.74196  0.55656  1.0000
  S   S969      1.0  0.27288  0.76764  0.53013  1.0000
  S   S970      1.0  0.27981  0.76318  0.55299  1.0000
  C   C2887     1.0  0.24386  0.72728  0.56756  1.0000
  C   C2888     1.0  0.24598  0.71109  0.56202  1.0000
  Fe  Fe486     1.0  0.25848  0.70614  0.52289  1.0000
  S   S971      1.0  0.27516  0.69834  0.52459  1.0000
  S   S972      1.0  0.25644  0.71676  0.50736  1.0000
  C   C2889     1.0  0.24430  0.72207  0.55973  1.0000
  Fe  Fe487     1.0  0.28935  0.75652  0.44975  1.0000
  S   S973      1.0  0.28870  0.73943  0.45360  1.0000
  S   S974      1.0  0.29222  0.76482  0.46117  1.0000
  Fe  Fe488     1.0  0.28455  0.75989  0.42767  1.0000
  S   S975      1.0  0.28325  0.74310  0.43025  1.0000
  Fe  Fe489     1.0  0.27443  0.74519  0.44647  1.0000
  Fe  Fe490     1.0  0.29764  0.73911  0.43692  1.0000
  S   S976      1.0  0.31093  0.72548  0.43311  1.0000
  S   S977      1.0  0.29963  0.75575  0.43356  1.0000
  H   H2882     1.0  0.25411  0.67290  0.39380  1.0000
  H   H2883     1.0  0.27167  0.69046  0.38111  1.0000
  H   H2884     1.0  0.26048  0.75212  0.43371  1.0000
  N   N239      1.0  0.29622  0.79594  0.56441  1.0000
  C   C2890     1.0  0.28993  0.75359  0.49715  1.0000
  C   C2891     1.0  0.29241  0.76336  0.49181  1.0000
  C   C2892     1.0  0.29332  0.76655  0.48078  1.0000
  C   C2893     1.0  0.29157  0.76014  0.47498  1.0000
  C   C2894     1.0  0.28896  0.75044  0.48034  1.0000
  C   C2895     1.0  0.28821  0.74717  0.49134  1.0000
  H   H2885     1.0  0.29387  0.76834  0.49613  1.0000
  H   H2886     1.0  0.29544  0.77403  0.47671  1.0000
  H   H2887     1.0  0.28758  0.74547  0.47600  1.0000
  H   H2888     1.0  0.28628  0.73962  0.49539  1.0000
  C   C2896     1.0  0.25288  0.74867  0.54104  1.0000
  C   C2897     1.0  0.26060  0.74754  0.53188  1.0000
  C   C2898     1.0  0.25794  0.74653  0.52293  1.0000
  C   C2899     1.0  0.28089  0.67500  0.37995  1.0000
  C   C2900     1.0  0.25347  0.74904  0.38047  1.0000
  H   H2889     1.0  0.24588  0.70699  0.55613  1.0000
  H   H2890     1.0  0.26870  0.74730  0.53164  1.0000
  H   H2891     1.0  0.26408  0.74532  0.51603  1.0000
  C   C2901     1.0  0.31046  0.74274  0.57465  1.0000
  S   S978      1.0  0.24615  0.69763  0.52327  1.0000
  C   C2902     1.0  0.32512  0.74686  0.41140  1.0000
  C   C2903     1.0  0.29213  0.80591  0.56800  1.0000
  H   H2892     1.0  0.31458  0.70757  0.57462  1.0000
  H   H2893     1.0  0.26145  0.75534  0.47111  1.0000
  Fe  Fe491     1.0  0.24443  0.72766  0.51644  1.0000
  C   C2904     1.0  0.25140  0.74636  0.42638  1.0000
  N   N240      1.0  0.28030  0.71774  0.54213  1.0000
  H   H2894     1.0  0.29148  0.70425  0.53769  1.0000
  C   C2905     1.0  0.32744  0.71867  0.40036  1.0000
  C   C2906     1.0  0.31724  0.72507  0.40173  1.0000
  C   C2907     1.0  0.31208  0.72751  0.41168  1.0000
  C   C2908     1.0  0.31696  0.72319  0.42033  1.0000
  C   C2909     1.0  0.32703  0.71668  0.41892  1.0000
  C   C2910     1.0  0.33229  0.71459  0.40899  1.0000
  H   H2895     1.0  0.31353  0.72844  0.39504  1.0000
  H   H2896     1.0  0.30437  0.73270  0.41265  1.0000
  H   H2897     1.0  0.33087  0.71331  0.42553  1.0000
  H   H2898     1.0  0.34016  0.70968  0.40801  1.0000
  S   S979      1.0  0.24765  0.70824  0.43218  1.0000
  H   H2899     1.0  0.29570  0.69698  0.55534  1.0000
  C   C2911     1.0  0.27186  0.69200  0.54652  1.0000
  C   C2912     1.0  0.27829  0.69069  0.53666  1.0000
  C   C2913     1.0  0.28799  0.68351  0.53624  1.0000
  C   C2914     1.0  0.29119  0.67749  0.54550  1.0000
  H   H2900     1.0  0.26440  0.69762  0.54691  1.0000
  H   H2901     1.0  0.29304  0.68249  0.52870  1.0000
  H   H2902     1.0  0.29864  0.67183  0.54500  1.0000
  H   H2903     1.0  0.27213  0.69166  0.50650  1.0000
  H   H2904     1.0  0.28981  0.71961  0.49284  1.0000
  C   C2915     1.0  0.25615  0.78320  0.39566  1.0000
  C   C2916     1.0  0.28976  0.66742  0.38228  1.0000
  C   C2917     1.0  0.27272  0.69262  0.49792  1.0000
  C   C2918     1.0  0.31213  0.74630  0.56369  1.0000
  C   C2919     1.0  0.32050  0.75134  0.55846  1.0000
  C   C2920     1.0  0.32733  0.75253  0.56415  1.0000
  H   H2905     1.0  0.26007  0.75952  0.50201  1.0000
  H   H2906     1.0  0.29258  0.80267  0.54921  1.0000
  H   H2907     1.0  0.32208  0.75380  0.54996  1.0000
  H   H2908     1.0  0.25900  0.76052  0.40123  1.0000
  C   C2921     1.0  0.25558  0.74657  0.43478  1.0000
  C   C2922     1.0  0.26454  0.80953  0.56213  1.0000
  C   C2923     1.0  0.26590  0.81478  0.55156  1.0000
  C   C2924     1.0  0.27045  0.80915  0.54352  1.0000
  C   C2925     1.0  0.27352  0.79815  0.54591  1.0000
  C   C2926     1.0  0.27205  0.79278  0.55650  1.0000
  C   C2927     1.0  0.32725  0.74540  0.39315  1.0000
  H   H2909     1.0  0.26349  0.82328  0.54955  1.0000
  H   H2910     1.0  0.27156  0.81336  0.53538  1.0000
  H   H2911     1.0  0.27440  0.78429  0.55845  1.0000
  S   S980      1.0  0.24779  0.71797  0.53190  1.0000
  C   C2928     1.0  0.25903  0.67904  0.40441  1.0000
  H   H2912     1.0  0.31890  0.74541  0.41864  1.0000
  S   S981      1.0  0.25859  0.81715  0.57182  1.0000
  H   H2913     1.0  0.32812  0.75377  0.41138  1.0000
  S   S982      1.0  0.26610  0.68698  0.41739  1.0000
  H   H2914     1.0  0.25299  0.68621  0.40382  1.0000
  C   C2929     1.0  0.24299  0.65438  0.40410  1.0000
  H   H2915     1.0  0.29837  0.75999  0.39297  1.0000
  C   C2930     1.0  0.26753  0.66222  0.39932  1.0000
  N   N241      1.0  0.27876  0.71999  0.42344  1.0000
  C   C2931     1.0  0.26988  0.72329  0.41934  1.0000
  C   C2932     1.0  0.28853  0.71934  0.41691  1.0000
  C   C2933     1.0  0.27060  0.72653  0.40845  1.0000
  C   C2934     1.0  0.28955  0.72247  0.40597  1.0000
  C   C2935     1.0  0.28052  0.72618  0.40173  1.0000
  C   C2936     1.0  0.27774  0.71667  0.43489  1.0000
  H   H2916     1.0  0.26217  0.72343  0.42450  1.0000
  H   H2917     1.0  0.29560  0.71645  0.42016  1.0000
  H   H2918     1.0  0.26348  0.72930  0.40529  1.0000
  H   H2919     1.0  0.29729  0.72206  0.40080  1.0000
  H   H2920     1.0  0.28125  0.72874  0.39326  1.0000
  H   H2921     1.0  0.27641  0.70848  0.43759  1.0000
  H   H2922     1.0  0.28491  0.71702  0.43730  1.0000
  H   H2923     1.0  0.27098  0.72198  0.43899  1.0000
  H   H2924     1.0  0.28358  0.80672  0.57161  1.0000
  S   S983      1.0  0.28952  0.67068  0.56661  1.0000
  C   C2937     1.0  0.27499  0.71722  0.47710  1.0000
  C   C2938     1.0  0.27234  0.70762  0.48280  1.0000
  H   H2925     1.0  0.33446  0.73017  0.56425  1.0000
  N   N242      1.0  0.32092  0.74877  0.40192  1.0000
  H   H2926     1.0  0.24561  0.72695  0.45318  1.0000
  H   H2927     1.0  0.24688  0.78194  0.41153  1.0000
  C   C2939     1.0  0.26581  0.75206  0.38883  1.0000
  S   S984      1.0  0.25997  0.73868  0.45444  1.0000
  H   H2928     1.0  0.26749  0.78345  0.38100  1.0000
  H   H2929     1.0  0.24096  0.76619  0.40756  1.0000
  H   H2930     1.0  0.28485  0.70267  0.50266  1.0000
  Fe  Fe492     1.0  0.25023  0.69775  0.42098  1.0000
  C   C2940     1.0  0.27538  0.72307  0.55005  1.0000
  H   H2931     1.0  0.30540  0.76943  0.55536  1.0000
  C   C2941     1.0  0.28489  0.71630  0.48996  1.0000
  H   H2932     1.0  0.29892  0.68100  0.39448  1.0000
  H   H2933     1.0  0.24716  0.64714  0.40147  1.0000
  C   C2942     1.0  0.29578  0.79560  0.55449  1.0000
  H   H2934     1.0  0.25192  0.71095  0.46861  1.0000
  H   H2935     1.0  0.28310  0.76352  0.37717  1.0000
  C   C2943     1.0  0.24702  0.73255  0.44581  1.0000
  H   H2936     1.0  0.27029  0.68709  0.56349  1.0000
  H   H2937     1.0  0.33155  0.73968  0.41192  1.0000
  Fe  Fe493     1.0  0.26340  0.65869  0.37652  1.0000
  H   H2938     1.0  0.29149  0.65988  0.38002  1.0000
  H   H2939     1.0  0.26499  0.79122  0.47217  1.0000
  C   C2944     1.0  0.29374  0.67929  0.39053  1.0000
  H   H2940     1.0  0.26483  0.69233  0.49700  1.0000
  C   C2945     1.0  0.29916  0.78607  0.55107  1.0000
  C   C2946     1.0  0.25735  0.75719  0.39553  1.0000
  C   C2947     1.0  0.24629  0.79300  0.55892  1.0000
  H   H2941     1.0  0.26632  0.79430  0.57272  1.0000
  C   C2948     1.0  0.24739  0.70544  0.57204  1.0000
  H   H2942     1.0  0.27964  0.66672  0.41639  1.0000
  H   H2943     1.0  0.27414  0.72372  0.56619  1.0000
  C   C2949     1.0  0.28205  0.70672  0.49547  1.0000
  S   S985      1.0  0.24506  0.78896  0.38984  1.0000
  C   C2950     1.0  0.26762  0.79848  0.56461  1.0000
  C   C2951     1.0  0.29007  0.70440  0.55389  1.0000
  H   H2944     1.0  0.28148  0.71662  0.52626  1.0000
  C   C2952     1.0  0.27796  0.72222  0.53162  1.0000
  H   H2945     1.0  0.24692  0.73024  0.48284  1.0000
  C   C2953     1.0  0.30343  0.77727  0.56798  1.0000
  S   S986      1.0  0.24210  0.73706  0.41663  1.0000
  H   H2946     1.0  0.24794  0.77222  0.54848  1.0000
  N   N243      1.0  0.26792  0.77470  0.47818  1.0000
  C   C2954     1.0  0.26624  0.76916  0.47185  1.0000
  C   C2955     1.0  0.26567  0.77136  0.48890  1.0000
  C   C2956     1.0  0.26250  0.75984  0.47620  1.0000
  C   C2957     1.0  0.26180  0.76216  0.49352  1.0000
  C   C2958     1.0  0.26026  0.75634  0.48713  1.0000
  C   C2959     1.0  0.27173  0.78451  0.47345  1.0000
  H   H2947     1.0  0.26811  0.77178  0.46335  1.0000
  H   H2948     1.0  0.26704  0.77569  0.49395  1.0000
  C   C2960     1.0  0.30293  0.77686  0.55789  1.0000
  C   C2961     1.0  0.32330  0.74706  0.38410  1.0000
  H   H2949     1.0  0.25738  0.74913  0.49069  1.0000
  H   H2950     1.0  0.30329  0.66380  0.38927  1.0000
  H   H2951     1.0  0.27735  0.78394  0.46578  1.0000
  H   H2952     1.0  0.27614  0.78609  0.47855  1.0000
  C   C2962     1.0  0.25974  0.67153  0.39862  1.0000
  C   C2963     1.0  0.27452  0.66041  0.40596  1.0000
  C   C2964     1.0  0.28128  0.72158  0.48075  1.0000
  C   C2965     1.0  0.25360  0.73948  0.44442  1.0000
  H   H2953     1.0  0.28054  0.65324  0.40659  1.0000
  C   C2966     1.0  0.27523  0.68611  0.55590  1.0000
  H   H2954     1.0  0.30578  0.75700  0.40870  1.0000
  C   C2967     1.0  0.27856  0.68462  0.38304  1.0000
  H   H2955     1.0  0.33401  0.75611  0.56000  1.0000
  S   S987      1.0  0.28495  0.76926  0.41094  1.0000
  H   H2956     1.0  0.24294  0.72656  0.55204  1.0000
  C   C2968     1.0  0.29629  0.66959  0.38754  1.0000
  H   H2957     1.0  0.25590  0.65233  0.42258  1.0000
  C   C2969     1.0  0.26632  0.78128  0.38948  1.0000
  C   C2970     1.0  0.32595  0.74853  0.57506  1.0000
  C   C2971     1.0  0.31074  0.75415  0.40182  1.0000
  H   H2958     1.0  0.32829  0.74408  0.37730  1.0000
  C   C2972     1.0  0.30652  0.75589  0.39293  1.0000
  H   H2959     1.0  0.28341  0.72900  0.47641  1.0000
  H   H2960     1.0  0.25521  0.78824  0.54447  1.0000
  C   C2973     1.0  0.26346  0.77577  0.41152  1.0000
  S   S988      1.0  0.24351  0.71057  0.40862  1.0000
  S   S989      1.0  0.26886  0.65275  0.39193  1.0000
  H   H2961     1.0  0.25336  0.75152  0.41883  1.0000
  H   H2962     1.0  0.26930  0.72423  0.53211  1.0000
  H   H2963     1.0  0.27867  0.68592  0.49512  1.0000
  C   C2974     1.0  0.27402  0.66805  0.41149  1.0000
  H   H2964     1.0  0.28292  0.77585  0.38942  1.0000
  H   H2965     1.0  0.26231  0.77376  0.42001  1.0000
  C   C2975     1.0  0.27506  0.77693  0.39429  1.0000
  H   H2966     1.0  0.24215  0.73584  0.56580  1.0000
  C   C2976     1.0  0.33204  0.72330  0.56976  1.0000
  C   C2977     1.0  0.31283  0.75225  0.38404  1.0000
  C   C2978     1.0  0.29994  0.78694  0.57115  1.0000
  N   N244      1.0  0.28485  0.68657  0.38844  1.0000
  H   H2967     1.0  0.28726  0.70693  0.56963  1.0000
  C   C2979     1.0  0.24518  0.75411  0.38739  1.0000
  C   C2980     1.0  0.24243  0.74870  0.54124  1.0000
  C   C2981     1.0  0.24264  0.73252  0.43750  1.0000
  C   C2982     1.0  0.24540  0.77732  0.55409  1.0000
  H   H2968     1.0  0.33530  0.74104  0.39322  1.0000
  S   S990      1.0  0.30960  0.71518  0.38019  1.0000
  C   C2983     1.0  0.28239  0.69671  0.39156  1.0000
  H   H2969     1.0  0.30648  0.77014  0.57330  1.0000
  Fe  Fe494     1.0  0.24316  0.70921  0.50815  1.0000
  H   H2970     1.0  0.27382  0.70031  0.39245  1.0000
  C   C2984     1.0  0.24747  0.74689  0.52300  1.0000
  H   H2971     1.0  0.29316  0.81278  0.56135  1.0000
  S   S991      1.0  0.24439  0.74479  0.51204  1.0000
  H   H2972     1.0  0.28701  0.70215  0.38556  1.0000
  C   C2985     1.0  0.32427  0.71916  0.56818  1.0000
  C   C2986     1.0  0.24951  0.78638  0.55176  1.0000
  H   H2973     1.0  0.28428  0.69561  0.39938  1.0000
  C   C2987     1.0  0.24484  0.70778  0.47104  1.0000
  H   H2974     1.0  0.25792  0.64354  0.41410  1.0000
  H   H2975     1.0  0.29633  0.80630  0.57390  1.0000
  N   N245      1.0  0.24719  0.75817  0.39475  1.0000
  H   H2976     1.0  0.30958  0.75341  0.37715  1.0000
  C   C2988     1.0  0.24517  0.73912  0.42765  1.0000
  H   H2977     1.0  0.24857  0.69690  0.57397  1.0000
  H   H2978     1.0  0.29869  0.78582  0.54323  1.0000
  H   H2979     1.0  0.24412  0.70825  0.45509  1.0000
  H   H2980     1.0  0.24718  0.64323  0.42558  1.0000
  N   N246      1.0  0.24455  0.65631  0.41297  1.0000
  C   C2989     1.0  0.32094  0.71057  0.57553  1.0000
  H   H2981     1.0  0.24059  0.66705  0.42324  1.0000
  Fe  Fe495     1.0  0.39422  0.68559  0.72880  1.0000
  S   S992      1.0  0.39482  0.67039  0.74091  1.0000
  S   S993      1.0  0.38260  0.70045  0.73164  1.0000
  Fe  Fe496     1.0  0.41442  0.67729  0.71437  1.0000
  S   S994      1.0  0.41642  0.66142  0.72527  1.0000
  S   S995      1.0  0.42840  0.67926  0.70103  1.0000
  Fe  Fe497     1.0  0.39902  0.66299  0.72678  1.0000
  S   S996      1.0  0.39395  0.64911  0.72435  1.0000
  Fe  Fe498     1.0  0.41211  0.67044  0.73809  1.0000
  S   S997      1.0  0.42141  0.66670  0.75091  1.0000
  S   S998      1.0  0.39739  0.67832  0.71478  1.0000
  S   S999      1.0  0.41104  0.68618  0.72709  1.0000
  H   H2982     1.0  0.30746  0.49915  0.74239  1.0000
  C   C2990     1.0  0.29496  0.50793  0.75247  1.0000
  H   H2983     1.0  0.24561  0.58056  0.68961  1.0000
  S   S1000     1.0  0.40734  0.72968  0.76651  1.0000
  H   H2984     1.0  0.44311  0.68524  0.71141  1.0000
  Fe  Fe499     1.0  0.41108  0.72836  0.66188  1.0000
  S   S1001     1.0  0.41068  0.74446  0.65137  1.0000
  S   S1002     1.0  0.42535  0.71534  0.66005  1.0000
  Fe  Fe500     1.0  0.39022  0.73508  0.67583  1.0000
  S   S1003     1.0  0.38828  0.75188  0.66699  1.0000
  S   S1004     1.0  0.37762  0.72851  0.68845  1.0000
  Fe  Fe501     1.0  0.39355  0.74476  0.65262  1.0000
  S   S1005     1.0  0.38390  0.75210  0.63996  1.0000
  Fe  Fe502     1.0  0.40558  0.74995  0.66664  1.0000
  S   S1006     1.0  0.41310  0.76212  0.66914  1.0000
  S   S1007     1.0  0.39461  0.72804  0.66161  1.0000
  S   S1008     1.0  0.40682  0.73381  0.67702  1.0000
  Fe  Fe503     1.0  0.37530  0.77424  0.73738  1.0000
  S   S1009     1.0  0.38451  0.78441  0.72412  1.0000
  S   S1010     1.0  0.37568  0.77230  0.75426  1.0000
  Fe  Fe504     1.0  0.36632  0.76685  0.72299  1.0000
  S   S1011     1.0  0.37463  0.77649  0.70849  1.0000
  S   S1012     1.0  0.35679  0.75546  0.72330  1.0000
  Fe  Fe505     1.0  0.38847  0.77069  0.71632  1.0000
  S   S1013     1.0  0.40422  0.76350  0.70745  1.0000
  Fe  Fe506     1.0  0.36973  0.78923  0.71772  1.0000
  S   S1014     1.0  0.36441  0.80594  0.70914  1.0000
  S   S1015     1.0  0.38047  0.76011  0.73010  1.0000
  S   S1016     1.0  0.36015  0.78000  0.73169  1.0000
  Fe  Fe507     1.0  0.46588  0.75653  0.68768  1.0000
  S   S1017     1.0  0.45944  0.75109  0.70487  1.0000
  S   S1018     1.0  0.45964  0.74970  0.67743  1.0000
  S   S1019     1.0  0.47355  0.76498  0.70935  1.0000
  Fe  Fe508     1.0  0.47586  0.74883  0.70687  1.0000
  Fe  Fe509     1.0  0.45777  0.76785  0.70556  1.0000
  S   S1020     1.0  0.44314  0.77549  0.71567  1.0000
  S   S1021     1.0  0.46352  0.77362  0.68825  1.0000
  H   H2985     1.0  0.30413  0.73866  0.57870  1.0000
  C   C2991     1.0  0.25297  0.95514  0.71974  1.0000
  H   H2986     1.0  0.24808  0.88857  0.76222  1.0000
  N   N247      1.0  0.37493  0.66202  0.70523  1.0000
  Fe  Fe510     1.0  0.46161  0.71358  0.76736  1.0000
  S   S1022     1.0  0.28518  0.54849  0.74152  1.0000
  H   H2987     1.0  0.31622  0.74066  0.58869  1.0000
  H   H2988     1.0  0.30960  0.64484  0.69524  1.0000
  H   H2989     1.0  0.24956  0.65762  0.63421  1.0000
  Fe  Fe511     1.0  0.33881  0.63244  0.72852  1.0000
  S   S1023     1.0  0.32633  0.64214  0.71945  1.0000
  S   S1024     1.0  0.34689  0.64260  0.73358  1.0000
  Fe  Fe512     1.0  0.33142  0.61198  0.73067  1.0000
  S   S1025     1.0  0.31847  0.62043  0.72212  1.0000
  S   S1026     1.0  0.33287  0.59442  0.73720  1.0000
  Fe  Fe513     1.0  0.33054  0.62887  0.71101  1.0000
  S   S1027     1.0  0.33208  0.63158  0.69355  1.0000
  Fe  Fe514     1.0  0.31551  0.63268  0.73144  1.0000
  S   S1028     1.0  0.29849  0.63897  0.73807  1.0000
  S   S1029     1.0  0.34399  0.61981  0.71895  1.0000
  S   S1030     1.0  0.32753  0.62360  0.74108  1.0000
  Fe  Fe515     1.0  0.29836  0.60440  0.67567  1.0000
  S   S1031     1.0  0.29228  0.59625  0.66670  1.0000
  S   S1032     1.0  0.31575  0.60312  0.67359  1.0000
  Fe  Fe516     1.0  0.27651  0.61318  0.68713  1.0000
  S   S1033     1.0  0.26858  0.60618  0.67886  1.0000
  H   H2990     1.0  0.26479  0.96062  0.72372  1.0000
  Fe  Fe517     1.0  0.28107  0.59156  0.68207  1.0000
  S   S1034     1.0  0.27767  0.57577  0.69204  1.0000
  Fe  Fe518     1.0  0.28037  0.61162  0.66432  1.0000
  S   S1035     1.0  0.27471  0.61992  0.64912  1.0000
  S   S1036     1.0  0.28843  0.59844  0.69110  1.0000
  S   S1037     1.0  0.28714  0.62000  0.67242  1.0000
  H   H2991     1.0  0.35306  0.59597  0.70194  1.0000
  C   C2992     1.0  0.26641  0.96325  0.70691  1.0000
  S   S1038     1.0  0.25641  0.55636  0.75506  1.0000
  H   H2992     1.0  0.31077  0.63933  0.67944  1.0000
  N   N248      1.0  0.24533  0.72168  0.57735  1.0000
  C   C2993     1.0  0.25273  0.92660  0.72662  1.0000
  S   S1039     1.0  0.25013  0.68363  0.60642  1.0000
  H   H2993     1.0  0.24446  0.64520  0.65231  1.0000
  H   H2994     1.0  0.37294  0.68221  0.76814  1.0000
  S   S1040     1.0  0.25526  0.51973  0.73485  1.0000
  S   S1041     1.0  0.25003  0.54708  0.68618  1.0000
  H   H2995     1.0  0.27774  0.51299  0.73169  1.0000
  H   H2996     1.0  0.28898  0.73230  0.60895  1.0000
  C   C2994     1.0  0.29107  0.63461  0.71494  1.0000
  S   S1042     1.0  0.25339  0.51946  0.70678  1.0000
  C   C2995     1.0  0.30191  0.57971  0.77430  1.0000
  H   H2997     1.0  0.38760  0.66237  0.69186  1.0000
  Fe  Fe519     1.0  0.26749  0.87796  0.66059  1.0000
  S   S1043     1.0  0.27187  0.86351  0.67280  1.0000
  S   S1044     1.0  0.26386  0.89294  0.66675  1.0000
  Fe  Fe520     1.0  0.26586  0.86456  0.64583  1.0000
  S   S1045     1.0  0.26990  0.84943  0.65723  1.0000
  S   S1046     1.0  0.26329  0.86358  0.63017  1.0000
  H   H2998     1.0  0.29149  0.51201  0.73107  1.0000
  Fe  Fe521     1.0  0.28218  0.85668  0.65917  1.0000
  S   S1047     1.0  0.29878  0.84737  0.65783  1.0000
  H   H2999     1.0  0.31123  0.94973  0.69536  1.0000
  S   S1048     1.0  0.27888  0.87153  0.64703  1.0000
  Fe  Fe522     1.0  0.31391  0.84569  0.72220  1.0000
  S   S1049     1.0  0.30446  0.84816  0.71002  1.0000
  S   S1050     1.0  0.32054  0.82987  0.73143  1.0000
  Fe  Fe523     1.0  0.31080  0.86919  0.72088  1.0000
  S   S1051     1.0  0.30142  0.87388  0.70826  1.0000
  S   S1052     1.0  0.31394  0.87981  0.72940  1.0000
  Fe  Fe524     1.0  0.29333  0.86083  0.71791  1.0000
  S   S1053     1.0  0.27568  0.86362  0.72275  1.0000
  Fe  Fe525     1.0  0.31342  0.86095  0.70147  1.0000
  S   S1054     1.0  0.32149  0.86256  0.68446  1.0000
  S   S1055     1.0  0.30189  0.85700  0.73100  1.0000
  S   S1056     1.0  0.32367  0.85756  0.71315  1.0000
  S   S1057     1.0  0.25787  0.92902  0.75381  1.0000
  Fe  Fe526     1.0  0.29305  0.93039  0.67619  1.0000
  S   S1058     1.0  0.29178  0.92106  0.69277  1.0000
  S   S1059     1.0  0.29662  0.92062  0.66385  1.0000
  Fe  Fe527     1.0  0.28923  0.95148  0.68311  1.0000
  S   S1060     1.0  0.28737  0.94354  0.70010  1.0000
  S   S1061     1.0  0.28746  0.96930  0.67877  1.0000
  Fe  Fe528     1.0  0.30136  0.93145  0.69458  1.0000
  S   S1062     1.0  0.31424  0.92627  0.70361  1.0000
  Fe  Fe529     1.0  0.27800  0.93403  0.69641  1.0000
  S   S1063     1.0  0.26294  0.92955  0.70611  1.0000
  S   S1064     1.0  0.30394  0.93988  0.67767  1.0000
  S   S1065     1.0  0.27855  0.94293  0.67974  1.0000
  C   C2996     1.0  0.25585  0.49014  0.72981  1.0000
  Fe  Fe530     1.0  0.25935  0.81447  0.61038  1.0000
  S   S1066     1.0  0.26879  0.79815  0.61530  1.0000
  S   S1067     1.0  0.48388  0.73649  0.71855  1.0000
  Fe  Fe531     1.0  0.25960  0.79292  0.60679  1.0000
  S   S1068     1.0  0.25379  0.77779  0.61310  1.0000
  H   H3000     1.0  0.28085  0.65722  0.64698  1.0000
  H   H3001     1.0  0.31248  0.83639  0.75197  1.0000
  S   S1069     1.0  0.33010  0.73007  0.62914  1.0000
  H   H3002     1.0  0.38394  0.71420  0.74410  1.0000
  S   S1070     1.0  0.31209  0.75791  0.62961  1.0000
  H   H3003     1.0  0.28008  0.62664  0.71279  1.0000
  S   S1071     1.0  0.45539  0.73103  0.76359  1.0000
  Fe  Fe532     1.0  0.28466  0.67530  0.58234  1.0000
  S   S1072     1.0  0.27664  0.66551  0.59706  1.0000
  C   C2997     1.0  0.30880  0.60428  0.75568  1.0000
  Fe  Fe533     1.0  0.28682  0.69088  0.59379  1.0000
  S   S1073     1.0  0.27884  0.68271  0.60954  1.0000
  S   S1074     1.0  0.29263  0.70595  0.59003  1.0000
  Fe  Fe534     1.0  0.28848  0.66769  0.60480  1.0000
  S   S1075     1.0  0.29699  0.65519  0.61642  1.0000
  Fe  Fe535     1.0  0.26762  0.68116  0.60065  1.0000
  H   H3004     1.0  0.26493  0.48670  0.70892  1.0000
  S   S1076     1.0  0.29752  0.67602  0.58970  1.0000
  S   S1077     1.0  0.27460  0.69077  0.58529  1.0000
  H   H3005     1.0  0.37488  0.68473  0.74890  1.0000
  H   H3006     1.0  0.24918  0.59113  0.74190  1.0000
  H   H3007     1.0  0.25373  0.82879  0.64240  1.0000
  S   S1078     1.0  0.27141  0.79471  0.59162  1.0000
  H   H3008     1.0  0.32182  0.94565  0.68487  1.0000
  H   H3009     1.0  0.36166  0.72731  0.74987  1.0000
  H   H3010     1.0  0.24630  0.92552  0.72389  1.0000
  H   H3011     1.0  0.24938  0.95244  0.72793  1.0000
  H   H3012     1.0  0.28868  0.64936  0.57939  1.0000
  H   H3013     1.0  0.26046  0.69841  0.60938  1.0000
  Fe  Fe536     1.0  0.25910  0.85796  0.66952  1.0000
  C   C2998     1.0  0.30244  0.63839  0.68185  1.0000
  H   H3014     1.0  0.29741  0.64548  0.67785  1.0000
  C   C2999     1.0  0.30157  0.69914  0.60749  1.0000
  C   C3000     1.0  0.29943  0.70729  0.59891  1.0000
  C   C3001     1.0  0.30310  0.71655  0.59711  1.0000
  C   C3002     1.0  0.30906  0.71761  0.60372  1.0000
  H   H3015     1.0  0.30150  0.72283  0.59044  1.0000
  H   H3016     1.0  0.31203  0.72469  0.60215  1.0000
  H   H3017     1.0  0.30391  0.62642  0.61779  1.0000
  H   H3018     1.0  0.29401  0.83822  0.76210  1.0000
  H   H3019     1.0  0.28139  0.51441  0.76330  1.0000
  C   C3003     1.0  0.30825  0.76922  0.62033  1.0000
  C   C3004     1.0  0.29990  0.77728  0.62345  1.0000
  C   C3005     1.0  0.29650  0.78611  0.61591  1.0000
  H   H3020     1.0  0.29607  0.77669  0.63168  1.0000
  H   H3021     1.0  0.29015  0.79239  0.61835  1.0000
  H   H3022     1.0  0.27580  0.59374  0.72608  1.0000
  H   H3023     1.0  0.25523  0.58808  0.71072  1.0000
  H   H3024     1.0  0.24301  0.89135  0.69354  1.0000
  C   C3006     1.0  0.33632  0.71884  0.57874  1.0000
  C   C3007     1.0  0.31929  0.95061  0.69086  1.0000
  C   C3008     1.0  0.40015  0.67420  0.77078  1.0000
  C   C3009     1.0  0.29405  0.97191  0.69563  1.0000
  H   H3025     1.0  0.32456  0.96460  0.69826  1.0000
  H   H3026     1.0  0.29470  0.96353  0.69865  1.0000
  C   C3010     1.0  0.25972  0.92831  0.74072  1.0000
  S   S1079     1.0  0.33566  0.74867  0.58161  1.0000
  H   H3027     1.0  0.40599  0.66667  0.77229  1.0000
  C   C3011     1.0  0.26207  0.92836  0.71949  1.0000
  C   C3012     1.0  0.27041  0.92962  0.72305  1.0000
  C   C3013     1.0  0.26923  0.92963  0.73368  1.0000
  C   C3014     1.0  0.28554  0.50757  0.76000  1.0000
  H   H3028     1.0  0.27775  0.93064  0.71764  1.0000
  H   H3029     1.0  0.27558  0.93088  0.73640  1.0000
  C   C3015     1.0  0.31492  0.89239  0.72173  1.0000
  C   C3016     1.0  0.31296  0.89543  0.71154  1.0000
  C   C3017     1.0  0.31296  0.90580  0.70584  1.0000
  C   C3018     1.0  0.31508  0.91309  0.71026  1.0000
  C   C3019     1.0  0.31742  0.90995  0.72029  1.0000
  C   C3020     1.0  0.31724  0.89963  0.72606  1.0000
  H   H3030     1.0  0.31145  0.88982  0.70805  1.0000
  H   H3031     1.0  0.31149  0.90813  0.69796  1.0000
  H   H3032     1.0  0.31911  0.91557  0.72370  1.0000
  H   H3033     1.0  0.31883  0.89729  0.73391  1.0000
  C   C3021     1.0  0.26086  0.85189  0.62849  1.0000
  C   C3022     1.0  0.26118  0.85076  0.61834  1.0000
  C   C3023     1.0  0.25902  0.84165  0.61682  1.0000
  C   C3024     1.0  0.25626  0.83371  0.62550  1.0000
  C   C3025     1.0  0.25592  0.83486  0.63565  1.0000
  C   C3026     1.0  0.25837  0.84381  0.63712  1.0000
  H   H3034     1.0  0.26303  0.85699  0.61161  1.0000
  C   C3027     1.0  0.24338  0.77739  0.60771  1.0000
  H   H3035     1.0  0.29313  0.87053  0.76132  1.0000
  H   H3036     1.0  0.25808  0.84454  0.64497  1.0000
  C   C3028     1.0  0.30520  0.85095  0.66560  1.0000
  C   C3029     1.0  0.29987  0.85297  0.67553  1.0000
  C   C3030     1.0  0.30493  0.85630  0.68149  1.0000
  C   C3031     1.0  0.31526  0.85782  0.67742  1.0000
  C   C3032     1.0  0.32062  0.85571  0.66754  1.0000
  C   C3033     1.0  0.31563  0.85215  0.66169  1.0000
  H   H3037     1.0  0.29187  0.85187  0.67866  1.0000
  H   H3038     1.0  0.30071  0.85806  0.68906  1.0000
  H   H3039     1.0  0.32860  0.85689  0.66437  1.0000
  H   H3040     1.0  0.31976  0.85061  0.65400  1.0000
  C   C3034     1.0  0.27303  0.90071  0.66556  1.0000
  C   C3035     1.0  0.28254  0.90010  0.65807  1.0000
  C   C3036     1.0  0.28964  0.90636  0.65750  1.0000
  C   C3037     1.0  0.28735  0.91318  0.66446  1.0000
  C   C3038     1.0  0.27785  0.91378  0.67194  1.0000
  C   C3039     1.0  0.27069  0.90763  0.67242  1.0000
  H   H3041     1.0  0.28438  0.89487  0.65269  1.0000
  H   H3042     1.0  0.29696  0.90589  0.65166  1.0000
  H   H3043     1.0  0.27596  0.91904  0.67730  1.0000
  H   H3044     1.0  0.26333  0.90822  0.67817  1.0000
  C   C3040     1.0  0.27028  0.87420  0.75346  1.0000
  C   C3041     1.0  0.27827  0.87708  0.74494  1.0000
  C   C3042     1.0  0.27949  0.87431  0.73535  1.0000
  C   C3043     1.0  0.27284  0.86848  0.73425  1.0000
  C   C3044     1.0  0.26460  0.86584  0.74267  1.0000
  C   C3045     1.0  0.26335  0.86866  0.75232  1.0000
  H   H3045     1.0  0.28374  0.88124  0.74581  1.0000
  H   H3046     1.0  0.28580  0.87647  0.72887  1.0000
  H   H3047     1.0  0.25952  0.86124  0.74186  1.0000
  H   H3048     1.0  0.25719  0.86638  0.75889  1.0000
  H   H3049     1.0  0.26585  0.89934  0.73715  1.0000
  C   C3046     1.0  0.32699  0.57660  0.70557  1.0000
  H   H3050     1.0  0.44271  0.72076  0.66774  1.0000
  Fe  Fe537     1.0  0.33414  0.74195  0.59915  1.0000
  C   C3047     1.0  0.29786  0.84485  0.75982  1.0000
  C   C3048     1.0  0.25548  0.54628  0.74970  1.0000
  C   C3049     1.0  0.25022  0.54857  0.74145  1.0000
  C   C3050     1.0  0.29279  0.64544  0.58579  1.0000
  C   C3051     1.0  0.25528  0.53010  0.74038  1.0000
  C   C3052     1.0  0.26032  0.52783  0.74878  1.0000
  C   C3053     1.0  0.26055  0.53592  0.75333  1.0000
  S   S1080     1.0  0.26685  0.62134  0.70017  1.0000
  C   C3054     1.0  0.39199  0.74674  0.77092  1.0000
  H   H3051     1.0  0.26412  0.51979  0.75176  1.0000
  H   H3052     1.0  0.26456  0.53408  0.75975  1.0000
  C   C3055     1.0  0.37080  0.66990  0.71073  1.0000
  H   H3053     1.0  0.26072  0.85943  0.69738  1.0000
  H   H3054     1.0  0.43064  0.74708  0.73022  1.0000
  C   C3056     1.0  0.28133  0.62928  0.63980  1.0000
  C   C3057     1.0  0.29033  0.63148  0.64133  1.0000
  C   C3058     1.0  0.29505  0.63945  0.63409  1.0000
  C   C3059     1.0  0.29072  0.64538  0.62538  1.0000
  C   C3060     1.0  0.28179  0.64312  0.62378  1.0000
  C   C3061     1.0  0.27719  0.63502  0.63091  1.0000
  H   H3055     1.0  0.29365  0.62705  0.64810  1.0000
  H   H3056     1.0  0.30204  0.64107  0.63531  1.0000
  H   H3057     1.0  0.27845  0.64758  0.61704  1.0000
  H   H3058     1.0  0.27028  0.63330  0.62963  1.0000
  H   H3059     1.0  0.31743  0.60381  0.75422  1.0000
  H   H3060     1.0  0.31174  0.98021  0.66521  1.0000
  H   H3061     1.0  0.24878  0.49876  0.74226  1.0000
  C   C3062     1.0  0.28124  0.90697  0.74867  1.0000
  C   C3063     1.0  0.36003  0.67207  0.71533  1.0000
  H   H3062     1.0  0.25369  0.71622  0.61313  1.0000
  H   H3063     1.0  0.26725  0.59979  0.70090  1.0000
  C   C3064     1.0  0.28920  0.63726  0.59361  1.0000
  H   H3064     1.0  0.27719  0.90918  0.71426  1.0000
  C   C3065     1.0  0.26908  0.56882  0.69028  1.0000
  C   C3066     1.0  0.26457  0.56184  0.69904  1.0000
  C   C3067     1.0  0.25864  0.55524  0.69788  1.0000
  C   C3068     1.0  0.25725  0.55547  0.68791  1.0000
  C   C3069     1.0  0.26147  0.56269  0.67918  1.0000
  C   C3070     1.0  0.26735  0.56937  0.68035  1.0000
  H   H3065     1.0  0.26579  0.56141  0.70675  1.0000
  H   H3066     1.0  0.25533  0.54984  0.70468  1.0000
  H   H3067     1.0  0.28048  0.65434  0.77165  1.0000
  H   H3068     1.0  0.27084  0.57467  0.67354  1.0000
  C   C3071     1.0  0.32731  0.62341  0.68850  1.0000
  C   C3072     1.0  0.31918  0.61820  0.69444  1.0000
  C   C3073     1.0  0.31516  0.61234  0.68979  1.0000
  C   C3074     1.0  0.31959  0.61134  0.67934  1.0000
  C   C3075     1.0  0.32785  0.61634  0.67356  1.0000
  C   C3076     1.0  0.33154  0.62251  0.67805  1.0000
  H   H3069     1.0  0.31581  0.61887  0.70250  1.0000
  H   H3070     1.0  0.30888  0.60833  0.69436  1.0000
  H   H3071     1.0  0.33137  0.61550  0.66553  1.0000
  H   H3072     1.0  0.33781  0.62651  0.67340  1.0000
  C   C3077     1.0  0.32334  0.58831  0.73587  1.0000
  C   C3078     1.0  0.32226  0.57835  0.74218  1.0000
  C   C3079     1.0  0.30890  0.57783  0.73335  1.0000
  C   C3080     1.0  0.31006  0.58771  0.72697  1.0000
  C   C3081     1.0  0.31720  0.59294  0.72825  1.0000
  H   H3073     1.0  0.30557  0.59125  0.72086  1.0000
  H   H3074     1.0  0.31831  0.60027  0.72295  1.0000
  C   C3082     1.0  0.48073  0.73085  0.73989  1.0000
  C   C3083     1.0  0.47444  0.73002  0.75006  1.0000
  N   N249      1.0  0.39810  0.78648  0.68890  1.0000
  H   H3075     1.0  0.47772  0.72501  0.75667  1.0000
  C   C3084     1.0  0.35308  0.81328  0.71610  1.0000
  C   C3085     1.0  0.34858  0.82344  0.71117  1.0000
  C   C3086     1.0  0.33873  0.82878  0.71597  1.0000
  C   C3087     1.0  0.33342  0.82402  0.72580  1.0000
  C   C3088     1.0  0.33821  0.81414  0.73098  1.0000
  C   C3089     1.0  0.34803  0.80880  0.72616  1.0000
  H   H3076     1.0  0.35253  0.82703  0.70345  1.0000
  H   H3077     1.0  0.33512  0.83640  0.71190  1.0000
  H   H3078     1.0  0.33422  0.81048  0.73865  1.0000
  H   H3079     1.0  0.35157  0.80117  0.73020  1.0000
  C   C3090     1.0  0.41501  0.76636  0.71026  1.0000
  C   C3091     1.0  0.41374  0.77116  0.71865  1.0000
  C   C3092     1.0  0.42238  0.77399  0.72032  1.0000
  C   C3093     1.0  0.43229  0.77202  0.71359  1.0000
  C   C3094     1.0  0.43352  0.76721  0.70521  1.0000
  C   C3095     1.0  0.42493  0.76427  0.70363  1.0000
  H   H3080     1.0  0.40612  0.77268  0.72387  1.0000
  H   H3081     1.0  0.42139  0.77768  0.72682  1.0000
  H   H3082     1.0  0.44103  0.76594  0.69978  1.0000
  H   H3083     1.0  0.42593  0.76063  0.69708  1.0000
  C   C3096     1.0  0.37778  0.74466  0.63525  1.0000
  C   C3097     1.0  0.37002  0.74997  0.62932  1.0000
  C   C3098     1.0  0.36459  0.74431  0.62591  1.0000
  C   C3099     1.0  0.36707  0.73328  0.62819  1.0000
  C   C3100     1.0  0.37502  0.72799  0.63389  1.0000
  C   C3101     1.0  0.38026  0.73364  0.63751  1.0000
  H   H3084     1.0  0.36812  0.75849  0.62743  1.0000
  H   H3085     1.0  0.35856  0.74848  0.62146  1.0000
  H   H3086     1.0  0.38627  0.72945  0.64197  1.0000
  C   C3102     1.0  0.42549  0.75844  0.67290  1.0000
  C   C3103     1.0  0.43070  0.76634  0.67249  1.0000
  C   C3104     1.0  0.44084  0.76373  0.67474  1.0000
  C   C3105     1.0  0.44596  0.75316  0.67730  1.0000
  C   C3106     1.0  0.44062  0.74525  0.67804  1.0000
  C   C3107     1.0  0.43043  0.74786  0.67587  1.0000
  H   H3087     1.0  0.42703  0.77454  0.67006  1.0000
  H   H3088     1.0  0.44492  0.76990  0.67397  1.0000
  H   H3089     1.0  0.44453  0.73706  0.67995  1.0000
  H   H3090     1.0  0.42653  0.74169  0.67623  1.0000
  C   C3108     1.0  0.37177  0.73628  0.69784  1.0000
  C   C3109     1.0  0.37601  0.74465  0.69791  1.0000
  C   C3110     1.0  0.37143  0.75058  0.70573  1.0000
  C   C3111     1.0  0.36253  0.74824  0.71337  1.0000
  C   C3112     1.0  0.35831  0.73987  0.71325  1.0000
  C   C3113     1.0  0.36295  0.73385  0.70553  1.0000
  H   H3091     1.0  0.38293  0.74645  0.69208  1.0000
  H   H3092     1.0  0.37491  0.75683  0.70589  1.0000
  H   H3093     1.0  0.35146  0.73799  0.71917  1.0000
  H   H3094     1.0  0.35970  0.72733  0.70552  1.0000
  C   C3114     1.0  0.39967  0.74233  0.76310  1.0000
  C   C3115     1.0  0.40067  0.74774  0.75258  1.0000
  C   C3116     1.0  0.39366  0.75733  0.74987  1.0000
  C   C3117     1.0  0.38565  0.76145  0.75766  1.0000
  C   C3118     1.0  0.38509  0.75636  0.76822  1.0000
  H   H3095     1.0  0.32952  0.84923  0.75010  1.0000
  H   H3096     1.0  0.40652  0.74436  0.74647  1.0000
  H   H3097     1.0  0.39441  0.76148  0.74174  1.0000
  C   C3119     1.0  0.26250  0.96188  0.69889  1.0000
  H   H3098     1.0  0.34610  0.70638  0.59353  1.0000
  H   H3099     1.0  0.24796  0.70646  0.58749  1.0000
  C   C3120     1.0  0.29047  0.63191  0.69814  1.0000
  H   H3100     1.0  0.28652  0.81978  0.64713  1.0000
  S   S1081     1.0  0.34202  0.72538  0.60576  1.0000
  H   H3101     1.0  0.29706  0.72581  0.62471  1.0000
  C   C3121     1.0  0.24451  0.72721  0.58562  1.0000
  H   H3102     1.0  0.28145  0.52025  0.73896  1.0000
  C   C3122     1.0  0.38097  0.64681  0.72775  1.0000
  C   C3123     1.0  0.37260  0.65297  0.73358  1.0000
  C   C3124     1.0  0.36229  0.65126  0.73562  1.0000
  C   C3125     1.0  0.36021  0.64349  0.73174  1.0000
  C   C3126     1.0  0.36861  0.63720  0.72605  1.0000
  C   C3127     1.0  0.37895  0.63882  0.72412  1.0000
  H   H3103     1.0  0.37405  0.65908  0.73650  1.0000
  H   H3104     1.0  0.35585  0.65613  0.74008  1.0000
  H   H3105     1.0  0.36713  0.63115  0.72306  1.0000
  H   H3106     1.0  0.38540  0.63394  0.71968  1.0000
  C   C3128     1.0  0.42706  0.68941  0.68982  1.0000
  C   C3129     1.0  0.41758  0.69680  0.68906  1.0000
  C   C3130     1.0  0.41694  0.70484  0.67993  1.0000
  C   C3131     1.0  0.42577  0.70541  0.67157  1.0000
  C   C3132     1.0  0.43518  0.69798  0.67238  1.0000
  C   C3133     1.0  0.43584  0.69005  0.68148  1.0000
  H   H3107     1.0  0.41077  0.69623  0.69544  1.0000
  H   H3108     1.0  0.40959  0.71044  0.67925  1.0000
  H   H3109     1.0  0.44198  0.69832  0.66593  1.0000
  H   H3110     1.0  0.44315  0.68432  0.68201  1.0000
  C   C3134     1.0  0.43057  0.67443  0.74983  1.0000
  C   C3135     1.0  0.43299  0.68209  0.74075  1.0000
  C   C3136     1.0  0.44069  0.68775  0.73983  1.0000
  C   C3137     1.0  0.44608  0.68582  0.74796  1.0000
  C   C3138     1.0  0.44350  0.67837  0.75718  1.0000
  C   C3139     1.0  0.43583  0.67263  0.75806  1.0000
  H   H3111     1.0  0.42922  0.68342  0.73427  1.0000
  H   H3112     1.0  0.44268  0.69346  0.73266  1.0000
  C   C3140     1.0  0.36642  0.72672  0.66628  1.0000
  H   H3113     1.0  0.24640  0.54236  0.73022  1.0000
  C   C3141     1.0  0.37954  0.69961  0.74525  1.0000
  C   C3142     1.0  0.38134  0.70732  0.74936  1.0000
  C   C3143     1.0  0.38041  0.70581  0.76027  1.0000
  H   H3114     1.0  0.27020  0.64365  0.65562  1.0000
  C   C3144     1.0  0.37526  0.68924  0.76293  1.0000
  C   C3145     1.0  0.37638  0.69065  0.75205  1.0000
  H   H3115     1.0  0.48891  0.77735  0.72039  1.0000
  C   C3146     1.0  0.28150  0.49830  0.76333  1.0000
  H   H3116     1.0  0.33104  0.56793  0.72041  1.0000
  H   H3117     1.0  0.34109  0.60609  0.70319  1.0000
  H   H3118     1.0  0.31157  0.86846  0.75110  1.0000
  C   C3147     1.0  0.45986  0.77536  0.73220  1.0000
  C   C3148     1.0  0.30830  0.84387  0.75410  1.0000
  H   H3119     1.0  0.44804  0.65070  0.74683  1.0000
  H   H3120     1.0  0.24415  0.92570  0.74262  1.0000
  C   C3149     1.0  0.33207  0.57462  0.71389  1.0000
  C   C3150     1.0  0.30402  0.59942  0.77492  1.0000
  S   S1082     1.0  0.30011  0.51961  0.74759  1.0000
  C   C3151     1.0  0.48076  0.77684  0.72396  1.0000
  C   C3152     1.0  0.34485  0.59785  0.70650  1.0000
  C   C3153     1.0  0.28559  0.62895  0.76867  1.0000
  N   N250      1.0  0.44747  0.73370  0.65616  1.0000
  C   C3154     1.0  0.43863  0.73913  0.65236  1.0000
  C   C3155     1.0  0.45476  0.73891  0.65653  1.0000
  C   C3156     1.0  0.43685  0.75010  0.64889  1.0000
  C   C3157     1.0  0.45329  0.74986  0.65302  1.0000
  C   C3158     1.0  0.44422  0.75549  0.64928  1.0000
  C   C3159     1.0  0.44872  0.72230  0.66035  1.0000
  H   H3121     1.0  0.43281  0.73498  0.65221  1.0000
  H   H3122     1.0  0.46156  0.73472  0.65994  1.0000
  H   H3123     1.0  0.42965  0.75444  0.64625  1.0000
  H   H3124     1.0  0.45887  0.75400  0.65376  1.0000
  H   H3125     1.0  0.44274  0.76402  0.64698  1.0000
  H   H3126     1.0  0.45668  0.71859  0.66204  1.0000
  N   N251      1.0  0.28070  0.90343  0.72946  1.0000
  H   H3127     1.0  0.29879  0.69195  0.60893  1.0000
  C   C3160     1.0  0.28897  0.90700  0.73033  1.0000
  H   H3128     1.0  0.45585  0.79054  0.72210  1.0000
  S   S1083     1.0  0.24334  0.49645  0.70472  1.0000
  N   N252      1.0  0.31927  0.96172  0.68591  1.0000
  C   C3161     1.0  0.40432  0.79775  0.69985  1.0000
  H   H3129     1.0  0.29522  0.90860  0.72354  1.0000
  H   H3130     1.0  0.30287  0.64291  0.71449  1.0000
  Fe  Fe538     1.0  0.47982  0.76909  0.69209  1.0000
  C   C3162     1.0  0.33775  0.70567  0.59514  1.0000
  H   H3131     1.0  0.24331  0.61706  0.75901  1.0000
  H   H3132     1.0  0.28421  0.85544  0.76672  1.0000
  H   H3133     1.0  0.38228  0.71152  0.76336  1.0000
  C   C3163     1.0  0.31733  0.74386  0.58033  1.0000
  C   C3164     1.0  0.37747  0.69669  0.76704  1.0000
  H   H3134     1.0  0.24132  0.87311  0.67818  1.0000
  C   C3165     1.0  0.46810  0.76719  0.73526  1.0000
  H   H3135     1.0  0.24572  0.73540  0.58229  1.0000
  H   H3136     1.0  0.25320  0.57423  0.73775  1.0000
  C   C3166     1.0  0.29040  0.97671  0.68631  1.0000
  H   H3137     1.0  0.24117  0.94309  0.70999  1.0000
  H   H3138     1.0  0.25174  0.84868  0.71825  1.0000
  C   C3167     1.0  0.35762  0.73582  0.77249  1.0000
  C   C3168     1.0  0.25630  0.65760  0.63718  1.0000
  H   H3139     1.0  0.37183  0.64992  0.69977  1.0000
  H   H3140     1.0  0.29993  0.85343  0.62318  1.0000
  H   H3141     1.0  0.47461  0.79204  0.71483  1.0000
  N   N253      1.0  0.28654  0.75568  0.61522  1.0000
  C   C3169     1.0  0.28591  0.74868  0.60981  1.0000
  C   C3170     1.0  0.29085  0.75215  0.62397  1.0000
  C   C3171     1.0  0.28950  0.73783  0.61324  1.0000
  C   C3172     1.0  0.28323  0.76705  0.61126  1.0000
  H   H3142     1.0  0.28265  0.75147  0.60278  1.0000
  H   H3143     1.0  0.29152  0.75769  0.62817  1.0000
  C   C3173     1.0  0.33437  0.59208  0.69766  1.0000
  H   H3144     1.0  0.27683  0.76880  0.60687  1.0000
  H   H3145     1.0  0.28007  0.77130  0.61784  1.0000
  H   H3146     1.0  0.29008  0.77022  0.60599  1.0000
  H   H3147     1.0  0.24966  0.84576  0.70662  1.0000
  H   H3148     1.0  0.31233  0.63564  0.61300  1.0000
  H   H3149     1.0  0.27317  0.96689  0.70496  1.0000
  H   H3150     1.0  0.33537  0.59880  0.69120  1.0000
  H   H3151     1.0  0.43406  0.66669  0.76510  1.0000
  C   C3174     1.0  0.25831  0.61299  0.70786  1.0000
  C   C3175     1.0  0.24646  0.85077  0.71259  1.0000
  H   H3152     1.0  0.25057  0.72308  0.59040  1.0000
  C   C3176     1.0  0.32825  0.58531  0.69732  1.0000
  S   S1084     1.0  0.25239  0.82265  0.62418  1.0000
  N   N254      1.0  0.30553  0.59680  0.76542  1.0000
  C   C3177     1.0  0.25151  0.92671  0.73721  1.0000
  C   C3178     1.0  0.25580  0.49374  0.73865  1.0000
  H   H3153     1.0  0.28136  0.90844  0.75617  1.0000
  H   H3154     1.0  0.25916  0.84093  0.60898  1.0000
  C   C3179     1.0  0.26170  0.95976  0.71741  1.0000
  C   C3180     1.0  0.29716  0.97792  0.70090  1.0000
  C   C3181     1.0  0.27915  0.58027  0.71922  1.0000
  H   H3155     1.0  0.48457  0.75370  0.74117  1.0000
  C   C3182     1.0  0.33808  0.58159  0.71399  1.0000
  Fe  Fe539     1.0  0.24381  0.53513  0.70028  1.0000
  H   H3156     1.0  0.31342  0.64648  0.59515  1.0000
  H   H3157     1.0  0.35699  0.72112  0.76932  1.0000
  C   C3183     1.0  0.27396  0.48465  0.73788  1.0000
  S   S1085     1.0  0.24751  0.85020  0.68253  1.0000
  H   H3158     1.0  0.27554  0.89584  0.72028  1.0000
  C   C3184     1.0  0.27101  0.66530  0.63577  1.0000
  C   C3185     1.0  0.25290  0.87578  0.69469  1.0000
  S   S1086     1.0  0.27079  0.81843  0.59506  1.0000
  N   N255      1.0  0.31306  0.85233  0.75090  1.0000
  C   C3186     1.0  0.30909  0.63008  0.61058  1.0000
  C   C3187     1.0  0.24248  0.60974  0.72099  1.0000
  H   H3159     1.0  0.26632  0.90224  0.75441  1.0000
  H   H3160     1.0  0.34523  0.66734  0.71820  1.0000
  C   C3188     1.0  0.35527  0.72998  0.65390  1.0000
  C   C3189     1.0  0.27272  0.90356  0.74766  1.0000
  C   C3190     1.0  0.35349  0.66613  0.71424  1.0000
  H   H3161     1.0  0.31389  0.77953  0.59400  1.0000
  C   C3191     1.0  0.26218  0.66539  0.63216  1.0000
  C   C3192     1.0  0.24940  0.61650  0.71527  1.0000
  C   C3193     1.0  0.30156  0.64875  0.58633  1.0000
  N   N256      1.0  0.29867  0.63691  0.69330  1.0000
  H   H3162     1.0  0.46262  0.74739  0.72627  1.0000
  C   C3194     1.0  0.28658  0.63064  0.70902  1.0000
  H   H3163     1.0  0.45135  0.74548  0.74426  1.0000
  C   C3195     1.0  0.25304  0.64172  0.65045  1.0000
  H   H3164     1.0  0.41993  0.78841  0.69554  1.0000
  H   H3165     1.0  0.34176  0.58016  0.72065  1.0000
  C   C3196     1.0  0.29383  0.62785  0.77364  1.0000
  H   H3166     1.0  0.24935  0.57177  0.76947  1.0000
  C   C3197     1.0  0.36853  0.65629  0.70396  1.0000
  H   H3167     1.0  0.33313  0.70989  0.60148  1.0000
  C   C3198     1.0  0.29737  0.86299  0.75936  1.0000
  H   H3168     1.0  0.35686  0.67805  0.72003  1.0000
  H   H3169     1.0  0.29175  0.62603  0.60787  1.0000
  H   H3170     1.0  0.46128  0.67605  0.72544  1.0000
  H   H3171     1.0  0.28689  0.62884  0.69360  1.0000
  C   C3199     1.0  0.30779  0.86176  0.75360  1.0000
  N   N257      1.0  0.33209  0.81455  0.70328  1.0000
  C   C3200     1.0  0.32429  0.82347  0.70237  1.0000
  C   C3201     1.0  0.34128  0.81380  0.69581  1.0000
  C   C3202     1.0  0.32569  0.83203  0.69392  1.0000
  C   C3203     1.0  0.34297  0.82227  0.68732  1.0000
  C   C3204     1.0  0.33512  0.83145  0.68642  1.0000
  C   C3205     1.0  0.33043  0.80562  0.71212  1.0000
  H   H3172     1.0  0.31702  0.82409  0.70831  1.0000
  H   H3173     1.0  0.34752  0.80678  0.69660  1.0000
  H   H3174     1.0  0.31958  0.83914  0.69324  1.0000
  H   H3175     1.0  0.35039  0.82177  0.68160  1.0000
  H   H3176     1.0  0.33632  0.83817  0.67997  1.0000
  H   H3177     1.0  0.32636  0.80049  0.71013  1.0000
  H   H3178     1.0  0.33806  0.80084  0.71411  1.0000
  H   H3179     1.0  0.32562  0.80841  0.71935  1.0000
  N   N258      1.0  0.39337  0.72112  0.70921  1.0000
  C   C3206     1.0  0.38581  0.72516  0.71701  1.0000
  C   C3207     1.0  0.40214  0.72532  0.70469  1.0000
  C   C3208     1.0  0.38683  0.73376  0.72032  1.0000
  C   C3209     1.0  0.40332  0.73406  0.70766  1.0000
  C   C3210     1.0  0.39562  0.73825  0.71555  1.0000
  C   C3211     1.0  0.39233  0.71198  0.70596  1.0000
  H   H3180     1.0  0.37882  0.72188  0.72056  1.0000
  H   H3181     1.0  0.40821  0.72197  0.69865  1.0000
  H   H3182     1.0  0.38068  0.73711  0.72629  1.0000
  H   H3183     1.0  0.41009  0.73764  0.70383  1.0000
  H   H3184     1.0  0.39642  0.74504  0.71790  1.0000
  H   H3185     1.0  0.38392  0.71137  0.70772  1.0000
  H   H3186     1.0  0.39521  0.71270  0.69731  1.0000
  H   H3187     1.0  0.39684  0.70465  0.71019  1.0000
  H   H3188     1.0  0.27832  0.62662  0.77316  1.0000
  N   N259      1.0  0.40563  0.68294  0.76598  1.0000
  C   C3212     1.0  0.28942  0.90872  0.73996  1.0000
  Fe  Fe540     1.0  0.26178  0.81100  0.58817  1.0000
  H   H3189     1.0  0.25534  0.63681  0.65789  1.0000
  H   H3190     1.0  0.30427  0.65523  0.58035  1.0000
  C   C3213     1.0  0.32213  0.96789  0.69079  1.0000
  S   S1087     1.0  0.31858  0.71056  0.62081  1.0000
  C   C3214     1.0  0.30670  0.64375  0.59468  1.0000
  H   H3191     1.0  0.28229  0.63475  0.59333  1.0000
  N   N260      1.0  0.33887  0.59038  0.70611  1.0000
  C   C3215     1.0  0.29236  0.85450  0.76241  1.0000
  H   H3192     1.0  0.29603  0.91152  0.74059  1.0000
  C   C3216     1.0  0.24456  0.59949  0.71929  1.0000
  S   S1088     1.0  0.26924  0.87762  0.76540  1.0000
  N   N261      1.0  0.30518  0.89235  0.67669  1.0000
  C   C3217     1.0  0.30708  0.88602  0.66969  1.0000
  C   C3218     1.0  0.29602  0.89313  0.68419  1.0000
  C   C3219     1.0  0.29952  0.88061  0.66980  1.0000
  C   C3220     1.0  0.28836  0.88767  0.68465  1.0000
  C   C3221     1.0  0.29013  0.88141  0.67737  1.0000
  C   C3222     1.0  0.31323  0.89795  0.67642  1.0000
  H   H3193     1.0  0.31447  0.88516  0.66395  1.0000
  H   H3194     1.0  0.29453  0.89813  0.68975  1.0000
  H   H3195     1.0  0.30096  0.87574  0.66411  1.0000
  H   H3196     1.0  0.28101  0.88847  0.69045  1.0000
  H   H3197     1.0  0.28417  0.87732  0.67747  1.0000
  H   H3198     1.0  0.31922  0.89260  0.68082  1.0000
  H   H3199     1.0  0.31713  0.90089  0.66815  1.0000
  H   H3200     1.0  0.30966  0.90505  0.67988  1.0000
  H   H3201     1.0  0.28045  0.56623  0.71388  1.0000
  H   H3202     1.0  0.37589  0.67433  0.71190  1.0000
  H   H3203     1.0  0.41988  0.70618  0.75377  1.0000
  C   C3223     1.0  0.27843  0.52804  0.71500  1.0000
  N   N262      1.0  0.25910  0.65002  0.64561  1.0000
  Fe  Fe541     1.0  0.27343  0.55250  0.75586  1.0000
  H   H3204     1.0  0.32709  0.57461  0.74798  1.0000
  H   H3205     1.0  0.28058  0.63340  0.75388  1.0000
  H   H3206     1.0  0.44748  0.71840  0.65460  1.0000
  C   C3224     1.0  0.24266  0.89129  0.75689  1.0000
  C   C3225     1.0  0.31495  0.57318  0.74103  1.0000
  H   H3207     1.0  0.38952  0.65105  0.70263  1.0000
  C   C3226     1.0  0.46376  0.73497  0.75160  1.0000
  H   H3208     1.0  0.25928  0.87829  0.68842  1.0000
  H   H3209     1.0  0.36507  0.74538  0.74235  1.0000
  C   C3227     1.0  0.39377  0.79975  0.69915  1.0000
  C   C3228     1.0  0.47640  0.73684  0.73128  1.0000
  H   H3210     1.0  0.29637  0.54702  0.71254  1.0000
  C   C3229     1.0  0.28684  0.63283  0.75776  1.0000
  C   C3230     1.0  0.29636  0.63555  0.75183  1.0000
  C   C3231     1.0  0.27381  0.65753  0.64434  1.0000
  H   H3211     1.0  0.28623  0.85963  0.62736  1.0000
  C   C3232     1.0  0.45961  0.74162  0.74308  1.0000
  C   C3233     1.0  0.46597  0.74260  0.73289  1.0000
  Fe  Fe542     1.0  0.29320  0.53531  0.75286  1.0000
  H   H3212     1.0  0.29427  0.85320  0.63689  1.0000
  H   H3213     1.0  0.46021  0.66304  0.74232  1.0000
  H   H3214     1.0  0.28106  0.48239  0.74105  1.0000
  C   C3234     1.0  0.27251  0.90196  0.73789  1.0000
  C   C3235     1.0  0.29132  0.54171  0.71313  1.0000
  H   H3215     1.0  0.43867  0.66450  0.71726  1.0000
  H   H3216     1.0  0.35276  0.65333  0.70793  1.0000
  S   S1089     1.0  0.30042  0.57121  0.73098  1.0000
  Fe  Fe543     1.0  0.32358  0.74625  0.62074  1.0000
  H   H3217     1.0  0.36223  0.71448  0.66169  1.0000
  C   C3236     1.0  0.41770  0.69292  0.76668  1.0000
  H   H3218     1.0  0.24776  0.62446  0.71645  1.0000
  S   S1090     1.0  0.24924  0.80890  0.60298  1.0000
  C   C3237     1.0  0.29933  0.63982  0.70993  1.0000
  H   H3219     1.0  0.31422  0.56548  0.74589  1.0000
  C   C3238     1.0  0.38624  0.65967  0.70055  1.0000
  H   H3220     1.0  0.28643  0.84765  0.61468  1.0000
  H   H3221     1.0  0.33753  0.69718  0.59808  1.0000
  C   C3239     1.0  0.30018  0.49896  0.74823  1.0000
  H   H3222     1.0  0.36424  0.75684  0.75424  1.0000
  C   C3240     1.0  0.36135  0.72290  0.66076  1.0000
  H   H3223     1.0  0.35151  0.72710  0.64935  1.0000
  H   H3224     1.0  0.28134  0.83103  0.61554  1.0000
  H   H3225     1.0  0.46671  0.71857  0.73326  1.0000
  H   H3226     1.0  0.30226  0.63139  0.67907  1.0000
  N   N263      1.0  0.24909  0.95395  0.71181  1.0000
  C   C3241     1.0  0.25350  0.59601  0.71201  1.0000
  H   H3227     1.0  0.37117  0.72133  0.67167  1.0000
  C   C3242     1.0  0.36308  0.74258  0.75082  1.0000
  C   C3243     1.0  0.40399  0.68936  0.75654  1.0000
  H   H3228     1.0  0.26382  0.56216  0.72607  1.0000
  Fe  Fe544     1.0  0.46224  0.69425  0.75944  1.0000
  H   H3229     1.0  0.46350  0.72527  0.72082  1.0000
  H   H3230     1.0  0.45971  0.71276  0.72739  1.0000
  S   S1091     1.0  0.25400  0.87266  0.65800  1.0000
  Fe  Fe545     1.0  0.29419  0.55882  0.74447  1.0000
  C   C3244     1.0  0.46055  0.72033  0.72857  1.0000
  C   C3245     1.0  0.28373  0.83212  0.62219  1.0000
  S   S1092     1.0  0.28071  0.53869  0.76711  1.0000
  C   C3246     1.0  0.44358  0.66404  0.72264  1.0000
  C   C3247     1.0  0.28665  0.84147  0.62174  1.0000
  H   H3231     1.0  0.44765  0.67677  0.76348  1.0000
  C   C3248     1.0  0.26035  0.60271  0.70638  1.0000
  C   C3249     1.0  0.41175  0.79022  0.69485  1.0000
  H   H3232     1.0  0.41418  0.77843  0.68593  1.0000
  H   H3233     1.0  0.34999  0.74623  0.64694  1.0000
  S   S1093     1.0  0.45660  0.69218  0.74582  1.0000
  C   C3250     1.0  0.30305  0.64093  0.69903  1.0000
  C   C3251     1.0  0.31564  0.96603  0.67679  1.0000
  S   S1094     1.0  0.36026  0.72574  0.62445  1.0000
  C   C3252     1.0  0.29265  0.85277  0.62937  1.0000
  H   H3234     1.0  0.42426  0.74000  0.74935  1.0000
  H   H3235     1.0  0.30023  0.48285  0.74822  1.0000
  H   H3236     1.0  0.28628  0.54989  0.69861  1.0000
  H   H3237     1.0  0.28818  0.63368  0.72341  1.0000
  H   H3238     1.0  0.37704  0.71946  0.63563  1.0000
  C   C3253     1.0  0.40847  0.78464  0.68937  1.0000
  H   H3239     1.0  0.40670  0.80191  0.70439  1.0000
  C   C3254     1.0  0.36549  0.73760  0.66468  1.0000
  C   C3255     1.0  0.28567  0.54331  0.70534  1.0000
  H   H3240     1.0  0.45143  0.71456  0.74856  1.0000
  N   N264      1.0  0.35975  0.74447  0.65772  1.0000
  C   C3256     1.0  0.30317  0.63095  0.76778  1.0000
  C   C3257     1.0  0.35450  0.74081  0.65251  1.0000
  N   N265      1.0  0.28951  0.84292  0.63017  1.0000
  N   N266      1.0  0.45046  0.72572  0.73413  1.0000
  H   H3241     1.0  0.32477  0.94735  0.69638  1.0000
  C   C3258     1.0  0.45039  0.67895  0.71049  1.0000
  H   H3242     1.0  0.36951  0.74049  0.66895  1.0000
  C   C3259     1.0  0.29465  0.74138  0.62754  1.0000
  H   H3243     1.0  0.31569  0.62385  0.60773  1.0000
  C   C3260     1.0  0.45572  0.66306  0.73670  1.0000
  C   C3261     1.0  0.25762  0.59170  0.73971  1.0000
  C   C3262     1.0  0.24376  0.88314  0.69760  1.0000
  C   C3263     1.0  0.44462  0.73459  0.72894  1.0000
  H   H3244     1.0  0.24203  0.79327  0.59851  1.0000
  C   C3264     1.0  0.44686  0.72167  0.74453  1.0000
  C   C3265     1.0  0.44280  0.65661  0.73217  1.0000
  C   C3266     1.0  0.29050  0.53315  0.72169  1.0000
  C   C3267     1.0  0.31117  0.70948  0.61234  1.0000
  H   H3245     1.0  0.38624  0.78188  0.68418  1.0000
  H   H3246     1.0  0.44732  0.73768  0.72064  1.0000
  S   S1095     1.0  0.28154  0.56410  0.75779  1.0000
  C   C3268     1.0  0.27922  0.53640  0.70624  1.0000
  C   C3269     1.0  0.35773  0.65824  0.70847  1.0000
  Fe  Fe546     1.0  0.34536  0.73228  0.61777  1.0000
  H   H3247     1.0  0.45054  0.67553  0.70379  1.0000
  C   C3270     1.0  0.28958  0.83521  0.63917  1.0000
  C   C3271     1.0  0.29395  0.73418  0.62214  1.0000
  H   H3248     1.0  0.39078  0.66351  0.70364  1.0000
  C   C3272     1.0  0.32560  0.70612  0.58427  1.0000
  H   H3249     1.0  0.38787  0.80551  0.70310  1.0000
  C   C3273     1.0  0.28361  0.82429  0.63138  1.0000
  H   H3250     1.0  0.29192  0.83632  0.64584  1.0000
  H   H3251     1.0  0.24208  0.86126  0.64197  1.0000
  C   C3274     1.0  0.43737  0.72671  0.75013  1.0000
  H   H3252     1.0  0.30511  0.60700  0.77524  1.0000
  C   C3275     1.0  0.39079  0.79404  0.69357  1.0000
  H   H3253     1.0  0.29839  0.73869  0.63427  1.0000
  S   S1096     1.0  0.30334  0.54543  0.75462  1.0000
  N   N267      1.0  0.33327  0.71019  0.58571  1.0000
  C   C3276     1.0  0.29457  0.63239  0.60182  1.0000
  H   H3254     1.0  0.29504  0.53183  0.72767  1.0000
  N   N268      1.0  0.26383  0.58472  0.73255  1.0000
  Fe  Fe547     1.0  0.48084  0.69569  0.76825  1.0000
  H   H3255     1.0  0.34507  0.59759  0.71476  1.0000
  H   H3256     1.0  0.27429  0.49807  0.76927  1.0000
  C   C3277     1.0  0.30155  0.78692  0.60529  1.0000
  C   C3278     1.0  0.35889  0.75584  0.65610  1.0000
  H   H3257     1.0  0.35865  0.75978  0.64776  1.0000
  H   H3258     1.0  0.38254  0.79556  0.69322  1.0000
  C   C3279     1.0  0.28657  0.82582  0.63994  1.0000
  H   H3259     1.0  0.43463  0.72356  0.75842  1.0000
  C   C3280     1.0  0.25380  0.95715  0.70150  1.0000
  C   C3281     1.0  0.45628  0.67042  0.72712  1.0000
  C   C3282     1.0  0.30738  0.70027  0.61422  1.0000
  C   C3283     1.0  0.39492  0.78018  0.68342  1.0000
  H   H3260     1.0  0.35168  0.75930  0.66137  1.0000
  H   H3261     1.0  0.28115  0.81709  0.63187  1.0000
  C   C3284     1.0  0.26054  0.57592  0.73263  1.0000
  C   C3285     1.0  0.27310  0.58685  0.72607  1.0000
  C   C3286     1.0  0.30441  0.63484  0.75689  1.0000
  H   H3262     1.0  0.31162  0.63731  0.75240  1.0000
  H   H3263     1.0  0.25780  0.60007  0.73583  1.0000
  C   C3287     1.0  0.31322  0.77002  0.60970  1.0000
  H   H3264     1.0  0.27484  0.53752  0.70019  1.0000
  Fe  Fe548     1.0  0.27949  0.80180  0.59957  1.0000
  H   H3265     1.0  0.32203  0.57144  0.70557  1.0000
  S   S1097     1.0  0.47304  0.70556  0.75499  1.0000
  H   H3266     1.0  0.36593  0.75753  0.65764  1.0000
  C   C3288     1.0  0.43513  0.73990  0.73432  1.0000
  C   C3289     1.0  0.36249  0.74907  0.75760  1.0000
  H   H3267     1.0  0.45739  0.68256  0.70840  1.0000
  S   S1098     1.0  0.31819  0.74071  0.60926  1.0000
  N   N269      1.0  0.45026  0.67082  0.72023  1.0000
  C   C3290     1.0  0.28365  0.51747  0.73146  1.0000
  C   C3291     1.0  0.26774  0.64989  0.64920  1.0000
  H   H3268     1.0  0.28854  0.89836  0.71514  1.0000
  H   H3269     1.0  0.30900  0.69394  0.62087  1.0000
  H   H3270     1.0  0.39746  0.77163  0.68680  1.0000
  H   H3271     1.0  0.39876  0.78169  0.67493  1.0000
  C   C3292     1.0  0.43154  0.73594  0.74501  1.0000
  N   N270      1.0  0.28410  0.52648  0.72254  1.0000
  C   C3293     1.0  0.26648  0.56910  0.72598  1.0000
  H   H3272     1.0  0.28645  0.58201  0.71403  1.0000
  C   C3294     1.0  0.32394  0.85125  0.74476  1.0000
  S   S1099     1.0  0.33901  0.74898  0.61010  1.0000
  C   C3295     1.0  0.44890  0.65614  0.73924  1.0000
  C   C3296     1.0  0.27581  0.57134  0.71920  1.0000
  S   S1100     1.0  0.29706  0.79761  0.59575  1.0000
  C   C3297     1.0  0.25365  0.86515  0.69974  1.0000
  C   C3298     1.0  0.28046  0.90163  0.71928  1.0000
  C   C3299     1.0  0.30997  0.77893  0.60220  1.0000
  H   H3273     1.0  0.31962  0.76381  0.60721  1.0000
  Fe  Fe549     1.0  0.32619  0.72463  0.61658  1.0000
  C   C3300     1.0  0.28674  0.48930  0.75913  1.0000
  H   H3274     1.0  0.32442  0.58690  0.69074  1.0000
  H   H3275     1.0  0.27328  0.52280  0.71572  1.0000
  N   N271      1.0  0.30319  0.63567  0.60227  1.0000
  H   H3276     1.0  0.24490  0.84763  0.66225  1.0000
  C   C3301     1.0  0.47270  0.78519  0.72076  1.0000
  N   N272      1.0  0.35975  0.74566  0.76828  1.0000
  H   H3277     1.0  0.43722  0.65149  0.73423  1.0000
  H   H3278     1.0  0.31283  0.96128  0.67321  1.0000
  H   H3279     1.0  0.39546  0.67330  0.76556  1.0000
  H   H3280     1.0  0.25089  0.95597  0.69523  1.0000
  H   H3281     1.0  0.24224  0.85667  0.76688  1.0000
  S   S1101     1.0  0.47114  0.68333  0.77158  1.0000
  H   H3282     1.0  0.30021  0.97409  0.70796  1.0000
  H   H3283     1.0  0.36035  0.76043  0.77108  1.0000
  C   C3302     1.0  0.29607  0.48971  0.75148  1.0000
  H   H3284     1.0  0.24778  0.79072  0.62905  1.0000
  C   C3303     1.0  0.46219  0.78437  0.72485  1.0000
  Fe  Fe550     1.0  0.28997  0.55003  0.76785  1.0000
  H   H3285     1.0  0.27580  0.67112  0.63183  1.0000
  N   N273      1.0  0.24547  0.86195  0.70743  1.0000
  H   H3286     1.0  0.48881  0.72645  0.73868  1.0000
  H   H3287     1.0  0.32508  0.85870  0.73896  1.0000
  C   C3304     1.0  0.32157  0.97865  0.68644  1.0000
  H   H3288     1.0  0.30456  0.61249  0.75623  1.0000
  S   S1102     1.0  0.45029  0.70307  0.77085  1.0000
  C   C3305     1.0  0.25025  0.54049  0.73670  1.0000
  C   C3306     1.0  0.40903  0.69784  0.75203  1.0000
  H   H3289     1.0  0.32591  0.84502  0.74014  1.0000
  H   H3290     1.0  0.26626  0.96440  0.69070  1.0000
  H   H3291     1.0  0.24276  0.76135  0.61580  1.0000
  H   H3292     1.0  0.24337  0.85467  0.74882  1.0000
  H   H3293     1.0  0.26035  0.56298  0.67144  1.0000
  C   C3307     1.0  0.24833  0.71196  0.61222  1.0000
  H   H3294     1.0  0.30708  0.60260  0.74876  1.0000
  C   C3308     1.0  0.26492  0.49095  0.74270  1.0000
  H   H3295     1.0  0.24592  0.90690  0.75169  1.0000
  N   N274      1.0  0.47839  0.76795  0.73105  1.0000
  H   H3296     1.0  0.39879  0.68793  0.75243  1.0000
  C   C3309     1.0  0.36108  0.73247  0.75504  1.0000
  H   H3297     1.0  0.30582  0.58494  0.75752  1.0000
  H   H3298     1.0  0.40761  0.70294  0.74460  1.0000
  H   H3299     1.0  0.45171  0.77453  0.73516  1.0000
  C   C3310     1.0  0.35837  0.72904  0.76594  1.0000
  C   C3311     1.0  0.24526  0.69625  0.60910  1.0000
  C   C3312     1.0  0.41591  0.69963  0.75716  1.0000
  C   C3313     1.0  0.25216  0.70185  0.61012  1.0000
  H   H3300     1.0  0.26503  0.49366  0.74957  1.0000
  S   S1103     1.0  0.48284  0.75258  0.68964  1.0000
  H   H3301     1.0  0.30125  0.57194  0.77396  1.0000
  H   H3302     1.0  0.46621  0.76011  0.74076  1.0000
  H   H3303     1.0  0.48875  0.75397  0.72726  1.0000
  H   H3304     1.0  0.25458  0.63632  0.64500  1.0000
  C   C3314     1.0  0.30456  0.58707  0.76502  1.0000
  C   C3315     1.0  0.24701  0.71090  0.57967  1.0000
  H   H3305     1.0  0.24245  0.80459  0.62736  1.0000
  H   H3306     1.0  0.30953  0.63021  0.77161  1.0000
  H   H3307     1.0  0.30024  0.78718  0.57905  1.0000
  H   H3308     1.0  0.37912  0.75971  0.77429  1.0000
  H   H3309     1.0  0.24876  0.49236  0.72664  1.0000
  C   C3316     1.0  0.24154  0.90157  0.75089  1.0000
  C   C3317     1.0  0.31500  0.97676  0.67222  1.0000
  N   N275      1.0  0.26471  0.48383  0.72523  1.0000
  H   H3310     1.0  0.25997  0.67136  0.62543  1.0000
  H   H3311     1.0  0.32278  0.69960  0.59008  1.0000
  Fe  Fe551     1.0  0.24583  0.52367  0.72242  1.0000
  H   H3312     1.0  0.26082  0.58955  0.74696  1.0000
  C   C3318     1.0  0.41238  0.68462  0.77104  1.0000
  H   H3313     1.0  0.24633  0.55659  0.73859  1.0000
  H   H3314     1.0  0.42310  0.69417  0.77070  1.0000
  C   C3319     1.0  0.48690  0.75880  0.73332  1.0000
  H   H3315     1.0  0.34200  0.72245  0.58015  1.0000
  H   H3316     1.0  0.43225  0.73231  0.77604  1.0000
  C   C3320     1.0  0.35940  0.75234  0.77539  1.0000
  S   S1104     1.0  0.24747  0.62353  0.77578  1.0000
  H   H3317     1.0  0.26073  0.55465  0.77596  1.0000
  S   S1105     1.0  0.37763  0.70697  0.80272  1.0000
  S   S1106     1.0  0.39209  0.72492  0.79638  1.0000
  Fe  Fe552     1.0  0.39448  0.70733  0.80156  1.0000
  S   S1107     1.0  0.40318  0.69886  0.81452  1.0000
  Fe  Fe553     1.0  0.37569  0.72430  0.79595  1.0000
  S   S1108     1.0  0.36013  0.73506  0.80068  1.0000
  H   H3318     1.0  0.45103  0.70960  0.80126  1.0000
  Fe  Fe554     1.0  0.27678  0.61840  0.79382  1.0000
  S   S1109     1.0  0.27226  0.61123  0.81094  1.0000
  S   S1110     1.0  0.29267  0.62235  0.78712  1.0000
  Fe  Fe555     1.0  0.25557  0.61938  0.78941  1.0000
  S   S1111     1.0  0.24902  0.61265  0.80631  1.0000
  C   C3321     1.0  0.25563  0.56593  0.79702  1.0000
  Fe  Fe556     1.0  0.25713  0.62330  0.81035  1.0000
  S   S1112     1.0  0.24950  0.63420  0.82190  1.0000
  Fe  Fe557     1.0  0.26478  0.60135  0.80520  1.0000
  S   S1113     1.0  0.26630  0.58388  0.81133  1.0000
  S   S1114     1.0  0.26219  0.63107  0.79341  1.0000
  S   S1115     1.0  0.27082  0.60744  0.78813  1.0000
  H   H3319     1.0  0.25729  0.80905  0.83784  1.0000
  H   H3320     1.0  0.39126  0.74270  0.77907  1.0000
  H   H3321     1.0  0.41336  0.72415  0.80043  1.0000
  C   C3322     1.0  0.29375  0.63597  0.86883  1.0000
  H   H3322     1.0  0.29192  0.64470  0.78424  1.0000
  N   N276      1.0  0.42925  0.72293  0.79163  1.0000
  C   C3323     1.0  0.28035  0.73257  0.90149  1.0000
  H   H3323     1.0  0.24879  0.73849  0.96591  1.0000
  S   S1116     1.0  0.26260  0.86567  0.79552  1.0000
  H   H3324     1.0  0.29815  0.77030  0.84808  1.0000
  H   H3325     1.0  0.32580  0.70132  0.94820  1.0000
  H   H3326     1.0  0.24985  0.59007  0.79607  1.0000
  C   C3324     1.0  0.25342  0.71433  0.86772  1.0000
  H   H3327     1.0  0.25413  0.65854  0.79770  1.0000
  S   S1117     1.0  0.47002  0.70453  0.78033  1.0000
  C   C3325     1.0  0.26419  0.70265  0.96535  1.0000
  C   C3326     1.0  0.42153  0.69727  0.79939  1.0000
  H   H3328     1.0  0.31848  0.68575  0.95020  1.0000
  C   C3327     1.0  0.24681  0.78453  0.92308  1.0000
  H   H3329     1.0  0.26969  0.62391  0.89814  1.0000
  H   H3330     1.0  0.32211  0.67015  0.91798  1.0000
  C   C3328     1.0  0.32667  0.69792  0.96461  1.0000
  H   H3331     1.0  0.24679  0.58041  0.80785  1.0000
  S   S1118     1.0  0.26042  0.77315  0.88169  1.0000
  H   H3332     1.0  0.26501  0.55099  0.79360  1.0000
  Fe  Fe558     1.0  0.26920  0.65826  0.85908  1.0000
  S   S1119     1.0  0.25674  0.67319  0.85787  1.0000
  S   S1120     1.0  0.27566  0.64725  0.84760  1.0000
  Fe  Fe559     1.0  0.27325  0.66082  0.87980  1.0000
  S   S1121     1.0  0.26090  0.67571  0.88039  1.0000
  S   S1122     1.0  0.28385  0.65199  0.89127  1.0000
  Fe  Fe560     1.0  0.25120  0.66757  0.87528  1.0000
  Fe  Fe561     1.0  0.26765  0.67993  0.86303  1.0000
  S   S1123     1.0  0.27120  0.69601  0.85575  1.0000
  S   S1124     1.0  0.26295  0.65217  0.87618  1.0000
  S   S1125     1.0  0.28067  0.66551  0.86270  1.0000
  Fe  Fe562     1.0  0.31285  0.73226  0.87725  1.0000
  S   S1126     1.0  0.30057  0.72751  0.87224  1.0000
  S   S1127     1.0  0.30751  0.73715  0.89277  1.0000
  Fe  Fe563     1.0  0.32907  0.72908  0.85724  1.0000
  S   S1128     1.0  0.31808  0.72427  0.85032  1.0000
  S   S1129     1.0  0.34634  0.72820  0.85021  1.0000
  Fe  Fe564     1.0  0.30606  0.73754  0.85660  1.0000
  S   S1130     1.0  0.29319  0.74842  0.84889  1.0000
  Fe  Fe565     1.0  0.31358  0.71479  0.86660  1.0000
  S   S1131     1.0  0.31113  0.69830  0.87054  1.0000
  S   S1132     1.0  0.31745  0.74334  0.86196  1.0000
  S   S1133     1.0  0.32547  0.71846  0.87314  1.0000
  Fe  Fe566     1.0  0.29185  0.67560  0.93677  1.0000
  S   S1134     1.0  0.29341  0.69082  0.92536  1.0000
  S   S1135     1.0  0.29445  0.66057  0.93113  1.0000
  Fe  Fe567     1.0  0.28865  0.68540  0.95602  1.0000
  S   S1136     1.0  0.28950  0.70149  0.94598  1.0000
  Fe  Fe568     1.0  0.27973  0.69783  0.93680  1.0000
  S   S1137     1.0  0.26581  0.70824  0.93051  1.0000
  Fe  Fe569     1.0  0.30307  0.69275  0.93563  1.0000
  S   S1138     1.0  0.31848  0.69770  0.92855  1.0000
  S   S1139     1.0  0.27749  0.68245  0.94779  1.0000
  S   S1140     1.0  0.30286  0.67683  0.94616  1.0000
  S   S1141     1.0  0.29283  0.55084  0.78329  1.0000
  C   C3329     1.0  0.26111  0.74297  0.93005  1.0000
  C   C3330     1.0  0.27109  0.73644  0.93043  1.0000
  C   C3331     1.0  0.27271  0.72569  0.93046  1.0000
  C   C3332     1.0  0.26437  0.72160  0.92995  1.0000
  C   C3333     1.0  0.25454  0.72823  0.92919  1.0000
  C   C3334     1.0  0.25292  0.73887  0.92928  1.0000
  H   H3333     1.0  0.27746  0.73960  0.93102  1.0000
  H   H3334     1.0  0.28036  0.72059  0.93089  1.0000
  H   H3335     1.0  0.28612  0.74657  0.89957  1.0000
  C   C3335     1.0  0.31114  0.72677  0.90302  1.0000
  C   C3336     1.0  0.30398  0.72524  0.91268  1.0000
  C   C3337     1.0  0.30633  0.71637  0.92059  1.0000
  C   C3338     1.0  0.31603  0.70927  0.91904  1.0000
  C   C3339     1.0  0.32342  0.71107  0.90958  1.0000
  C   C3340     1.0  0.32090  0.71974  0.90150  1.0000
  H   H3336     1.0  0.29651  0.73076  0.91398  1.0000
  H   H3337     1.0  0.30065  0.71507  0.92792  1.0000
  H   H3338     1.0  0.33095  0.70561  0.90839  1.0000
  H   H3339     1.0  0.32654  0.72104  0.89413  1.0000
  C   C3341     1.0  0.28227  0.69675  0.85984  1.0000
  C   C3342     1.0  0.28694  0.70552  0.85552  1.0000
  C   C3343     1.0  0.29572  0.70614  0.85891  1.0000
  C   C3344     1.0  0.30004  0.69781  0.86635  1.0000
  C   C3345     1.0  0.29544  0.68901  0.87056  1.0000
  C   C3346     1.0  0.28646  0.68858  0.86746  1.0000
  H   H3340     1.0  0.28383  0.71177  0.84951  1.0000
  H   H3341     1.0  0.29928  0.71294  0.85558  1.0000
  H   H3342     1.0  0.29877  0.68251  0.87625  1.0000
  H   H3343     1.0  0.28281  0.68189  0.87100  1.0000
  C   C3347     1.0  0.28590  0.65519  0.90240  1.0000
  C   C3348     1.0  0.28168  0.66502  0.90528  1.0000
  C   C3349     1.0  0.28406  0.66693  0.91417  1.0000
  C   C3350     1.0  0.29057  0.65897  0.92017  1.0000
  C   C3351     1.0  0.29462  0.64923  0.91724  1.0000
  C   C3352     1.0  0.29237  0.64739  0.90844  1.0000
  H   H3344     1.0  0.27668  0.67112  0.90065  1.0000
  H   H3345     1.0  0.28088  0.67449  0.91636  1.0000
  H   H3346     1.0  0.29963  0.64304  0.92180  1.0000
  H   H3347     1.0  0.29568  0.63980  0.90631  1.0000
  C   C3353     1.0  0.26915  0.76539  0.87314  1.0000
  C   C3354     1.0  0.27907  0.75999  0.87517  1.0000
  C   C3355     1.0  0.28641  0.75460  0.86780  1.0000
  C   C3356     1.0  0.28385  0.75465  0.85838  1.0000
  C   C3357     1.0  0.27387  0.75992  0.85644  1.0000
  C   C3358     1.0  0.26650  0.76520  0.86386  1.0000
  H   H3348     1.0  0.28129  0.76033  0.88218  1.0000
  H   H3349     1.0  0.29416  0.75070  0.86931  1.0000
  H   H3350     1.0  0.27183  0.75998  0.84918  1.0000
  H   H3351     1.0  0.25878  0.76917  0.86237  1.0000
  H   H3352     1.0  0.29963  0.59463  0.79184  1.0000
  Fe  Fe570     1.0  0.45975  0.69303  0.78274  1.0000
  H   H3353     1.0  0.43889  0.68132  0.81953  1.0000
  H   H3354     1.0  0.26332  0.73786  0.83699  1.0000
  C   C3359     1.0  0.24950  0.78959  0.90415  1.0000
  C   C3360     1.0  0.26069  0.83049  0.81799  1.0000
  H   H3355     1.0  0.41863  0.73418  0.78266  1.0000
  C   C3361     1.0  0.31277  0.66829  0.90815  1.0000
  C   C3362     1.0  0.30559  0.68436  0.89690  1.0000
  C   C3363     1.0  0.27262  0.62473  0.88970  1.0000
  C   C3364     1.0  0.25652  0.83837  0.82382  1.0000
  H   H3356     1.0  0.28328  0.62799  0.85972  1.0000
  H   H3357     1.0  0.25627  0.84656  0.81994  1.0000
  C   C3365     1.0  0.43880  0.68863  0.80324  1.0000
  C   C3366     1.0  0.25860  0.72659  0.85113  1.0000
  H   H3358     1.0  0.26257  0.73896  0.96348  1.0000
  S   S1142     1.0  0.45265  0.68585  0.79938  1.0000
  H   H3359     1.0  0.35178  0.75299  0.78123  1.0000
  C   C3367     1.0  0.25671  0.63736  0.82945  1.0000
  C   C3368     1.0  0.25171  0.64497  0.83560  1.0000
  C   C3369     1.0  0.25736  0.64801  0.84131  1.0000
  C   C3370     1.0  0.26808  0.64350  0.84087  1.0000
  C   C3371     1.0  0.27304  0.63584  0.83478  1.0000
  C   C3372     1.0  0.26739  0.63276  0.82913  1.0000
  H   H3360     1.0  0.24881  0.77903  0.93014  1.0000
  H   H3361     1.0  0.25347  0.65393  0.84595  1.0000
  H   H3362     1.0  0.28132  0.63227  0.83443  1.0000
  H   H3363     1.0  0.27130  0.62683  0.82451  1.0000
  H   H3364     1.0  0.35563  0.73308  0.78098  1.0000
  C   C3373     1.0  0.42612  0.72818  0.78157  1.0000
  H   H3365     1.0  0.28521  0.63182  0.88943  1.0000
  S   S1143     1.0  0.25281  0.79127  0.85541  1.0000
  S   S1144     1.0  0.24074  0.85673  0.80414  1.0000
  N   N277      1.0  0.26017  0.72155  0.86103  1.0000
  C   C3374     1.0  0.43969  0.71890  0.79182  1.0000
  C   C3375     1.0  0.27403  0.57536  0.80295  1.0000
  C   C3376     1.0  0.27454  0.57792  0.79204  1.0000
  C   C3377     1.0  0.28001  0.57038  0.78585  1.0000
  C   C3378     1.0  0.28528  0.56044  0.79054  1.0000
  C   C3379     1.0  0.28489  0.55805  0.80136  1.0000
  C   C3380     1.0  0.27915  0.56538  0.80755  1.0000
  H   H3366     1.0  0.27045  0.58555  0.78843  1.0000
  H   H3367     1.0  0.24808  0.72507  0.92880  1.0000
  H   H3368     1.0  0.28897  0.55041  0.80503  1.0000
  H   H3369     1.0  0.27874  0.56330  0.81597  1.0000
  H   H3370     1.0  0.28814  0.72746  0.90069  1.0000
  C   C3381     1.0  0.26524  0.71848  0.96981  1.0000
  C   C3382     1.0  0.24721  0.57755  0.78357  1.0000
  C   C3383     1.0  0.26656  0.65737  0.78381  1.0000
  H   H3371     1.0  0.30295  0.66904  0.89759  1.0000
  H   H3372     1.0  0.27218  0.72005  0.90412  1.0000
  Fe  Fe571     1.0  0.25895  0.86932  0.77943  1.0000
  N   N278      1.0  0.24946  0.57540  0.79335  1.0000
  H   H3373     1.0  0.25454  0.73190  0.90573  1.0000
  H   H3374     1.0  0.25818  0.77537  0.91259  1.0000
  C   C3384     1.0  0.35632  0.73373  0.81438  1.0000
  C   C3385     1.0  0.36387  0.72966  0.82063  1.0000
  C   C3386     1.0  0.36073  0.72830  0.83161  1.0000
  C   C3387     1.0  0.35002  0.73074  0.83641  1.0000
  C   C3388     1.0  0.34245  0.73477  0.83017  1.0000
  C   C3389     1.0  0.34562  0.73640  0.81915  1.0000
  H   H3375     1.0  0.37214  0.72762  0.81699  1.0000
  H   H3376     1.0  0.36661  0.72525  0.83641  1.0000
  H   H3377     1.0  0.33418  0.73672  0.83383  1.0000
  H   H3378     1.0  0.33976  0.73955  0.81433  1.0000
  C   C3390     1.0  0.41680  0.69449  0.81003  1.0000
  C   C3391     1.0  0.42308  0.68863  0.81727  1.0000
  H   H3379     1.0  0.41947  0.68647  0.82552  1.0000
  C   C3392     1.0  0.32471  0.69100  0.97439  1.0000
  S   S1145     1.0  0.25835  0.75596  0.93159  1.0000
  Fe  Fe572     1.0  0.25771  0.85042  0.79759  1.0000
  C   C3393     1.0  0.26105  0.81990  0.82308  1.0000
  C   C3394     1.0  0.30107  0.59238  0.78434  1.0000
  C   C3395     1.0  0.25678  0.73601  0.96111  1.0000
  C   C3396     1.0  0.42167  0.72135  0.80063  1.0000
  C   C3397     1.0  0.25588  0.71982  0.95671  1.0000
  H   H3380     1.0  0.30129  0.77783  0.83499  1.0000
  Fe  Fe573     1.0  0.24529  0.87232  0.80052  1.0000
  C   C3398     1.0  0.44278  0.71317  0.80121  1.0000
  H   H3381     1.0  0.25062  0.71058  0.86287  1.0000
  H   H3382     1.0  0.25765  0.56431  0.80466  1.0000
  C   C3399     1.0  0.43406  0.68570  0.81388  1.0000
  C   C3400     1.0  0.25290  0.83566  0.83475  1.0000
  C   C3401     1.0  0.25827  0.70884  0.95797  1.0000
  H   H3383     1.0  0.29278  0.64069  0.86086  1.0000
  H   H3384     1.0  0.28970  0.77214  0.83913  1.0000
  C   C3402     1.0  0.25713  0.81721  0.83398  1.0000
  H   H3385     1.0  0.25260  0.72503  0.84811  1.0000
  C   C3403     1.0  0.30006  0.58244  0.78401  1.0000
  H   H3386     1.0  0.26581  0.64859  0.80999  1.0000
  H   H3387     1.0  0.30071  0.68833  0.89118  1.0000
  C   C3404     1.0  0.25751  0.56045  0.78087  1.0000
  H   H3388     1.0  0.27718  0.74148  0.84377  1.0000
  H   H3389     1.0  0.25558  0.70517  0.95319  1.0000
  H   H3390     1.0  0.29679  0.69995  0.96694  1.0000
  C   C3405     1.0  0.26761  0.62145  0.88370  1.0000
  N   N279      1.0  0.25952  0.72450  0.96246  1.0000
  C   C3406     1.0  0.26913  0.65012  0.80160  1.0000
  H   H3391     1.0  0.26072  0.61805  0.88745  1.0000
  C   C3407     1.0  0.31764  0.67405  0.91189  1.0000
  C   C3408     1.0  0.27386  0.73083  0.85877  1.0000
  H   H3392     1.0  0.28431  0.77776  0.86116  1.0000
  H   H3393     1.0  0.29785  0.57684  0.79126  1.0000
  C   C3409     1.0  0.28368  0.64792  0.78723  1.0000
  C   C3410     1.0  0.26145  0.73521  0.90419  1.0000
  N   N280      1.0  0.34839  0.70394  0.83528  1.0000
  C   C3411     1.0  0.35272  0.70430  0.84325  1.0000
  C   C3412     1.0  0.33885  0.70116  0.83751  1.0000
  C   C3413     1.0  0.34745  0.70185  0.85376  1.0000
  C   C3414     1.0  0.33342  0.69854  0.84795  1.0000
  C   C3415     1.0  0.33778  0.69890  0.85610  1.0000
  C   C3416     1.0  0.35386  0.70667  0.82427  1.0000
  H   H3394     1.0  0.36015  0.70677  0.84154  1.0000
  H   H3395     1.0  0.33535  0.70102  0.83118  1.0000
  H   H3396     1.0  0.35073  0.70256  0.86000  1.0000
  H   H3397     1.0  0.32579  0.69642  0.84972  1.0000
  H   H3398     1.0  0.33358  0.69705  0.86422  1.0000
  H   H3399     1.0  0.36168  0.70839  0.82357  1.0000
  H   H3400     1.0  0.35522  0.70005  0.82028  1.0000
  H   H3401     1.0  0.34910  0.71383  0.82003  1.0000
  C   C3417     1.0  0.32439  0.69602  0.95586  1.0000
  H   H3402     1.0  0.28029  0.57231  0.77748  1.0000
  C   C3418     1.0  0.31650  0.68491  0.90788  1.0000
  H   H3403     1.0  0.29419  0.64161  0.87334  1.0000
  Fe  Fe574     1.0  0.39658  0.72154  0.78016  1.0000
  C   C3419     1.0  0.24995  0.75276  0.90468  1.0000
  C   C3420     1.0  0.26464  0.73386  0.84481  1.0000
  N   N281      1.0  0.31042  0.68994  0.90059  1.0000
  H   H3404     1.0  0.41685  0.70203  0.79380  1.0000
  H   H3405     1.0  0.24935  0.75843  0.90957  1.0000
  H   H3406     1.0  0.41841  0.71415  0.81721  1.0000
  C   C3421     1.0  0.25980  0.55834  0.79082  1.0000
  H   H3407     1.0  0.26420  0.81380  0.81855  1.0000
  H   H3408     1.0  0.25354  0.78804  0.89641  1.0000
  C   C3422     1.0  0.26764  0.70747  0.97136  1.0000
  H   H3409     1.0  0.44569  0.71993  0.78465  1.0000
  H   H3410     1.0  0.30526  0.70534  0.90369  1.0000
  S   S1146     1.0  0.26521  0.83380  0.80433  1.0000
  Fe  Fe575     1.0  0.38296  0.70539  0.78590  1.0000
  H   H3411     1.0  0.24590  0.76575  0.85553  1.0000
  H   H3412     1.0  0.30125  0.63000  0.86812  1.0000
  C   C3423     1.0  0.27142  0.72845  0.90324  1.0000
  H   H3413     1.0  0.41370  0.67950  0.77850  1.0000
  C   C3424     1.0  0.27150  0.62259  0.87286  1.0000
  C   C3425     1.0  0.32023  0.68727  0.95698  1.0000
  N   N282      1.0  0.26041  0.74572  0.90367  1.0000
  C   C3426     1.0  0.25315  0.82509  0.83983  1.0000
  H   H3414     1.0  0.26770  0.62009  0.86808  1.0000
  C   C3427     1.0  0.28136  0.62930  0.88471  1.0000
  N   N283      1.0  0.28485  0.63079  0.87402  1.0000
  N   N284      1.0  0.27959  0.64629  0.79785  1.0000
  S   S1147     1.0  0.28617  0.68214  0.97384  1.0000
  C   C3428     1.0  0.28622  0.63974  0.80523  1.0000
  H   H3415     1.0  0.27265  0.79361  0.86706  1.0000
  S   S1148     1.0  0.37998  0.72269  0.77916  1.0000
  H   H3416     1.0  0.29474  0.63951  0.80174  1.0000
  H   H3417     1.0  0.28424  0.64281  0.81255  1.0000
  H   H3418     1.0  0.28501  0.63152  0.80728  1.0000
  S   S1149     1.0  0.37713  0.69404  0.78057  1.0000
  H   H3419     1.0  0.27993  0.73235  0.86175  1.0000
  H   H3420     1.0  0.26834  0.75816  0.90137  1.0000
  H   H3421     1.0  0.26895  0.71958  0.87270  1.0000
  C   C3429     1.0  0.28028  0.62717  0.86815  1.0000
  C   C3430     1.0  0.27724  0.65342  0.78006  1.0000
  C   C3431     1.0  0.43510  0.71158  0.81044  1.0000
  H   H3422     1.0  0.25684  0.73989  0.95271  1.0000
  C   C3432     1.0  0.30900  0.70141  0.89693  1.0000
  C   C3433     1.0  0.25210  0.78248  0.91320  1.0000
  H   H3423     1.0  0.31340  0.65990  0.91135  1.0000
  C   C3434     1.0  0.27922  0.74330  0.90087  1.0000
  C   C3435     1.0  0.43248  0.69425  0.79600  1.0000
  H   H3424     1.0  0.24402  0.97667  0.77771  1.0000
  C   C3436     1.0  0.27235  0.73594  0.84865  1.0000
  Fe  Fe576     1.0  0.24861  0.78447  0.87277  1.0000
  H   H3425     1.0  0.30394  0.70454  0.89102  1.0000
  H   H3426     1.0  0.24983  0.84178  0.83926  1.0000
  S   S1150     1.0  0.40000  0.70399  0.78534  1.0000
  H   H3427     1.0  0.24794  0.83279  0.79619  1.0000
  C   C3437     1.0  0.30681  0.67344  0.90051  1.0000
  C   C3438     1.0  0.25115  0.57009  0.77721  1.0000
  H   H3428     1.0  0.32030  0.68934  0.91082  1.0000
  S   S1151     1.0  0.25569  0.85345  0.78100  1.0000
  S   S1152     1.0  0.24859  0.82194  0.85351  1.0000
  H   H3429     1.0  0.25787  0.70778  0.87292  1.0000
  C   C3439     1.0  0.26763  0.72365  0.86491  1.0000
  C   C3440     1.0  0.42448  0.71574  0.81018  1.0000
  H   H3430     1.0  0.31677  0.70354  0.89318  1.0000
  H   H3431     1.0  0.27010  0.81070  0.85408  1.0000
  H   H3432     1.0  0.43598  0.69639  0.78781  1.0000
  H   H3433     1.0  0.25115  0.72457  0.95106  1.0000
  H   H3434     1.0  0.43736  0.70677  0.81767  1.0000
  H   H3435     1.0  0.24345  0.64857  0.83588  1.0000
  H   H3436     1.0  0.27907  0.81151  0.83530  1.0000
  C   C3441     1.0  0.26914  0.74981  0.90193  1.0000
  N   N285      1.0  0.28815  0.78564  0.84511  1.0000
  C   C3442     1.0  0.28663  0.79494  0.83788  1.0000
  C   C3443     1.0  0.28322  0.78514  0.85547  1.0000
  C   C3444     1.0  0.28024  0.80411  0.84103  1.0000
  C   C3445     1.0  0.27668  0.79411  0.85886  1.0000
  C   C3446     1.0  0.27522  0.80367  0.85158  1.0000
  C   C3447     1.0  0.29463  0.77605  0.84164  1.0000
  H   H3437     1.0  0.29035  0.79532  0.82963  1.0000
  H   H3438     1.0  0.32982  0.70477  0.96386  1.0000
  H   H3439     1.0  0.24863  0.75723  0.89675  1.0000
  C   C3448     1.0  0.31827  0.68057  0.96688  1.0000
  H   H3440     1.0  0.31479  0.67390  0.96771  1.0000
  C   C3449     1.0  0.26248  0.65578  0.79466  1.0000
  C   C3450     1.0  0.24556  0.58353  0.79965  1.0000
  H   H3441     1.0  0.24644  0.71871  0.87252  1.0000
  H   H3442     1.0  0.26612  0.69411  0.96643  1.0000
  H   H3443     1.0  0.24524  0.74387  0.92882  1.0000
  H   H3444     1.0  0.24549  0.74672  0.86156  1.0000
  H   H3445     1.0  0.36586  0.74878  0.77978  1.0000
  N   N286      1.0  0.32045  0.68253  0.97544  1.0000
  H   H3446     1.0  0.26143  0.66146  0.77833  1.0000
  Fe  Fe577     1.0  0.24355  0.80651  0.85981  1.0000
  H   H3447     1.0  0.39466  0.67563  0.77829  1.0000
  C   C3451     1.0  0.29615  0.69709  0.97534  1.0000
  H   H3448     1.0  0.24357  0.74832  0.90866  1.0000
  Fe  Fe578     1.0  0.24110  0.75904  0.93884  1.0000
  H   H3449     1.0  0.42490  0.72224  0.77793  1.0000
  H   H3450     1.0  0.24190  0.81065  0.80219  1.0000
  H   H3451     1.0  0.24183  0.89564  0.79114  1.0000
  S   S1153     1.0  0.24198  0.87707  0.78430  1.0000
  S   S1154     1.0  0.24070  0.79999  0.87721  1.0000
  H   H3452     1.0  0.26798  0.72214  0.97452  1.0000
  C   C3452     1.0  0.24162  0.79868  0.90515  1.0000
  H   H3453     1.0  0.24238  0.58508  0.78063  1.0000
  S   S1155     1.0  0.61529  0.28318  0.16670  1.0000
  H   H3454     1.0  0.70231  0.29541  0.98854  1.0000
  S   S1156     1.0  0.64663  0.23895  0.15548  1.0000
  C   C3453     1.0  0.73353  0.27027  0.10077  1.0000
  N   N287      1.0  0.72790  0.39031  0.16721  1.0000
  N   N288      1.0  0.73151  0.29399  0.11882  1.0000
  H   H3455     1.0  0.72664  0.29218  0.10583  1.0000
  C   C3454     1.0  0.66935  0.24312  0.16562  1.0000
  S   S1157     1.0  0.64167  0.26318  0.16820  1.0000
  H   H3456     1.0  0.57935  0.30224  0.16393  1.0000
  C   C3455     1.0  0.74033  0.31610  0.02993  1.0000
  H   H3457     1.0  0.62160  0.24984  0.15085  1.0000
  H   H3458     1.0  0.64792  0.25374  0.12009  1.0000
  C   C3456     1.0  0.58435  0.29464  0.16629  1.0000
  C   C3457     1.0  0.72607  0.40105  0.16564  1.0000
  C   C3458     1.0  0.64262  0.26168  0.11895  1.0000
  Fe  Fe579     1.0  0.70354  0.24996  0.09096  1.0000
  S   S1158     1.0  0.71776  0.24558  0.09813  1.0000
  S   S1159     1.0  0.70615  0.24618  0.07511  1.0000
  Fe  Fe580     1.0  0.68886  0.25785  0.10996  1.0000
  S   S1160     1.0  0.70174  0.25420  0.11885  1.0000
  S   S1161     1.0  0.67267  0.26618  0.11680  1.0000
  Fe  Fe581     1.0  0.71133  0.26090  0.10337  1.0000
  S   S1162     1.0  0.72007  0.27365  0.10065  1.0000
  Fe  Fe582     1.0  0.70686  0.23925  0.11285  1.0000
  S   S1163     1.0  0.71139  0.22329  0.12281  1.0000
  S   S1164     1.0  0.69801  0.26589  0.09490  1.0000
  S   S1165     1.0  0.69312  0.24225  0.10528  1.0000
  C   C3459     1.0  0.60179  0.28395  0.16793  1.0000
  C   C3460     1.0  0.73038  0.20967  0.12339  1.0000
  C   C3461     1.0  0.63172  0.27330  0.13085  1.0000
  C   C3462     1.0  0.58633  0.27618  0.17472  1.0000
  S   S1166     1.0  0.72539  0.26625  0.01745  1.0000
  N   N289      1.0  0.63515  0.26337  0.12881  1.0000
  Fe  Fe583     1.0  0.72105  0.27949  0.02603  1.0000
  S   S1167     1.0  0.70547  0.28475  0.03633  1.0000
  C   C3463     1.0  0.72313  0.31406  0.04655  1.0000
  S   S1168     1.0  0.73029  0.29017  0.01335  1.0000
  H   H3459     1.0  0.59879  0.30040  0.16032  1.0000
  H   H3460     1.0  0.63430  0.24714  0.13431  1.0000
  H   H3461     1.0  0.73683  0.28285  0.08742  1.0000
  H   H3462     1.0  0.72618  0.23627  0.12036  1.0000
  H   H3463     1.0  0.64787  0.26746  0.11614  1.0000
  C   C3464     1.0  0.73008  0.22764  0.06746  1.0000
  C   C3465     1.0  0.67511  0.25759  0.15230  1.0000
  C   C3466     1.0  0.72422  0.29075  0.11456  1.0000
  H   H3464     1.0  0.71663  0.31296  0.05324  1.0000
  C   C3467     1.0  0.72597  0.26439  0.98706  1.0000
  H   H3465     1.0  0.73349  0.30786  0.02282  1.0000
  H   H3466     1.0  0.72705  0.27417  0.07922  1.0000
  H   H3467     1.0  0.62197  0.28285  0.14198  1.0000
  H   H3468     1.0  0.72402  0.26304  0.99556  1.0000
  H   H3469     1.0  0.71862  0.29610  0.04147  1.0000
  H   H3470     1.0  0.71610  0.25444  0.98632  1.0000
  H   H3471     1.0  0.60213  0.26770  0.17578  1.0000
  N   N290      1.0  0.72400  0.31035  0.03777  1.0000
  H   H3472     1.0  0.68264  0.22640  0.14293  1.0000
  N   N291      1.0  0.73669  0.21917  0.08324  1.0000
  H   H3473     1.0  0.71573  0.30488  0.02945  1.0000
  C   C3468     1.0  0.70950  0.28947  0.98623  1.0000
  H   H3474     1.0  0.70044  0.27897  0.97824  1.0000
  C   C3469     1.0  0.73037  0.22813  0.12111  1.0000
  H   H3475     1.0  0.73256  0.25758  0.11448  1.0000
  C   C3470     1.0  0.59534  0.29361  0.16430  1.0000
  Fe  Fe584     1.0  0.62424  0.26757  0.17441  1.0000
  C   C3471     1.0  0.72620  0.26293  0.07095  1.0000
  C   C3472     1.0  0.70458  0.25695  0.06447  1.0000
  C   C3473     1.0  0.70896  0.25530  0.05426  1.0000
  C   C3474     1.0  0.70895  0.26384  0.04565  1.0000
  C   C3475     1.0  0.70430  0.27408  0.04713  1.0000
  C   C3476     1.0  0.69949  0.27574  0.05730  1.0000
  C   C3477     1.0  0.69969  0.26717  0.06599  1.0000
  H   H3476     1.0  0.71264  0.24743  0.05299  1.0000
  H   H3477     1.0  0.71253  0.26246  0.03784  1.0000
  H   H3478     1.0  0.69586  0.28365  0.05849  1.0000
  H   H3479     1.0  0.69608  0.26850  0.07382  1.0000
  C   C3478     1.0  0.59728  0.27519  0.17298  1.0000
  C   C3479     1.0  0.72494  0.22019  0.12242  1.0000
  H   H3480     1.0  0.72888  0.37866  0.15878  1.0000
  S   S1169     1.0  0.72896  0.35744  0.17150  1.0000
  H   H3481     1.0  0.73720  0.28882  0.04481  1.0000
  H   H3482     1.0  0.72618  0.20354  0.12435  1.0000
  C   C3480     1.0  0.66948  0.25382  0.16231  1.0000
  N   N292      1.0  0.68060  0.24001  0.14910  1.0000
  S   S1170     1.0  0.73376  0.27290  0.03521  1.0000
  H   H3483     1.0  0.61520  0.26786  0.15462  1.0000
  H   H3484     1.0  0.73948  0.20828  0.09746  1.0000
  H   H3485     1.0  0.68499  0.25355  0.13799  1.0000
  C   C3481     1.0  0.62453  0.27504  0.14019  1.0000
  C   C3482     1.0  0.68072  0.25052  0.14579  1.0000
  C   C3483     1.0  0.68690  0.23262  0.14236  1.0000
  H   H3486     1.0  0.67476  0.22797  0.16147  1.0000
  C   C3484     1.0  0.65392  0.24644  0.14466  1.0000
  C   C3485     1.0  0.65181  0.25740  0.14320  1.0000
  C   C3486     1.0  0.65769  0.26337  0.13467  1.0000
  C   C3487     1.0  0.66567  0.25841  0.12747  1.0000
  C   C3488     1.0  0.66768  0.24745  0.12872  1.0000
  C   C3489     1.0  0.66173  0.24147  0.13730  1.0000
  H   H3487     1.0  0.64534  0.26137  0.14835  1.0000
  H   H3488     1.0  0.65598  0.27187  0.13360  1.0000
  H   H3489     1.0  0.67368  0.24361  0.12302  1.0000
  H   H3490     1.0  0.66324  0.23299  0.13825  1.0000
  H   H3491     1.0  0.73565  0.31580  0.12364  1.0000
  H   H3492     1.0  0.69459  0.22885  0.14468  1.0000
  H   H3493     1.0  0.63470  0.27989  0.12536  1.0000
  H   H3494     1.0  0.71815  0.26240  0.07499  1.0000
  Fe  Fe585     1.0  0.73908  0.26068  0.02553  1.0000
  H   H3495     1.0  0.72418  0.28223  0.11761  1.0000
  H   H3496     1.0  0.66518  0.25920  0.16750  1.0000
  C   C3490     1.0  0.73248  0.31127  0.02955  1.0000
  H   H3497     1.0  0.73042  0.32140  0.05436  1.0000
  C   C3491     1.0  0.52562  0.27337  0.17103  1.0000
  H   H3498     1.0  0.70825  0.30777  0.04183  1.0000
  H   H3499     1.0  0.52349  0.26852  0.16699  1.0000
  C   C3492     1.0  0.72852  0.22486  0.07846  1.0000
  H   H3500     1.0  0.63828  0.26243  0.11276  1.0000
  H   H3501     1.0  0.73237  0.39065  0.15062  1.0000
  H   H3502     1.0  0.72768  0.25206  0.06122  1.0000
  C   C3493     1.0  0.71629  0.30452  0.03762  1.0000
  C   C3494     1.0  0.72159  0.40608  0.17412  1.0000
  Fe  Fe586     1.0  0.63854  0.24756  0.16866  1.0000
  C   C3495     1.0  0.73272  0.27121  0.98129  1.0000
  C   C3496     1.0  0.62074  0.26660  0.14735  1.0000
  H   H3503     1.0  0.72294  0.30995  0.11737  1.0000
  C   C3497     1.0  0.53859  0.28074  0.17438  1.0000
  H   H3504     1.0  0.54670  0.28167  0.17269  1.0000
  H   H3505     1.0  0.67507  0.26594  0.14957  1.0000
  H   H3506     1.0  0.70872  0.28160  0.99133  1.0000
  H   H3507     1.0  0.54203  0.27080  0.16317  1.0000
  H   H3508     1.0  0.71598  0.29516  0.11675  1.0000
  C   C3498     1.0  0.62424  0.25652  0.14518  1.0000
  C   C3499     1.0  0.63143  0.25505  0.13579  1.0000
  C   C3500     1.0  0.67499  0.23627  0.15887  1.0000
  H   H3509     1.0  0.73408  0.29444  0.06166  1.0000
  H   H3510     1.0  0.72069  0.22724  0.08313  1.0000
  H   H3511     1.0  0.68854  0.23665  0.13391  1.0000
  C   C3501     1.0  0.72148  0.25954  0.98179  1.0000
  S   S1171     1.0  0.62097  0.25225  0.17387  1.0000
  H   H3512     1.0  0.66487  0.24017  0.17337  1.0000
  H   H3513     1.0  0.72825  0.40580  0.15783  1.0000
  C   C3502     1.0  0.72978  0.30425  0.11963  1.0000
  H   H3514     1.0  0.72353  0.23203  0.06372  1.0000
  C   C3503     1.0  0.73992  0.27678  0.09361  1.0000
  C   C3504     1.0  0.73283  0.38509  0.15832  1.0000
  C   C3505     1.0  0.73695  0.30761  0.12315  1.0000
  H   H3515     1.0  0.71639  0.29140  0.98781  1.0000
  C   C3506     1.0  0.73501  0.21640  0.09477  1.0000
  Fe  Fe587     1.0  0.73561  0.27636  0.00521  1.0000
  C   C3507     1.0  0.73154  0.25711  0.06326  1.0000
  C   C3508     1.0  0.73121  0.26950  0.07337  1.0000
  C   C3509     1.0  0.73953  0.31987  0.03885  1.0000
  S   S1172     1.0  0.56601  0.28774  0.17611  1.0000
  S   S1173     1.0  0.73749  0.27859  0.98745  1.0000
  H   H3516     1.0  0.72030  0.41460  0.17285  1.0000
  C   C3510     1.0  0.57980  0.28599  0.17182  1.0000
  C   C3511     1.0  0.73086  0.31890  0.04721  1.0000
  S   S1174     1.0  0.73872  0.42302  0.17116  1.0000
  H   H3517     1.0  0.72655  0.21655  0.09855  1.0000
  C   C3512     1.0  0.73754  0.26257  0.10886  1.0000
  H   H3518     1.0  0.73986  0.19328  0.15509  1.0000
  C   C3513     1.0  0.53600  0.27460  0.16893  1.0000
  C   C3514     1.0  0.74009  0.22465  0.06134  1.0000
  C   C3515     1.0  0.74040  0.28693  0.12124  1.0000
  H   H3519     1.0  0.73766  0.22204  0.09766  1.0000
  S   S1175     1.0  0.62588  0.26280  0.19130  1.0000
  S   S1176     1.0  0.61453  0.23835  0.20464  1.0000
  Fe  Fe588     1.0  0.63919  0.28206  0.23395  1.0000
  S   S1177     1.0  0.63832  0.29240  0.21804  1.0000
  S   S1178     1.0  0.65059  0.26652  0.23481  1.0000
  Fe  Fe589     1.0  0.62191  0.29723  0.24484  1.0000
  S   S1179     1.0  0.61935  0.30856  0.22967  1.0000
  S   S1180     1.0  0.61288  0.30224  0.25982  1.0000
  Fe  Fe590     1.0  0.62078  0.29388  0.22390  1.0000
  S   S1181     1.0  0.61210  0.29047  0.21325  1.0000
  Fe  Fe591     1.0  0.63711  0.30573  0.22562  1.0000
  S   S1182     1.0  0.64633  0.31870  0.21764  1.0000
  S   S1183     1.0  0.62182  0.28287  0.23949  1.0000
  S   S1184     1.0  0.63949  0.29515  0.24112  1.0000
  Fe  Fe592     1.0  0.63590  0.18445  0.22941  1.0000
  S   S1185     1.0  0.64096  0.16785  0.23808  1.0000
  S   S1186     1.0  0.63723  0.19025  0.21204  1.0000
  Fe  Fe593     1.0  0.62691  0.19315  0.24896  1.0000
  S   S1187     1.0  0.63105  0.17747  0.25975  1.0000
  S   S1188     1.0  0.61683  0.20800  0.25377  1.0000
  Fe  Fe594     1.0  0.64640  0.17549  0.24796  1.0000
  S   S1189     1.0  0.66100  0.16827  0.25452  1.0000
  Fe  Fe595     1.0  0.62536  0.17098  0.24920  1.0000
  S   S1190     1.0  0.61563  0.15867  0.25556  1.0000
  S   S1191     1.0  0.64286  0.19185  0.23820  1.0000
  S   S1192     1.0  0.61970  0.18676  0.23958  1.0000
  Fe  Fe596     1.0  0.61937  0.25003  0.29848  1.0000
  S   S1193     1.0  0.61856  0.23598  0.31192  1.0000
  S   S1194     1.0  0.61131  0.26624  0.30095  1.0000
  Fe  Fe597     1.0  0.63246  0.23696  0.28265  1.0000
  S   S1195     1.0  0.63283  0.22196  0.29480  1.0000
  S   S1196     1.0  0.64105  0.23532  0.26628  1.0000
  Fe  Fe598     1.0  0.61557  0.22852  0.30014  1.0000
  S   S1197     1.0  0.60330  0.21857  0.30362  1.0000
  Fe  Fe599     1.0  0.63591  0.23099  0.30511  1.0000
  S   S1198     1.0  0.65033  0.22444  0.31249  1.0000
  S   S1199     1.0  0.61508  0.24308  0.28733  1.0000
  S   S1200     1.0  0.63673  0.24557  0.29243  1.0000
  Fe  Fe600     1.0  0.56580  0.19128  0.27563  1.0000
  S   S1201     1.0  0.55577  0.20495  0.28272  1.0000
  S   S1202     1.0  0.57214  0.17516  0.28446  1.0000
  Fe  Fe601     1.0  0.56501  0.20309  0.25338  1.0000
  S   S1203     1.0  0.55532  0.21798  0.25829  1.0000
  S   S1204     1.0  0.56983  0.19933  0.23740  1.0000
  Fe  Fe602     1.0  0.56607  0.21437  0.26970  1.0000
  S   S1205     1.0  0.57383  0.22673  0.27120  1.0000
  Fe  Fe603     1.0  0.54594  0.20722  0.27074  1.0000
  S   S1206     1.0  0.52803  0.21122  0.27404  1.0000
  S   S1207     1.0  0.57665  0.20053  0.26336  1.0000
  S   S1208     1.0  0.55503  0.19260  0.26506  1.0000
  Fe  Fe604     1.0  0.56345  0.26952  0.21411  1.0000
  S   S1209     1.0  0.57447  0.26538  0.19950  1.0000
  S   S1210     1.0  0.57001  0.27290  0.22647  1.0000
  Fe  Fe605     1.0  0.54404  0.26745  0.20713  1.0000
  S   S1211     1.0  0.55381  0.26324  0.19201  1.0000
  Fe  Fe606     1.0  0.56524  0.25310  0.20193  1.0000
  S   S1212     1.0  0.57339  0.23725  0.19858  1.0000
  Fe  Fe607     1.0  0.56203  0.27595  0.19106  1.0000
  S   S1213     1.0  0.55493  0.25630  0.21729  1.0000
  H   H3520     1.0  0.64267  0.27705  0.27274  1.0000
  C   C3516     1.0  0.66316  0.24567  0.28697  1.0000
  C   C3517     1.0  0.63567  0.34207  0.24221  1.0000
  Fe  Fe608     1.0  0.69605  0.11733  0.24713  1.0000
  S   S1214     1.0  0.71218  0.11576  0.24961  1.0000
  S   S1215     1.0  0.68983  0.13021  0.23445  1.0000
  Fe  Fe609     1.0  0.69205  0.09824  0.26444  1.0000
  S   S1216     1.0  0.70775  0.09525  0.26873  1.0000
  S   S1217     1.0  0.67984  0.08843  0.27188  1.0000
  Fe  Fe610     1.0  0.70457  0.11275  0.26673  1.0000
  S   S1218     1.0  0.70826  0.12073  0.27740  1.0000
  Fe  Fe611     1.0  0.71381  0.09849  0.25128  1.0000
  S   S1219     1.0  0.72870  0.08864  0.24391  1.0000
  S   S1220     1.0  0.68818  0.11553  0.26422  1.0000
  S   S1221     1.0  0.69838  0.10027  0.24703  1.0000
  S   S1222     1.0  0.52625  0.26880  0.21102  1.0000
  H   H3521     1.0  0.68693  0.04540  0.26577  1.0000
  H   H3522     1.0  0.70683  0.98385  0.27729  1.0000
  C   C3518     1.0  0.54218  0.21744  0.23744  1.0000
  C   C3519     1.0  0.72555  0.38432  0.17715  1.0000
  C   C3520     1.0  0.54524  0.17242  0.28625  1.0000
  H   H3523     1.0  0.70612  0.28642  0.36168  1.0000
  S   S1223     1.0  0.72096  0.02411  0.26682  1.0000
  C   C3521     1.0  0.51797  0.27826  0.17850  1.0000
  C   C3522     1.0  0.73428  0.19686  0.33642  1.0000
  S   S1224     1.0  0.72737  0.04489  0.27013  1.0000
  C   C3523     1.0  0.71316  0.25500  0.35429  1.0000
  Fe  Fe612     1.0  0.71627  0.03413  0.27889  1.0000
  S   S1225     1.0  0.69880  0.03962  0.28464  1.0000
  C   C3524     1.0  0.73327  0.46530  0.20482  1.0000
  S   S1226     1.0  0.72728  0.02340  0.28913  1.0000
  C   C3525     1.0  0.51935  0.25332  0.19231  1.0000
  H   H3524     1.0  0.58012  0.25128  0.21815  1.0000
  C   C3526     1.0  0.68630  0.26854  0.36749  1.0000
  H   H3525     1.0  0.61007  0.30162  0.19062  1.0000
  H   H3526     1.0  0.51162  0.18156  0.28108  1.0000
  H   H3527     1.0  0.58849  0.24123  0.21140  1.0000
  N   N293      1.0  0.69871  0.05349  0.25558  1.0000
  H   H3528     1.0  0.62095  0.17100  0.21665  1.0000
  H   H3529     1.0  0.59464  0.17020  0.24729  1.0000
  H   H3530     1.0  0.59871  0.22598  0.22075  1.0000
  S   S1227     1.0  0.69251  0.23215  0.33943  1.0000
  H   H3531     1.0  0.61202  0.26083  0.22704  1.0000
  H   H3532     1.0  0.59417  0.25067  0.21405  1.0000
  S   S1228     1.0  0.71222  0.25188  0.33527  1.0000
  S   S1229     1.0  0.66161  0.24413  0.34491  1.0000
  S   S1230     1.0  0.65763  0.25604  0.19023  1.0000
  H   H3533     1.0  0.67960  0.29609  0.22007  1.0000
  C   C3527     1.0  0.72606  0.33528  0.31966  1.0000
  C   C3528     1.0  0.63350  0.33511  0.25191  1.0000
  H   H3534     1.0  0.71404  0.36244  0.18989  1.0000
  C   C3529     1.0  0.62667  0.33340  0.23490  1.0000
  C   C3530     1.0  0.71805  0.20927  0.34154  1.0000
  S   S1231     1.0  0.72127  0.37161  0.28138  1.0000
  Fe  Fe613     1.0  0.68147  0.34524  0.23793  1.0000
  S   S1232     1.0  0.69543  0.33336  0.24292  1.0000
  S   S1233     1.0  0.66620  0.33923  0.24283  1.0000
  Fe  Fe614     1.0  0.69461  0.36256  0.22885  1.0000
  S   S1234     1.0  0.70934  0.35172  0.23317  1.0000
  S   S1235     1.0  0.69550  0.37941  0.22034  1.0000
  Fe  Fe615     1.0  0.70452  0.34014  0.22719  1.0000
  S   S1236     1.0  0.71641  0.32993  0.21693  1.0000
  Fe  Fe616     1.0  0.69865  0.34627  0.24842  1.0000
  S   S1237     1.0  0.70209  0.34296  0.26457  1.0000
  S   S1238     1.0  0.69039  0.35125  0.22172  1.0000
  S   S1239     1.0  0.68404  0.35783  0.24460  1.0000
  Fe  Fe617     1.0  0.73280  0.01405  0.27630  1.0000
  S   S1240     1.0  0.72663  0.42724  0.20047  1.0000
  H   H3535     1.0  0.71507  0.09231  0.30413  1.0000
  H   H3536     1.0  0.66796  0.25363  0.22305  1.0000
  H   H3537     1.0  0.73418  0.13789  0.24435  1.0000
  H   H3538     1.0  0.72628  0.33147  0.32782  1.0000
  H   H3539     1.0  0.54987  0.18258  0.29330  1.0000
  S   S1241     1.0  0.50168  0.25167  0.18686  1.0000
  C   C3531     1.0  0.71994  0.33749  0.20426  1.0000
  H   H3540     1.0  0.72715  0.37580  0.17842  1.0000
  H   H3541     1.0  0.72927  0.10383  0.32618  1.0000
  H   H3542     1.0  0.55250  0.22745  0.20663  1.0000
  H   H3543     1.0  0.70985  0.12149  0.29767  1.0000
  C   C3532     1.0  0.70633  0.38455  0.22027  1.0000
  C   C3533     1.0  0.71332  0.37935  0.22700  1.0000
  C   C3534     1.0  0.72132  0.38405  0.22738  1.0000
  C   C3535     1.0  0.72246  0.39397  0.22101  1.0000
  C   C3536     1.0  0.71565  0.39908  0.21410  1.0000
  C   C3537     1.0  0.70757  0.39441  0.21379  1.0000
  H   H3544     1.0  0.71231  0.37191  0.23223  1.0000
  H   H3545     1.0  0.72646  0.38012  0.23286  1.0000
  H   H3546     1.0  0.71635  0.40681  0.20929  1.0000
  H   H3547     1.0  0.70210  0.39856  0.20868  1.0000
  C   C3538     1.0  0.71580  0.36429  0.27604  1.0000
  C   C3539     1.0  0.72090  0.36116  0.26649  1.0000
  C   C3540     1.0  0.71640  0.35513  0.26250  1.0000
  C   C3541     1.0  0.70701  0.35198  0.26823  1.0000
  C   C3542     1.0  0.70197  0.35515  0.27774  1.0000
  C   C3543     1.0  0.70624  0.36144  0.28153  1.0000
  C   C3544     1.0  0.72298  0.22840  0.37320  1.0000
  H   H3548     1.0  0.72042  0.35255  0.25523  1.0000
  H   H3549     1.0  0.69479  0.35261  0.28226  1.0000
  H   H3550     1.0  0.70228  0.36383  0.28890  1.0000
  H   H3551     1.0  0.49493  0.23167  0.19720  1.0000
  C   C3545     1.0  0.71940  0.19059  0.34889  1.0000
  C   C3546     1.0  0.72978  0.18856  0.34308  1.0000
  H   H3552     1.0  0.73182  0.21366  0.33043  1.0000
  H   H3553     1.0  0.62134  0.26552  0.21547  1.0000
  C   C3547     1.0  0.50827  0.25619  0.19403  1.0000
  H   H3554     1.0  0.71593  0.18414  0.35398  1.0000
  C   C3548     1.0  0.60483  0.29867  0.18748  1.0000
  Fe  Fe618     1.0  0.67753  0.23913  0.34962  1.0000
  H   H3555     1.0  0.69894  0.28493  0.34721  1.0000
  C   C3549     1.0  0.72619  0.34481  0.29869  1.0000
  H   H3556     1.0  0.73107  0.19786  0.36057  1.0000
  H   H3557     1.0  0.72624  0.34863  0.29051  1.0000
  C   C3550     1.0  0.58800  0.24591  0.21725  1.0000
  C   C3551     1.0  0.72745  0.26838  0.34534  1.0000
  C   C3552     1.0  0.72408  0.26381  0.33891  1.0000
  H   H3558     1.0  0.72560  0.23242  0.36489  1.0000
  S   S1242     1.0  0.64111  0.24061  0.18506  1.0000
  H   H3559     1.0  0.69141  0.08006  0.25138  1.0000
  N   N294      1.0  0.73005  0.33420  0.30145  1.0000
  H   H3560     1.0  0.72695  0.26552  0.33046  1.0000
  H   H3561     1.0  0.53924  0.23483  0.20602  1.0000
  H   H3562     1.0  0.64038  0.34781  0.24122  1.0000
  C   C3553     1.0  0.72491  0.98761  0.25847  1.0000
  C   C3554     1.0  0.72770  0.99373  0.26387  1.0000
  H   H3563     1.0  0.71918  0.35078  0.32290  1.0000
  H   H3564     1.0  0.57888  0.30915  0.21520  1.0000
  S   S1243     1.0  0.74034  0.29330  0.36715  1.0000
  H   H3565     1.0  0.72046  0.99148  0.25237  1.0000
  H   H3566     1.0  0.72540  0.00223  0.26193  1.0000
  C   C3555     1.0  0.71395  0.06126  0.24852  1.0000
  C   C3556     1.0  0.71648  0.12369  0.30954  1.0000
  H   H3567     1.0  0.73641  0.33545  0.18046  1.0000
  Fe  Fe619     1.0  0.73564  0.43813  0.20293  1.0000
  H   H3568     1.0  0.72051  0.47333  0.21533  1.0000
  H   H3569     1.0  0.72678  0.21726  0.35829  1.0000
  S   S1244     1.0  0.55145  0.28115  0.20552  1.0000
  H   H3570     1.0  0.72416  0.12336  0.32180  1.0000
  N   N295      1.0  0.62801  0.32752  0.25306  1.0000
  C   C3557     1.0  0.72362  0.26626  0.35625  1.0000
  H   H3571     1.0  0.73874  0.13292  0.27886  1.0000
  C   C3558     1.0  0.52496  0.25706  0.19749  1.0000
  S   S1245     1.0  0.68495  0.25032  0.35354  1.0000
  C   C3559     1.0  0.72157  0.12152  0.27358  1.0000
  C   C3560     1.0  0.72871  0.11529  0.26685  1.0000
  H   H3572     1.0  0.50415  0.27138  0.21190  1.0000
  C   C3561     1.0  0.51864  0.17493  0.28098  1.0000
  H   H3573     1.0  0.60856  0.29028  0.18723  1.0000
  C   C3562     1.0  0.72516  0.12811  0.27765  1.0000
  H   H3574     1.0  0.72604  0.11001  0.26389  1.0000
  C   C3563     1.0  0.72551  0.34963  0.18400  1.0000
  H   H3575     1.0  0.72246  0.06034  0.24602  1.0000
  H   H3576     1.0  0.71966  0.13302  0.28276  1.0000
  C   C3564     1.0  0.68519  0.07501  0.27637  1.0000
  C   C3565     1.0  0.67852  0.06783  0.28032  1.0000
  C   C3566     1.0  0.68276  0.05701  0.28316  1.0000
  C   C3567     1.0  0.69368  0.05329  0.28203  1.0000
  C   C3568     1.0  0.70032  0.06049  0.27835  1.0000
  C   C3569     1.0  0.69609  0.07131  0.27549  1.0000
  H   H3577     1.0  0.67008  0.07063  0.28107  1.0000
  H   H3578     1.0  0.67756  0.05148  0.28610  1.0000
  H   H3579     1.0  0.70870  0.05776  0.27773  1.0000
  H   H3580     1.0  0.70132  0.07672  0.27242  1.0000
  C   C3570     1.0  0.53356  0.18779  0.29197  1.0000
  C   C3571     1.0  0.50843  0.26631  0.20644  1.0000
  C   C3572     1.0  0.73049  0.33900  0.18643  1.0000
  C   C3573     1.0  0.73070  0.09359  0.23031  1.0000
  C   C3574     1.0  0.72397  0.09252  0.22453  1.0000
  C   C3575     1.0  0.72604  0.09588  0.21354  1.0000
  S   S1246     1.0  0.73675  0.04062  0.24178  1.0000
  H   H3581     1.0  0.49132  0.24347  0.22854  1.0000
  H   H3582     1.0  0.71729  0.08892  0.22849  1.0000
  H   H3583     1.0  0.72096  0.09487  0.20904  1.0000
  H   H3584     1.0  0.68094  0.26325  0.36921  1.0000
  H   H3585     1.0  0.55301  0.16727  0.28517  1.0000
  C   C3576     1.0  0.73478  0.07556  0.26785  1.0000
  H   H3586     1.0  0.64072  0.24436  0.24365  1.0000
  H   H3587     1.0  0.69963  0.03723  0.26301  1.0000
  C   C3577     1.0  0.52090  0.20548  0.26857  1.0000
  C   C3578     1.0  0.52603  0.19858  0.26177  1.0000
  C   C3579     1.0  0.52014  0.19365  0.25810  1.0000
  C   C3580     1.0  0.50908  0.19554  0.26120  1.0000
  H   H3588     1.0  0.73041  0.05396  0.29009  1.0000
  C   C3581     1.0  0.50983  0.20756  0.27148  1.0000
  H   H3589     1.0  0.53453  0.19692  0.25942  1.0000
  H   H3590     1.0  0.52418  0.18820  0.25296  1.0000
  C   C3582     1.0  0.66261  0.21619  0.35323  1.0000
  C   C3583     1.0  0.59788  0.19174  0.22793  1.0000
  C   C3584     1.0  0.57175  0.20996  0.22689  1.0000
  C   C3585     1.0  0.56984  0.22019  0.22850  1.0000
  C   C3586     1.0  0.57058  0.22867  0.21982  1.0000
  C   C3587     1.0  0.57338  0.22685  0.20958  1.0000
  C   C3588     1.0  0.57572  0.21656  0.20803  1.0000
  C   C3589     1.0  0.57484  0.20813  0.21668  1.0000
  H   H3591     1.0  0.56759  0.22160  0.23640  1.0000
  H   H3592     1.0  0.56894  0.23657  0.22106  1.0000
  H   H3593     1.0  0.57793  0.21514  0.20012  1.0000
  H   H3594     1.0  0.57637  0.20020  0.21543  1.0000
  C   C3590     1.0  0.65360  0.23123  0.32034  1.0000
  C   C3591     1.0  0.64587  0.23801  0.32608  1.0000
  C   C3592     1.0  0.64852  0.24217  0.33333  1.0000
  C   C3593     1.0  0.65891  0.23965  0.33488  1.0000
  C   C3594     1.0  0.66673  0.23323  0.32879  1.0000
  C   C3595     1.0  0.66408  0.22904  0.32156  1.0000
  H   H3595     1.0  0.63777  0.23975  0.32523  1.0000
  H   H3596     1.0  0.72603  0.07050  0.29666  1.0000
  H   H3597     1.0  0.67477  0.23129  0.32984  1.0000
  H   H3598     1.0  0.67012  0.22385  0.31712  1.0000
  C   C3596     1.0  0.59591  0.22005  0.29402  1.0000
  C   C3597     1.0  0.58837  0.21388  0.29605  1.0000
  C   C3598     1.0  0.58187  0.21547  0.28887  1.0000
  C   C3599     1.0  0.58269  0.22344  0.27975  1.0000
  C   C3600     1.0  0.59031  0.22948  0.27767  1.0000
  C   C3601     1.0  0.59701  0.22766  0.28465  1.0000
  H   H3599     1.0  0.58741  0.20798  0.30329  1.0000
  H   H3600     1.0  0.57596  0.21081  0.29059  1.0000
  H   H3601     1.0  0.59102  0.23565  0.27063  1.0000
  H   H3602     1.0  0.60285  0.23232  0.28285  1.0000
  C   C3602     1.0  0.66968  0.15833  0.24837  1.0000
  C   C3603     1.0  0.67692  0.15080  0.25376  1.0000
  C   C3604     1.0  0.68340  0.14235  0.24932  1.0000
  C   C3605     1.0  0.68265  0.14140  0.23949  1.0000
  C   C3606     1.0  0.67574  0.14918  0.23388  1.0000
  C   C3607     1.0  0.66923  0.15762  0.23834  1.0000
  H   H3603     1.0  0.67741  0.15140  0.26145  1.0000
  H   H3604     1.0  0.68897  0.13661  0.25354  1.0000
  H   H3605     1.0  0.67526  0.14857  0.22619  1.0000
  H   H3606     1.0  0.66391  0.16360  0.23399  1.0000
  C   C3608     1.0  0.60411  0.16292  0.26451  1.0000
  C   C3609     1.0  0.60177  0.17307  0.26650  1.0000
  C   C3610     1.0  0.59211  0.17671  0.27296  1.0000
  C   C3611     1.0  0.58474  0.17025  0.27739  1.0000
  C   C3612     1.0  0.58725  0.15998  0.27570  1.0000
  C   C3613     1.0  0.59690  0.15634  0.26922  1.0000
  H   H3607     1.0  0.60730  0.17819  0.26291  1.0000
  H   H3608     1.0  0.59037  0.18449  0.27456  1.0000
  H   H3609     1.0  0.58161  0.15494  0.27914  1.0000
  H   H3610     1.0  0.59869  0.14850  0.26771  1.0000
  C   C3614     1.0  0.62380  0.21602  0.25630  1.0000
  C   C3615     1.0  0.61814  0.22455  0.26093  1.0000
  C   C3616     1.0  0.62346  0.23055  0.26388  1.0000
  C   C3617     1.0  0.63447  0.22815  0.26205  1.0000
  C   C3618     1.0  0.64018  0.21984  0.25707  1.0000
  C   C3619     1.0  0.63484  0.21371  0.25428  1.0000
  H   H3611     1.0  0.60962  0.22638  0.26243  1.0000
  H   H3612     1.0  0.61902  0.23710  0.26749  1.0000
  H   H3613     1.0  0.64872  0.21796  0.25564  1.0000
  H   H3614     1.0  0.63927  0.20713  0.25072  1.0000
  C   C3620     1.0  0.65285  0.32355  0.22455  1.0000
  C   C3621     1.0  0.65272  0.31952  0.23527  1.0000
  C   C3622     1.0  0.65746  0.32398  0.24065  1.0000
  C   C3623     1.0  0.66243  0.33244  0.23536  1.0000
  C   C3624     1.0  0.66294  0.33619  0.22455  1.0000
  C   C3625     1.0  0.65810  0.33180  0.21919  1.0000
  H   H3615     1.0  0.64871  0.31318  0.23950  1.0000
  H   H3616     1.0  0.65696  0.32110  0.24904  1.0000
  H   H3617     1.0  0.66661  0.34282  0.22042  1.0000
  H   H3618     1.0  0.65822  0.33499  0.21089  1.0000
  C   C3626     1.0  0.61295  0.29205  0.27109  1.0000
  C   C3627     1.0  0.60752  0.29442  0.28084  1.0000
  C   C3628     1.0  0.60726  0.28645  0.28998  1.0000
  C   C3629     1.0  0.61243  0.27608  0.28942  1.0000
  C   C3630     1.0  0.61799  0.27366  0.27967  1.0000
  C   C3631     1.0  0.61826  0.28167  0.27048  1.0000
  H   H3619     1.0  0.60341  0.30242  0.28134  1.0000
  H   H3620     1.0  0.60295  0.28833  0.29750  1.0000
  H   H3621     1.0  0.62197  0.26563  0.27919  1.0000
  H   H3622     1.0  0.62246  0.27981  0.26294  1.0000
  C   C3632     1.0  0.60130  0.28408  0.21799  1.0000
  C   C3633     1.0  0.59421  0.28515  0.22755  1.0000
  C   C3634     1.0  0.58480  0.28139  0.23022  1.0000
  C   C3635     1.0  0.58239  0.27658  0.22335  1.0000
  C   C3636     1.0  0.58976  0.27502  0.21409  1.0000
  C   C3637     1.0  0.59916  0.27873  0.21144  1.0000
  H   H3623     1.0  0.59576  0.28926  0.23267  1.0000
  H   H3624     1.0  0.57921  0.28254  0.23747  1.0000
  H   H3625     1.0  0.58816  0.27119  0.20880  1.0000
  H   H3626     1.0  0.60467  0.27770  0.20412  1.0000
  C   C3638     1.0  0.62098  0.22506  0.20654  1.0000
  C   C3639     1.0  0.62557  0.22019  0.19796  1.0000
  C   C3640     1.0  0.63061  0.20949  0.19962  1.0000
  C   C3641     1.0  0.63119  0.20372  0.20984  1.0000
  C   C3642     1.0  0.62673  0.20869  0.21836  1.0000
  C   C3643     1.0  0.62163  0.21933  0.21673  1.0000
  H   H3627     1.0  0.62513  0.22464  0.19005  1.0000
  H   H3628     1.0  0.63409  0.20570  0.19299  1.0000
  H   H3629     1.0  0.62730  0.20444  0.22625  1.0000
  H   H3630     1.0  0.61843  0.22314  0.22335  1.0000
  C   C3644     1.0  0.65530  0.25835  0.20293  1.0000
  C   C3645     1.0  0.64567  0.26431  0.20723  1.0000
  C   C3646     1.0  0.64415  0.26661  0.21714  1.0000
  C   C3647     1.0  0.65222  0.26287  0.22282  1.0000
  C   C3648     1.0  0.66170  0.25655  0.21870  1.0000
  C   C3649     1.0  0.66329  0.25440  0.20870  1.0000
  H   H3631     1.0  0.63953  0.26749  0.20277  1.0000
  H   H3632     1.0  0.63671  0.27130  0.22038  1.0000
  N   N296      1.0  0.69709  0.38686  0.24919  1.0000
  C   C3650     1.0  0.69762  0.39585  0.24153  1.0000
  C   C3651     1.0  0.70333  0.38395  0.25644  1.0000
  C   C3652     1.0  0.70489  0.40191  0.24070  1.0000
  C   C3653     1.0  0.71076  0.38976  0.25579  1.0000
  C   C3654     1.0  0.71161  0.39873  0.24778  1.0000
  C   C3655     1.0  0.68957  0.38046  0.24993  1.0000
  H   H3633     1.0  0.69267  0.39816  0.23577  1.0000
  H   H3634     1.0  0.70264  0.37703  0.26269  1.0000
  H   H3635     1.0  0.70563  0.40878  0.23434  1.0000
  H   H3636     1.0  0.71588  0.38723  0.26142  1.0000
  H   H3637     1.0  0.71755  0.40315  0.24696  1.0000
  H   H3638     1.0  0.68770  0.38138  0.24214  1.0000
  H   H3639     1.0  0.69293  0.37193  0.25259  1.0000
  H   H3640     1.0  0.68215  0.38280  0.25560  1.0000
  N   N297      1.0  0.59415  0.29948  0.19409  1.0000
  C   C3656     1.0  0.59111  0.30490  0.20203  1.0000
  C   C3657     1.0  0.58727  0.29466  0.19228  1.0000
  C   C3658     1.0  0.58107  0.30528  0.20861  1.0000
  C   C3659     1.0  0.57710  0.29506  0.19854  1.0000
  C   C3660     1.0  0.72759  0.33288  0.19653  1.0000
  H   H3641     1.0  0.52121  0.17365  0.27279  1.0000
  H   H3642     1.0  0.59664  0.30854  0.20364  1.0000
  C   C3661     1.0  0.53377  0.29173  0.18756  1.0000
  H   H3643     1.0  0.54902  0.24092  0.20759  1.0000
  H   H3644     1.0  0.52741  0.24121  0.24192  1.0000
  H   H3645     1.0  0.53155  0.28862  0.19619  1.0000
  H   H3646     1.0  0.73419  0.18055  0.34357  1.0000
  H   H3647     1.0  0.71253  0.13105  0.21518  1.0000
  H   H3648     1.0  0.66773  0.30527  0.21708  1.0000
  C   C3662     1.0  0.73947  0.11550  0.26436  1.0000
  H   H3649     1.0  0.71449  0.04464  0.25227  1.0000
  C   C3663     1.0  0.60744  0.17400  0.22928  1.0000
  C   C3664     1.0  0.71355  0.20095  0.34815  1.0000
  C   C3665     1.0  0.62458  0.32662  0.24472  1.0000
  H   H3650     1.0  0.73193  0.34127  0.23595  1.0000
  Fe  Fe620     1.0  0.64301  0.25661  0.18495  1.0000
  C   C3666     1.0  0.53606  0.23799  0.22671  1.0000
  C   C3667     1.0  0.54597  0.23357  0.20984  1.0000
  C   C3668     1.0  0.53557  0.22495  0.24302  1.0000
  Fe  Fe621     1.0  0.69503  0.22077  0.35454  1.0000
  H   H3651     1.0  0.62430  0.33240  0.22820  1.0000
  C   C3669     1.0  0.61839  0.25842  0.22042  1.0000
  H   H3652     1.0  0.62553  0.25712  0.23746  1.0000
  C   C3670     1.0  0.63290  0.24301  0.21861  1.0000
  C   C3671     1.0  0.64149  0.23561  0.22199  1.0000
  C   C3672     1.0  0.64425  0.23601  0.23112  1.0000
  H   H3653     1.0  0.63099  0.24280  0.21137  1.0000
  H   H3654     1.0  0.64604  0.22971  0.21747  1.0000
  H   H3655     1.0  0.65096  0.23041  0.23378  1.0000
  C   C3673     1.0  0.65251  0.26264  0.27959  1.0000
  H   H3656     1.0  0.52363  0.24831  0.18680  1.0000
  H   H3657     1.0  0.61482  0.25536  0.21562  1.0000
  C   C3674     1.0  0.69631  0.28078  0.35520  1.0000
  H   H3658     1.0  0.70964  0.35192  0.20786  1.0000
  C   C3675     1.0  0.62982  0.25095  0.23320  1.0000
  C   C3676     1.0  0.51952  0.26362  0.20456  1.0000
  C   C3677     1.0  0.69228  0.06330  0.25507  1.0000
  S   S1247     1.0  0.72831  0.45350  0.20878  1.0000
  H   H3659     1.0  0.64672  0.21988  0.35082  1.0000
  N   N298      1.0  0.65248  0.13637  0.26006  1.0000
  C   C3678     1.0  0.65458  0.12754  0.26772  1.0000
  C   C3679     1.0  0.65679  0.13621  0.24968  1.0000
  C   C3680     1.0  0.66136  0.11831  0.26505  1.0000
  C   C3681     1.0  0.66366  0.12715  0.24675  1.0000
  C   C3682     1.0  0.66596  0.11816  0.25450  1.0000
  C   C3683     1.0  0.64521  0.14593  0.26289  1.0000
  H   H3660     1.0  0.65108  0.12761  0.27594  1.0000
  H   H3661     1.0  0.65508  0.14318  0.24361  1.0000
  H   H3662     1.0  0.66319  0.11134  0.27112  1.0000
  H   H3663     1.0  0.66738  0.12719  0.23853  1.0000
  H   H3664     1.0  0.67142  0.11113  0.25236  1.0000
  H   H3665     1.0  0.64804  0.15308  0.25791  1.0000
  H   H3666     1.0  0.63720  0.14635  0.26175  1.0000
  H   H3667     1.0  0.64466  0.14623  0.27118  1.0000
  N   N299      1.0  0.58678  0.25729  0.29463  1.0000
  C   C3684     1.0  0.58049  0.25350  0.29070  1.0000
  C   C3685     1.0  0.59009  0.25182  0.30371  1.0000
  C   C3686     1.0  0.57707  0.24418  0.29609  1.0000
  C   C3687     1.0  0.58694  0.24240  0.30922  1.0000
  C   C3688     1.0  0.58032  0.23862  0.30542  1.0000
  C   C3689     1.0  0.59052  0.26693  0.28878  1.0000
  H   H3668     1.0  0.57816  0.25761  0.28331  1.0000
  H   H3669     1.0  0.59532  0.25465  0.30668  1.0000
  H   H3670     1.0  0.57224  0.24107  0.29288  1.0000
  H   H3671     1.0  0.58985  0.23790  0.31624  1.0000
  H   H3672     1.0  0.57808  0.23116  0.30947  1.0000
  H   H3673     1.0  0.59075  0.27168  0.29428  1.0000
  H   H3674     1.0  0.59864  0.26486  0.28406  1.0000
  H   H3675     1.0  0.58531  0.27203  0.28342  1.0000
  H   H3676     1.0  0.71522  0.14380  0.24330  1.0000
  H   H3677     1.0  0.71357  0.21729  0.34089  1.0000
  H   H3678     1.0  0.63651  0.33567  0.25840  1.0000
  H   H3679     1.0  0.67165  0.24595  0.28490  1.0000
  C   C3690     1.0  0.50282  0.26267  0.20117  1.0000
  H   H3680     1.0  0.62035  0.32052  0.24562  1.0000
  H   H3681     1.0  0.53361  0.24605  0.22257  1.0000
  H   H3682     1.0  0.73101  0.33147  0.28629  1.0000
  H   H3683     1.0  0.50579  0.21291  0.27673  1.0000
  H   H3684     1.0  0.67002  0.20126  0.33068  1.0000
  H   H3685     1.0  0.73129  0.32461  0.19836  1.0000
  C   C3691     1.0  0.63225  0.34117  0.23365  1.0000
  H   H3686     1.0  0.71372  0.25763  0.36913  1.0000
  H   H3687     1.0  0.60878  0.16588  0.23365  1.0000
  H   H3688     1.0  0.49430  0.26498  0.20255  1.0000
  C   C3692     1.0  0.65477  0.21566  0.34852  1.0000
  H   H3689     1.0  0.72468  0.09334  0.31618  1.0000
  H   H3690     1.0  0.56635  0.30024  0.21207  1.0000
  H   H3691     1.0  0.67037  0.30284  0.22989  1.0000
  C   C3693     1.0  0.68674  0.20110  0.33813  1.0000
  C   C3694     1.0  0.73675  0.08390  0.27079  1.0000
  H   H3692     1.0  0.63425  0.34622  0.22597  1.0000
  H   H3693     1.0  0.51781  0.19108  0.28951  1.0000
  Fe  Fe622     1.0  0.68876  0.23754  0.36744  1.0000
  H   H3694     1.0  0.65955  0.24794  0.29472  1.0000
  C   C3695     1.0  0.73592  0.12818  0.27531  1.0000
  H   H3695     1.0  0.66066  0.22077  0.35926  1.0000
  C   C3696     1.0  0.66799  0.20527  0.33716  1.0000
  H   H3696     1.0  0.54475  0.20940  0.24156  1.0000
  C   C3697     1.0  0.60456  0.19481  0.21828  1.0000
  N   N300      1.0  0.54257  0.23058  0.22131  1.0000
  C   C3698     1.0  0.72219  0.35093  0.30634  1.0000
  C   C3699     1.0  0.54348  0.18105  0.29081  1.0000
  Fe  Fe623     1.0  0.70017  0.24225  0.34471  1.0000
  H   H3697     1.0  0.61813  0.18957  0.20671  1.0000
  C   C3700     1.0  0.65832  0.24906  0.26989  1.0000
  C   C3701     1.0  0.61278  0.18727  0.21412  1.0000
  C   C3702     1.0  0.71398  0.11758  0.30402  1.0000
  C   C3703     1.0  0.54557  0.22039  0.22652  1.0000
  H   H3698     1.0  0.68380  0.06420  0.25784  1.0000
  C   C3704     1.0  0.72193  0.11871  0.31762  1.0000
  H   H3699     1.0  0.65343  0.25256  0.25509  1.0000
  H   H3700     1.0  0.60347  0.20300  0.21411  1.0000
  H   H3701     1.0  0.65206  0.26546  0.28655  1.0000
  C   C3705     1.0  0.72838  0.20722  0.33560  1.0000
  H   H3702     1.0  0.50990  0.27720  0.18029  1.0000
  H   H3703     1.0  0.68956  0.19461  0.34449  1.0000
  C   C3706     1.0  0.72781  0.47389  0.20960  1.0000
  H   H3704     1.0  0.68800  0.19787  0.33103  1.0000
  H   H3705     1.0  0.62872  0.32182  0.26941  1.0000
  H   H3706     1.0  0.67913  0.21165  0.35342  1.0000
  S   S1248     1.0  0.73170  0.40022  0.22271  1.0000
  C   C3707     1.0  0.71912  0.40006  0.18426  1.0000
  C   C3708     1.0  0.67418  0.30366  0.22139  1.0000
  C   C3709     1.0  0.70940  0.05240  0.25214  1.0000
  H   H3707     1.0  0.55073  0.21448  0.22228  1.0000
  C   C3710     1.0  0.69407  0.04412  0.25941  1.0000
  C   C3711     1.0  0.62599  0.32003  0.26314  1.0000
  S   S1249     1.0  0.70065  0.20343  0.35557  1.0000
  N   N301      1.0  0.58957  0.23910  0.22743  1.0000
  C   C3712     1.0  0.58563  0.24309  0.23635  1.0000
  C   C3713     1.0  0.59540  0.22902  0.22789  1.0000
  C   C3714     1.0  0.58733  0.23685  0.24612  1.0000
  C   C3715     1.0  0.59731  0.22259  0.23753  1.0000
  C   C3716     1.0  0.59320  0.22654  0.24670  1.0000
  H   H3708     1.0  0.58111  0.25113  0.23596  1.0000
  H   H3709     1.0  0.58409  0.23999  0.25320  1.0000
  H   H3710     1.0  0.60210  0.21465  0.23790  1.0000
  H   H3711     1.0  0.59460  0.22163  0.25424  1.0000
  N   N302      1.0  0.61694  0.19622  0.28396  1.0000
  C   C3717     1.0  0.61561  0.19697  0.29416  1.0000
  C   C3718     1.0  0.62668  0.19584  0.27738  1.0000
  C   C3719     1.0  0.62413  0.19740  0.29800  1.0000
  C   C3720     1.0  0.63538  0.19623  0.28094  1.0000
  C   C3721     1.0  0.63408  0.19702  0.29134  1.0000
  C   C3722     1.0  0.60777  0.19659  0.27984  1.0000
  H   H3712     1.0  0.60786  0.19752  0.29933  1.0000
  H   H3713     1.0  0.62775  0.19538  0.26927  1.0000
  H   H3714     1.0  0.62291  0.19836  0.30601  1.0000
  H   H3715     1.0  0.64303  0.19612  0.27560  1.0000
  H   H3716     1.0  0.64072  0.19754  0.29415  1.0000
  H   H3717     1.0  0.60443  0.20491  0.27636  1.0000
  H   H3718     1.0  0.61002  0.19194  0.27361  1.0000
  H   H3719     1.0  0.60152  0.19334  0.28612  1.0000
  N   N303      1.0  0.68002  0.31218  0.21786  1.0000
  C   C3723     1.0  0.68549  0.31364  0.22439  1.0000
  C   C3724     1.0  0.68049  0.31821  0.20787  1.0000
  C   C3725     1.0  0.69162  0.32130  0.22096  1.0000
  C   C3726     1.0  0.68648  0.32601  0.20421  1.0000
  C   C3727     1.0  0.69212  0.32751  0.21081  1.0000
  C   C3728     1.0  0.67305  0.21118  0.34978  1.0000
  H   H3720     1.0  0.68515  0.30887  0.23231  1.0000
  H   H3721     1.0  0.67612  0.31708  0.20270  1.0000
  H   H3722     1.0  0.69605  0.32238  0.22610  1.0000
  H   H3723     1.0  0.68680  0.33084  0.19632  1.0000
  H   H3724     1.0  0.69692  0.33343  0.20806  1.0000
  Fe  Fe624     1.0  0.73884  0.03357  0.27936  1.0000
  Fe  Fe625     1.0  0.74018  0.28093  0.35889  1.0000
  S   S1250     1.0  0.73874  0.08242  0.30071  1.0000
  C   C3729     1.0  0.71714  0.13599  0.23064  1.0000
  H   H3725     1.0  0.66238  0.23739  0.28815  1.0000
  H   H3726     1.0  0.66238  0.24108  0.26916  1.0000
  H   H3727     1.0  0.57178  0.29106  0.19711  1.0000
  C   C3730     1.0  0.71488  0.10067  0.29997  1.0000
  C   C3731     1.0  0.61432  0.17681  0.21968  1.0000
  C   C3732     1.0  0.71666  0.25938  0.36070  1.0000
  S   S1251     1.0  0.67967  0.22715  0.36462  1.0000
  H   H3728     1.0  0.53840  0.16392  0.27938  1.0000
  C   C3733     1.0  0.68923  0.27422  0.35727  1.0000
  H   H3729     1.0  0.52950  0.30005  0.18564  1.0000
  C   C3734     1.0  0.57405  0.30029  0.20685  1.0000
  H   H3730     1.0  0.70745  0.25009  0.35782  1.0000
  H   H3731     1.0  0.59163  0.19767  0.23122  1.0000
  C   C3735     1.0  0.72217  0.10186  0.31440  1.0000
  H   H3732     1.0  0.64346  0.27058  0.25682  1.0000
  H   H3733     1.0  0.53220  0.19473  0.29518  1.0000
  C   C3736     1.0  0.70034  0.28158  0.36343  1.0000
  H   H3734     1.0  0.73282  0.27369  0.34184  1.0000
  C   C3737     1.0  0.53697  0.17061  0.28296  1.0000
  C   C3738     1.0  0.52086  0.28418  0.18392  1.0000
  H   H3735     1.0  0.73368  0.31979  0.29617  1.0000
  C   C3739     1.0  0.53250  0.23530  0.23764  1.0000
  H   H3736     1.0  0.71095  0.07817  0.24567  1.0000
  H   H3737     1.0  0.70705  0.10403  0.29783  1.0000
  N   N304      1.0  0.71685  0.10681  0.30645  1.0000
  C   C3740     1.0  0.72477  0.10773  0.32011  1.0000
  H   H3738     1.0  0.53288  0.22275  0.25151  1.0000
  H   H3739     1.0  0.58296  0.26932  0.17837  1.0000
  H   H3740     1.0  0.68623  0.27333  0.35091  1.0000
  C   C3741     1.0  0.72214  0.34611  0.31689  1.0000
  H   H3741     1.0  0.71431  0.23116  0.37555  1.0000
  H   H3742     1.0  0.73206  0.34012  0.21790  1.0000
  C   C3742     1.0  0.50394  0.20262  0.26783  1.0000
  C   C3743     1.0  0.65744  0.21009  0.34049  1.0000
  H   H3743     1.0  0.73783  0.35118  0.19799  1.0000
  H   H3744     1.0  0.69197  0.04219  0.25284  1.0000
  C   C3744     1.0  0.73788  0.34412  0.22935  1.0000
  H   H3745     1.0  0.69173  0.20705  0.33612  1.0000
  N   N305      1.0  0.67565  0.20594  0.34175  1.0000
  H   H3746     1.0  0.71914  0.38434  0.19369  1.0000
  H   H3747     1.0  0.51615  0.16778  0.28636  1.0000
  S   S1252     1.0  0.73628  0.99608  0.27949  1.0000
  S   S1253     1.0  0.70427  0.22996  0.35869  1.0000
  H   H3748     1.0  0.65146  0.20995  0.33652  1.0000
  H   H3749     1.0  0.73345  0.32107  0.31396  1.0000
  Fe  Fe626     1.0  0.62390  0.24713  0.19027  1.0000
  C   C3745     1.0  0.71525  0.34820  0.20189  1.0000
  H   H3750     1.0  0.72827  0.36339  0.26217  1.0000
  N   N306      1.0  0.62710  0.25046  0.22429  1.0000
  C   C3746     1.0  0.63844  0.24376  0.23673  1.0000
  H   H3751     1.0  0.70880  0.13836  0.23045  1.0000
  H   H3752     1.0  0.67075  0.24976  0.20538  1.0000
  H   H3753     1.0  0.61738  0.32020  0.26584  1.0000
  H   H3754     1.0  0.71440  0.13223  0.30742  1.0000
  C   C3747     1.0  0.64758  0.26562  0.26291  1.0000
  C   C3748     1.0  0.72970  0.20141  0.36729  1.0000
  C   C3749     1.0  0.73417  0.06637  0.29490  1.0000
  H   H3755     1.0  0.53348  0.25495  0.19592  1.0000
  C   C3750     1.0  0.73925  0.09837  0.22517  1.0000
  S   S1254     1.0  0.72640  0.27285  0.36451  1.0000
  C   C3751     1.0  0.65323  0.25551  0.26191  1.0000
  N   N307      1.0  0.59931  0.18144  0.23326  1.0000
  H   H3756     1.0  0.59121  0.18365  0.24863  1.0000
  H   H3757     1.0  0.49545  0.20415  0.27029  1.0000
  C   C3752     1.0  0.73010  0.32942  0.31178  1.0000
  S   S1255     1.0  0.50211  0.18832  0.25728  1.0000
  C   C3753     1.0  0.59197  0.17845  0.24320  1.0000
  Fe  Fe627     1.0  0.73653  0.41409  0.21017  1.0000
  C   C3754     1.0  0.72072  0.13908  0.23796  1.0000
  C   C3755     1.0  0.70748  0.07127  0.24824  1.0000
  C   C3756     1.0  0.64720  0.26924  0.27181  1.0000
  H   H3758     1.0  0.72574  0.12486  0.20980  1.0000
  N   N308      1.0  0.52723  0.17722  0.28420  1.0000
  N   N309      1.0  0.65784  0.25262  0.27864  1.0000
  C   C3757     1.0  0.71785  0.35420  0.19171  1.0000
  C   C3758     1.0  0.69655  0.07233  0.25138  1.0000
  H   H3759     1.0  0.64243  0.24718  0.33796  1.0000
  H   H3760     1.0  0.63009  0.31189  0.26217  1.0000
  C   C3759     1.0  0.52546  0.18571  0.28867  1.0000
  H   H3761     1.0  0.58406  0.17920  0.24168  1.0000
  C   C3760     1.0  0.71683  0.25719  0.34336  1.0000
  H   H3762     1.0  0.73029  0.09015  0.27323  1.0000
  H   H3763     1.0  0.72106  0.10081  0.29260  1.0000
  C   C3761     1.0  0.73801  0.34347  0.21913  1.0000
  H   H3764     1.0  0.71577  0.40389  0.19089  1.0000
  N   N310      1.0  0.72395  0.12971  0.22414  1.0000
  H   H3765     1.0  0.71923  0.35937  0.30402  1.0000
  C   C3762     1.0  0.73826  0.12952  0.23177  1.0000
  C   C3763     1.0  0.73133  0.13574  0.23857  1.0000
  Fe  Fe628     1.0  0.73893  0.36697  0.27794  1.0000
  H   H3766     1.0  0.51495  0.28766  0.18998  1.0000
  H   H3767     1.0  0.72677  0.07533  0.26787  1.0000
  C   C3764     1.0  0.73663  0.05699  0.29117  1.0000
  C   C3765     1.0  0.69066  0.26933  0.37548  1.0000
  H   H3768     1.0  0.60454  0.30313  0.17930  1.0000
  C   C3766     1.0  0.73440  0.12653  0.22459  1.0000
  C   C3767     1.0  0.73471  0.10052  0.20836  1.0000
  Fe  Fe629     1.0  0.73310  0.03389  0.25909  1.0000
  C   C3768     1.0  0.73333  0.98882  0.27186  1.0000
  C   C3769     1.0  0.73474  0.32805  0.29324  1.0000
  H   H3769     1.0  0.71808  0.11784  0.22138  1.0000
  C   C3770     1.0  0.72730  0.21239  0.36606  1.0000
  C   C3771     1.0  0.71989  0.12569  0.21728  1.0000
  H   H3770     1.0  0.58975  0.29016  0.18620  1.0000
  H   H3771     1.0  0.49324  0.24329  0.20921  1.0000
  S   S1256     1.0  0.73761  0.10419  0.19459  1.0000
  N   N311      1.0  0.69754  0.27585  0.37341  1.0000
  H   H3772     1.0  0.54237  0.29163  0.18553  1.0000
  N   N312      1.0  0.72561  0.21688  0.37452  1.0000
  N   N313      1.0  0.53106  0.28536  0.18182  1.0000
  H   H3773     1.0  0.73616  0.46730  0.22766  1.0000
  H   H3774     1.0  0.73985  0.12160  0.21943  1.0000
  H   H3775     1.0  0.71445  0.98890  0.28836  1.0000
  C   C3772     1.0  0.72107  0.38910  0.18582  1.0000
  Fe  Fe630     1.0  0.74037  0.42396  0.18706  1.0000
  H   H3776     1.0  0.70936  0.98273  0.30171  1.0000
  C   C3773     1.0  0.49108  0.22963  0.20543  1.0000
  N   N314      1.0  0.71742  0.19406  0.45182  1.0000
  H   H3777     1.0  0.70128  0.26029  0.54572  1.0000
  S   S1257     1.0  0.71704  0.27157  0.56296  1.0000
  C   C3774     1.0  0.73127  0.22037  0.47195  1.0000
  H   H3778     1.0  0.69644  0.27671  0.38922  1.0000
  H   H3779     1.0  0.72849  0.19482  0.39368  1.0000
  C   C3775     1.0  0.71076  0.20880  0.46032  1.0000
  C   C3776     1.0  0.70267  0.24194  0.55964  1.0000
  C   C3777     1.0  0.71257  0.22401  0.56058  1.0000
  S   S1258     1.0  0.73620  0.21983  0.40746  1.0000
  H   H3780     1.0  0.69816  0.24828  0.56360  1.0000
  H   H3781     1.0  0.72579  0.18184  0.44342  1.0000
  S   S1259     1.0  0.73733  0.19768  0.42567  1.0000
  S   S1260     1.0  0.72716  0.22263  0.52209  1.0000
  S   S1261     1.0  0.72673  0.25222  0.52262  1.0000
  Fe  Fe631     1.0  0.73760  0.21989  0.50641  1.0000
  H   H3782     1.0  0.69959  0.22163  0.45324  1.0000
  H   H3783     1.0  0.70387  0.25486  0.53436  1.0000
  C   C3778     1.0  0.70674  0.23219  0.56563  1.0000
  C   C3779     1.0  0.70447  0.21382  0.45294  1.0000
  Fe  Fe632     1.0  0.72505  0.21196  0.42079  1.0000
  H   H3784     1.0  0.72685  0.23092  0.37816  1.0000
  S   S1262     1.0  0.71070  0.20898  0.41743  1.0000
  H   H3785     1.0  0.74008  0.26899  0.56371  1.0000
  H   H3786     1.0  0.73116  0.22013  0.45599  1.0000
  H   H3787     1.0  0.71133  0.19512  0.43838  1.0000
  Fe  Fe633     1.0  0.73501  0.23592  0.52010  1.0000
  N   N315      1.0  0.70443  0.24353  0.54891  1.0000
  C   C3780     1.0  0.73020  0.19504  0.37726  1.0000
  H   H3788     1.0  0.72647  0.22826  0.47158  1.0000
  H   H3789     1.0  0.71579  0.21639  0.56513  1.0000
  S   S1263     1.0  0.72612  0.22039  0.43271  1.0000
  C   C3781     1.0  0.73477  0.21487  0.48128  1.0000
  H   H3790     1.0  0.73195  0.18308  0.45308  1.0000
  H   H3791     1.0  0.71087  0.21265  0.46640  1.0000
  H   H3792     1.0  0.73010  0.26038  0.43049  1.0000
  C   C3782     1.0  0.73390  0.21576  0.46309  1.0000
  H   H3793     1.0  0.72209  0.19500  0.46541  1.0000
  C   C3783     1.0  0.73578  0.26542  0.42713  1.0000
  H   H3794     1.0  0.70645  0.28279  0.37967  1.0000
  H   H3795     1.0  0.72864  0.28491  0.56889  1.0000
  S   S1264     1.0  0.73050  0.22084  0.49242  1.0000
  C   C3784     1.0  0.70461  0.20881  0.44507  1.0000
  H   H3796     1.0  0.71140  0.23676  0.53539  1.0000
  C   C3785     1.0  0.69999  0.25381  0.54287  1.0000
  H   H3797     1.0  0.69140  0.25461  0.54366  1.0000
  Fe  Fe634     1.0  0.73955  0.20688  0.43642  1.0000
  H   H3798     1.0  0.69989  0.21269  0.43917  1.0000
  C   C3786     1.0  0.71421  0.22565  0.54965  1.0000
  C   C3787     1.0  0.71117  0.19887  0.44463  1.0000
  H   H3799     1.0  0.72435  0.21422  0.39111  1.0000
  S   S1265     1.0  0.68938  0.24248  0.38198  1.0000
  H   H3800     1.0  0.70854  0.26870  0.38324  1.0000
  C   C3788     1.0  0.71714  0.19881  0.45971  1.0000
  C   C3789     1.0  0.72592  0.21068  0.38435  1.0000
  C   C3790     1.0  0.69593  0.23295  0.39127  1.0000
  C   C3791     1.0  0.69576  0.22227  0.39306  1.0000
  C   C3792     1.0  0.70034  0.21496  0.40109  1.0000
  C   C3793     1.0  0.70546  0.21821  0.40708  1.0000
  C   C3794     1.0  0.70611  0.22879  0.40491  1.0000
  C   C3795     1.0  0.70119  0.23617  0.39715  1.0000
  H   H3801     1.0  0.69173  0.21971  0.38855  1.0000
  H   H3802     1.0  0.69984  0.20677  0.40270  1.0000
  H   H3803     1.0  0.71006  0.23137  0.40947  1.0000
  C   C3796     1.0  0.70244  0.27605  0.38183  1.0000
  C   C3797     1.0  0.72416  0.18357  0.45138  1.0000
  C   C3798     1.0  0.72052  0.26559  0.55203  1.0000
  C   C3799     1.0  0.71984  0.27214  0.54216  1.0000
  C   C3800     1.0  0.72208  0.26785  0.53325  1.0000
  C   C3801     1.0  0.72533  0.25696  0.53401  1.0000
  C   C3802     1.0  0.72656  0.25032  0.54380  1.0000
  C   C3803     1.0  0.72395  0.25464  0.55288  1.0000
  H   H3804     1.0  0.71726  0.28059  0.54143  1.0000
  H   H3805     1.0  0.72112  0.27302  0.52573  1.0000
  H   H3806     1.0  0.72914  0.24190  0.54443  1.0000
  H   H3807     1.0  0.72457  0.24957  0.56051  1.0000
  H   H3808     1.0  0.72031  0.17746  0.45725  1.0000
  H   H3809     1.0  0.70142  0.24441  0.39575  1.0000
  H   H3810     1.0  0.71870  0.21930  0.54568  1.0000
  C   C3804     1.0  0.71002  0.23550  0.54390  1.0000
  H   H3811     1.0  0.68871  0.26448  0.38329  1.0000
  H   H3812     1.0  0.73253  0.23059  0.56421  1.0000
  Fe  Fe635     1.0  0.73854  0.22688  0.41967  1.0000
  C   C3805     1.0  0.73690  0.27065  0.41658  1.0000
  H   H3813     1.0  0.73568  0.21640  0.56744  1.0000
  H   H3814     1.0  0.70536  0.23096  0.57414  1.0000
  C   C3806     1.0  0.73888  0.22352  0.56309  1.0000
  H   H3815     1.0  0.74043  0.19563  0.56776  1.0000
  C   C3807     1.0  0.72824  0.19969  0.38587  1.0000
  S   S1266     1.0  0.73808  0.20325  0.54613  1.0000
  H   H3816     1.0  0.73208  0.26972  0.41174  1.0000
  H   H3817     1.0  0.73208  0.18650  0.37830  1.0000
  C   C3808     1.0  0.73988  0.20547  0.46353  1.0000
  Fe  Fe636     1.0  0.71992  0.10105  0.75245  1.0000
  S   S1267     1.0  0.70438  0.09774  0.76225  1.0000
  H   H3818     1.0  0.69523  0.25610  0.64830  1.0000
  Fe  Fe637     1.0  0.71225  0.10642  0.73216  1.0000
  S   S1268     1.0  0.69597  0.10378  0.74011  1.0000
  S   S1269     1.0  0.71822  0.10923  0.71470  1.0000
  Fe  Fe638     1.0  0.69717  0.11245  0.75170  1.0000
  S   S1270     1.0  0.68451  0.12456  0.75948  1.0000
  Fe  Fe639     1.0  0.70457  0.08941  0.74980  1.0000
  S   S1271     1.0  0.69901  0.07417  0.75404  1.0000
  S   S1272     1.0  0.71281  0.11639  0.74286  1.0000
  S   S1273     1.0  0.72068  0.09138  0.74096  1.0000
  H   H3819     1.0  0.72423  0.27732  0.58181  1.0000
  H   H3820     1.0  0.66628  0.26623  0.64964  1.0000
  N   N316      1.0  0.59347  0.20826  0.76771  1.0000
  C   C3809     1.0  0.65001  0.26125  0.73837  1.0000
  C   C3810     1.0  0.73465  0.35451  0.75620  1.0000
  C   C3811     1.0  0.73668  0.20883  0.59284  1.0000
  H   H3821     1.0  0.51285  0.23037  0.71144  1.0000
  N   N317      1.0  0.72684  0.07776  0.70000  1.0000
  H   H3822     1.0  0.71553  0.98371  0.70751  1.0000
  H   H3823     1.0  0.73905  0.14097  0.76111  1.0000
  C   C3812     1.0  0.70271  0.39480  0.76385  1.0000
  Fe  Fe640     1.0  0.69494  0.38249  0.73348  1.0000
  S   S1274     1.0  0.70847  0.37825  0.72045  1.0000
  S   S1275     1.0  0.69344  0.39677  0.74015  1.0000
  Fe  Fe641     1.0  0.68491  0.36400  0.73385  1.0000
  S   S1276     1.0  0.69797  0.35840  0.72101  1.0000
  S   S1277     1.0  0.67119  0.35564  0.74111  1.0000
  Fe  Fe642     1.0  0.70855  0.36163  0.72956  1.0000
  S   S1278     1.0  0.72401  0.35119  0.73225  1.0000
  Fe  Fe643     1.0  0.69637  0.37555  0.71344  1.0000
  S   S1279     1.0  0.69421  0.38207  0.69691  1.0000
  S   S1280     1.0  0.69567  0.36598  0.74312  1.0000
  S   S1281     1.0  0.68263  0.38112  0.72572  1.0000
  C   C3813     1.0  0.50927  0.22136  0.72732  1.0000
  C   C3814     1.0  0.70598  0.37698  0.76066  1.0000
  H   H3824     1.0  0.73865  0.23169  0.57913  1.0000
  Fe  Fe644     1.0  0.55423  0.26717  0.74955  1.0000
  H   H3825     1.0  0.68426  0.27639  0.61516  1.0000
  H   H3826     1.0  0.65919  0.30114  0.75506  1.0000
  H   H3827     1.0  0.65551  0.11626  0.75705  1.0000
  C   C3815     1.0  0.74025  0.18349  0.61785  1.0000
  H   H3828     1.0  0.71414  0.05810  0.71384  1.0000
  S   S1282     1.0  0.73479  0.09821  0.75846  1.0000
  C   C3816     1.0  0.71692  0.40219  0.76446  1.0000
  H   H3829     1.0  0.67726  0.08690  0.75327  1.0000
  N   N318      1.0  0.64703  0.25319  0.74636  1.0000
  H   H3830     1.0  0.70923  0.08948  0.71880  1.0000
  C   C3817     1.0  0.72160  0.08534  0.70568  1.0000
  S   S1283     1.0  0.71690  0.44081  0.75268  1.0000
  Fe  Fe645     1.0  0.64868  0.31666  0.72160  1.0000
  S   S1284     1.0  0.65964  0.30152  0.71836  1.0000
  S   S1285     1.0  0.65665  0.33074  0.71548  1.0000
  Fe  Fe646     1.0  0.63007  0.30556  0.73174  1.0000
  S   S1286     1.0  0.63987  0.28972  0.72953  1.0000
  S   S1287     1.0  0.61290  0.30608  0.73984  1.0000
  Fe  Fe647     1.0  0.65204  0.29439  0.73465  1.0000
  S   S1288     1.0  0.66174  0.28227  0.74521  1.0000
  Fe  Fe648     1.0  0.64637  0.29834  0.71341  1.0000
  S   S1289     1.0  0.64954  0.29210  0.69867  1.0000
  S   S1290     1.0  0.64186  0.30965  0.73837  1.0000
  S   S1291     1.0  0.63586  0.31409  0.71519  1.0000
  Fe  Fe649     1.0  0.62736  0.25235  0.68475  1.0000
  S   S1292     1.0  0.63955  0.23917  0.67890  1.0000
  S   S1293     1.0  0.62612  0.25676  0.70005  1.0000
  Fe  Fe650     1.0  0.61492  0.25506  0.66820  1.0000
  S   S1294     1.0  0.62634  0.24232  0.66050  1.0000
  S   S1295     1.0  0.59949  0.26366  0.66351  1.0000
  Fe  Fe651     1.0  0.62614  0.23345  0.67712  1.0000
  S   S1296     1.0  0.62333  0.21704  0.68311  1.0000
  Fe  Fe652     1.0  0.63904  0.24918  0.66261  1.0000
  S   S1297     1.0  0.65599  0.24820  0.65330  1.0000
  S   S1298     1.0  0.61394  0.24564  0.68459  1.0000
  S   S1299     1.0  0.62757  0.26297  0.66875  1.0000
  Fe  Fe653     1.0  0.63541  0.16660  0.74433  1.0000
  S   S1300     1.0  0.62030  0.17223  0.75537  1.0000
  S   S1301     1.0  0.64314  0.14979  0.74259  1.0000
  Fe  Fe654     1.0  0.63745  0.18873  0.73321  1.0000
  S   S1302     1.0  0.62277  0.19636  0.74311  1.0000
  S   S1303     1.0  0.64726  0.19852  0.72037  1.0000
  Fe  Fe655     1.0  0.62853  0.18426  0.75645  1.0000
  C   C3818     1.0  0.73161  0.10945  0.71241  1.0000
  Fe  Fe656     1.0  0.61554  0.18401  0.74116  1.0000
  S   S1304     1.0  0.59821  0.18903  0.74044  1.0000
  S   S1305     1.0  0.64405  0.17765  0.74667  1.0000
  S   S1306     1.0  0.62987  0.17732  0.73000  1.0000
  Fe  Fe657     1.0  0.57799  0.26740  0.74261  1.0000
  S   S1307     1.0  0.58241  0.25295  0.75482  1.0000
  S   S1308     1.0  0.59140  0.27377  0.73064  1.0000
  Fe  Fe658     1.0  0.57054  0.24676  0.75068  1.0000
  S   S1309     1.0  0.57394  0.23052  0.74768  1.0000
  S   S1310     1.0  0.56737  0.26038  0.73739  1.0000
  Fe  Fe659     1.0  0.55194  0.23555  0.69427  1.0000
  S   S1311     1.0  0.55901  0.22685  0.70817  1.0000
  S   S1312     1.0  0.55494  0.25131  0.68444  1.0000
  Fe  Fe660     1.0  0.53844  0.21925  0.69713  1.0000
  S   S1313     1.0  0.54507  0.20873  0.71104  1.0000
  S   S1314     1.0  0.52548  0.21811  0.68962  1.0000
  Fe  Fe661     1.0  0.54282  0.22393  0.71603  1.0000
  S   S1315     1.0  0.53523  0.22664  0.73223  1.0000
  Fe  Fe662     1.0  0.56090  0.21244  0.70199  1.0000
  S   S1316     1.0  0.57747  0.20222  0.70024  1.0000
  S   S1317     1.0  0.53541  0.23418  0.70279  1.0000
  S   S1318     1.0  0.55461  0.22141  0.68743  1.0000
  Fe  Fe663     1.0  0.56847  0.26057  0.76561  1.0000
  C   C3819     1.0  0.57973  0.23213  0.66835  1.0000
  C   C3820     1.0  0.52824  0.25844  0.75280  1.0000
  C   C3821     1.0  0.64455  0.24488  0.74420  1.0000
  C   C3822     1.0  0.60113  0.22768  0.66815  1.0000
  C   C3823     1.0  0.67927  0.27050  0.63187  1.0000
  C   C3824     1.0  0.59957  0.21164  0.68185  1.0000
  S   S1319     1.0  0.56462  0.27555  0.75366  1.0000
  H   H3831     1.0  0.70335  0.26934  0.61531  1.0000
  H   H3832     1.0  0.69439  0.39571  0.76413  1.0000
  H   H3833     1.0  0.51432  0.18447  0.69553  1.0000
  H   H3834     1.0  0.52068  0.28770  0.76064  1.0000
  Fe  Fe664     1.0  0.69440  0.25751  0.59865  1.0000
  S   S1320     1.0  0.70446  0.26968  0.59319  1.0000
  S   S1321     1.0  0.67685  0.26270  0.60505  1.0000
  Fe  Fe665     1.0  0.71288  0.24019  0.59219  1.0000
  S   S1322     1.0  0.71916  0.22392  0.58892  1.0000
  Fe  Fe666     1.0  0.71622  0.25716  0.60116  1.0000
  C   C3825     1.0  0.67201  0.32086  0.75139  1.0000
  S   S1323     1.0  0.70575  0.24538  0.60757  1.0000
  S   S1324     1.0  0.70070  0.25133  0.58369  1.0000
  C   C3826     1.0  0.72925  0.21760  0.59582  1.0000
  C   C3827     1.0  0.71335  0.08341  0.71433  1.0000
  H   H3835     1.0  0.49603  0.18791  0.69308  1.0000
  C   C3828     1.0  0.51942  0.25389  0.75489  1.0000
  H   H3836     1.0  0.72470  0.22858  0.60608  1.0000
  C   C3829     1.0  0.72213  0.28139  0.60423  1.0000
  C   C3830     1.0  0.74004  0.33762  0.58492  1.0000
  H   H3837     1.0  0.71579  0.28066  0.60116  1.0000
  H   H3838     1.0  0.70555  0.37089  0.76810  1.0000
  N   N319      1.0  0.59494  0.22095  0.67468  1.0000
  H   H3839     1.0  0.59539  0.20512  0.68340  1.0000
  S   S1325     1.0  0.72595  0.25974  0.61111  1.0000
  H   H3840     1.0  0.72867  0.06193  0.69857  1.0000
  H   H3841     1.0  0.59187  0.19481  0.76324  1.0000
  C   C3831     1.0  0.51255  0.21602  0.69588  1.0000
  C   C3832     1.0  0.51084  0.20789  0.70471  1.0000
  C   C3833     1.0  0.50101  0.20487  0.70810  1.0000
  H   H3842     1.0  0.67282  0.32654  0.75537  1.0000
  H   H3843     1.0  0.62946  0.28665  0.77238  1.0000
  C   C3834     1.0  0.50409  0.22148  0.69090  1.0000
  H   H3844     1.0  0.51729  0.20352  0.70856  1.0000
  H   H3845     1.0  0.49996  0.19823  0.71462  1.0000
  C   C3835     1.0  0.52838  0.26836  0.74615  1.0000
  H   H3846     1.0  0.50532  0.22776  0.68403  1.0000
  C   C3836     1.0  0.51103  0.26882  0.74321  1.0000
  C   C3837     1.0  0.51982  0.27343  0.74120  1.0000
  C   C3838     1.0  0.64461  0.24472  0.73384  1.0000
  H   H3847     1.0  0.51985  0.28114  0.73607  1.0000
  C   C3839     1.0  0.56290  0.22876  0.74432  1.0000
  C   C3840     1.0  0.56398  0.22082  0.73900  1.0000
  C   C3841     1.0  0.55536  0.21996  0.73554  1.0000
  C   C3842     1.0  0.54558  0.22679  0.73772  1.0000
  C   C3843     1.0  0.54437  0.23436  0.74352  1.0000
  C   C3844     1.0  0.55307  0.23550  0.74660  1.0000
  H   H3848     1.0  0.57151  0.21550  0.73735  1.0000
  H   H3849     1.0  0.55626  0.21401  0.73118  1.0000
  H   H3850     1.0  0.53681  0.23955  0.74532  1.0000
  H   H3851     1.0  0.55214  0.24164  0.75069  1.0000
  H   H3852     1.0  0.69724  0.40413  0.71665  1.0000
  C   C3845     1.0  0.64696  0.25327  0.75723  1.0000
  C   C3846     1.0  0.59284  0.19262  0.72902  1.0000
  C   C3847     1.0  0.59912  0.19223  0.71894  1.0000
  C   C3848     1.0  0.59438  0.19512  0.71014  1.0000
  C   C3849     1.0  0.58337  0.19863  0.71132  1.0000
  C   C3850     1.0  0.57716  0.19914  0.72136  1.0000
  C   C3851     1.0  0.58186  0.19606  0.73016  1.0000
  H   H3853     1.0  0.60759  0.18955  0.71798  1.0000
  H   H3854     1.0  0.59925  0.19459  0.70242  1.0000
  H   H3855     1.0  0.56869  0.20163  0.72238  1.0000
  H   H3856     1.0  0.57693  0.19628  0.73793  1.0000
  C   C3852     1.0  0.66108  0.25134  0.63957  1.0000
  C   C3853     1.0  0.65519  0.25863  0.63262  1.0000
  C   C3854     1.0  0.66005  0.26183  0.62198  1.0000
  C   C3855     1.0  0.67078  0.25775  0.61820  1.0000
  C   C3856     1.0  0.67657  0.25025  0.62510  1.0000
  C   C3857     1.0  0.67176  0.24712  0.63574  1.0000
  H   H3857     1.0  0.64699  0.26200  0.63550  1.0000
  H   H3858     1.0  0.65551  0.26763  0.61668  1.0000
  H   H3859     1.0  0.68481  0.24702  0.62231  1.0000
  H   H3860     1.0  0.67637  0.24148  0.64106  1.0000
  C   C3858     1.0  0.63011  0.21147  0.69330  1.0000
  C   C3859     1.0  0.64030  0.21295  0.69205  1.0000
  C   C3860     1.0  0.64549  0.20914  0.70046  1.0000
  C   C3861     1.0  0.64048  0.20385  0.71012  1.0000
  C   C3862     1.0  0.63029  0.20233  0.71137  1.0000
  C   C3863     1.0  0.62515  0.20602  0.70291  1.0000
  H   H3861     1.0  0.64426  0.21690  0.68453  1.0000
  H   H3862     1.0  0.65340  0.21027  0.69945  1.0000
  H   H3863     1.0  0.62628  0.19845  0.71887  1.0000
  H   H3864     1.0  0.61725  0.20489  0.70389  1.0000
  C   C3864     1.0  0.58731  0.26008  0.67030  1.0000
  C   C3865     1.0  0.57826  0.26598  0.66662  1.0000
  C   C3866     1.0  0.56846  0.26324  0.67120  1.0000
  C   C3867     1.0  0.56753  0.25446  0.67948  1.0000
  C   C3868     1.0  0.57651  0.24858  0.68341  1.0000
  C   C3869     1.0  0.58641  0.25142  0.67884  1.0000
  H   H3865     1.0  0.57884  0.27268  0.66008  1.0000
  H   H3866     1.0  0.56158  0.26787  0.66816  1.0000
  H   H3867     1.0  0.57586  0.24181  0.68985  1.0000
  H   H3868     1.0  0.59332  0.24674  0.68173  1.0000
  C   C3870     1.0  0.64341  0.28190  0.69923  1.0000
  C   C3871     1.0  0.63641  0.27817  0.70834  1.0000
  C   C3872     1.0  0.63145  0.27018  0.70859  1.0000
  C   C3873     1.0  0.63326  0.26603  0.69966  1.0000
  C   C3874     1.0  0.64032  0.26965  0.69053  1.0000
  C   C3875     1.0  0.64544  0.27755  0.69035  1.0000
  H   H3869     1.0  0.63469  0.28152  0.71516  1.0000
  H   H3870     1.0  0.62607  0.26729  0.71567  1.0000
  H   H3871     1.0  0.64179  0.26642  0.68361  1.0000
  H   H3872     1.0  0.65087  0.28038  0.68328  1.0000
  C   C3876     1.0  0.60682  0.29719  0.73727  1.0000
  C   C3877     1.0  0.59670  0.29592  0.74302  1.0000
  C   C3878     1.0  0.59194  0.28856  0.74130  1.0000
  C   C3879     1.0  0.59726  0.28252  0.73373  1.0000
  C   C3880     1.0  0.60735  0.28380  0.72803  1.0000
  C   C3881     1.0  0.61209  0.29112  0.72974  1.0000
  H   H3873     1.0  0.59251  0.30068  0.74878  1.0000
  H   H3874     1.0  0.58407  0.28775  0.74564  1.0000
  H   H3875     1.0  0.61148  0.27920  0.72216  1.0000
  H   H3876     1.0  0.61975  0.29220  0.72507  1.0000
  H   H3877     1.0  0.64174  0.19925  0.75576  1.0000
  C   C3882     1.0  0.65391  0.27896  0.75773  1.0000
  H   H3878     1.0  0.66591  0.26596  0.76319  1.0000
  H   H3879     1.0  0.64167  0.24832  0.76300  1.0000
  C   C3883     1.0  0.72406  0.29141  0.60319  1.0000
  C   C3884     1.0  0.67784  0.09351  0.76597  1.0000
  H   H3880     1.0  0.72572  0.37724  0.76039  1.0000
  S   S1326     1.0  0.53842  0.27517  0.74485  1.0000
  H   H3881     1.0  0.53474  0.25444  0.75667  1.0000
  C   C3885     1.0  0.71423  0.41237  0.70892  1.0000
  C   C3886     1.0  0.66771  0.34798  0.73427  1.0000
  C   C3887     1.0  0.65880  0.34349  0.73883  1.0000
  C   C3888     1.0  0.65559  0.33769  0.73340  1.0000
  C   C3889     1.0  0.66121  0.33648  0.72330  1.0000
  C   C3890     1.0  0.67023  0.34079  0.71885  1.0000
  C   C3891     1.0  0.67348  0.34649  0.72430  1.0000
  H   H3882     1.0  0.65427  0.34460  0.74655  1.0000
  H   H3883     1.0  0.64857  0.33449  0.73688  1.0000
  H   H3884     1.0  0.67460  0.33993  0.71101  1.0000
  H   H3885     1.0  0.68032  0.34992  0.72066  1.0000
  C   C3892     1.0  0.70586  0.38395  0.68769  1.0000
  C   C3893     1.0  0.71582  0.37910  0.69001  1.0000
  C   C3894     1.0  0.72500  0.38118  0.68256  1.0000
  C   C3895     1.0  0.72416  0.38826  0.67292  1.0000
  C   C3896     1.0  0.71420  0.39310  0.67069  1.0000
  C   C3897     1.0  0.70509  0.39085  0.67799  1.0000
  H   H3886     1.0  0.71645  0.37371  0.69749  1.0000
  S   S1327     1.0  0.62585  0.18942  0.77170  1.0000
  H   H3887     1.0  0.71353  0.39857  0.66326  1.0000
  H   H3888     1.0  0.69741  0.39464  0.67618  1.0000
  C   C3898     1.0  0.72511  0.35122  0.74491  1.0000
  C   C3899     1.0  0.71665  0.34987  0.75347  1.0000
  C   C3900     1.0  0.71709  0.35108  0.76334  1.0000
  C   C3901     1.0  0.73543  0.10713  0.76555  1.0000
  C   C3902     1.0  0.50682  0.22727  0.71774  1.0000
  Fe  Fe667     1.0  0.72852  0.45095  0.75124  1.0000
  H   H3889     1.0  0.70975  0.34789  0.75248  1.0000
  C   C3903     1.0  0.51176  0.19065  0.68912  1.0000
  H   H3890     1.0  0.72962  0.28871  0.58029  1.0000
  S   S1328     1.0  0.72532  0.46893  0.74781  1.0000
  C   C3904     1.0  0.70404  0.40304  0.73816  1.0000
  C   C3905     1.0  0.70197  0.41271  0.74119  1.0000
  C   C3906     1.0  0.71014  0.41797  0.73980  1.0000
  C   C3907     1.0  0.72048  0.41370  0.73516  1.0000
  C   C3908     1.0  0.72259  0.40399  0.73216  1.0000
  C   C3909     1.0  0.71443  0.39862  0.73374  1.0000
  H   H3891     1.0  0.69397  0.41619  0.74464  1.0000
  H   H3892     1.0  0.70839  0.42547  0.74207  1.0000
  H   H3893     1.0  0.73708  0.03178  0.74135  1.0000
  H   H3894     1.0  0.71617  0.39112  0.73149  1.0000
  H   H3895     1.0  0.59988  0.20302  0.75341  1.0000
  H   H3896     1.0  0.71900  0.11483  0.76739  1.0000
  C   C3910     1.0  0.73585  0.10983  0.72067  1.0000
  Fe  Fe668     1.0  0.73052  0.43089  0.74336  1.0000
  H   H3897     1.0  0.71222  0.40102  0.69042  1.0000
  H   H3898     1.0  0.71920  0.29835  0.59928  1.0000
  C   C3911     1.0  0.69908  0.40615  0.70788  1.0000
  C   C3912     1.0  0.73419  0.35333  0.74634  1.0000
  C   C3913     1.0  0.72970  0.33745  0.61759  1.0000
  H   H3899     1.0  0.59226  0.28267  0.76387  1.0000
  C   C3914     1.0  0.49419  0.21857  0.69439  1.0000
  C   C3915     1.0  0.67373  0.13227  0.75383  1.0000
  C   C3916     1.0  0.67132  0.12987  0.74539  1.0000
  C   C3917     1.0  0.66197  0.13540  0.74192  1.0000
  C   C3918     1.0  0.65516  0.14355  0.74664  1.0000
  C   C3919     1.0  0.65780  0.14623  0.75478  1.0000
  C   C3920     1.0  0.66699  0.14051  0.75845  1.0000
  H   H3900     1.0  0.67647  0.12355  0.74178  1.0000
  H   H3901     1.0  0.65997  0.13330  0.73560  1.0000
  H   H3902     1.0  0.65259  0.15247  0.75848  1.0000
  H   H3903     1.0  0.73232  0.39194  0.76246  1.0000
  C   C3921     1.0  0.70525  0.06341  0.74782  1.0000
  C   C3922     1.0  0.71518  0.06269  0.74087  1.0000
  C   C3923     1.0  0.71952  0.05389  0.73603  1.0000
  C   C3924     1.0  0.71389  0.04588  0.73815  1.0000
  C   C3925     1.0  0.70411  0.04664  0.74519  1.0000
  C   C3926     1.0  0.69985  0.05530  0.74998  1.0000
  H   H3904     1.0  0.71945  0.06890  0.73920  1.0000
  C   C3927     1.0  0.73909  0.36285  0.70970  1.0000
  H   H3905     1.0  0.69974  0.04048  0.74693  1.0000
  H   H3906     1.0  0.69224  0.05572  0.75536  1.0000
  H   H3907     1.0  0.73871  0.41135  0.69308  1.0000
  H   H3908     1.0  0.50295  0.28931  0.75732  1.0000
  C   C3928     1.0  0.57918  0.22234  0.77267  1.0000
  N   N320      1.0  0.64879  0.17637  0.70330  1.0000
  C   C3929     1.0  0.65586  0.17958  0.70674  1.0000
  C   C3930     1.0  0.64615  0.16681  0.70795  1.0000
  C   C3931     1.0  0.66032  0.17324  0.71519  1.0000
  C   C3932     1.0  0.65064  0.16018  0.71627  1.0000
  C   C3933     1.0  0.65769  0.16347  0.71996  1.0000
  C   C3934     1.0  0.64370  0.18327  0.69480  1.0000
  H   H3909     1.0  0.65786  0.18722  0.70320  1.0000
  H   H3910     1.0  0.64039  0.16435  0.70537  1.0000
  H   H3911     1.0  0.66555  0.17604  0.71819  1.0000
  H   H3912     1.0  0.64838  0.15268  0.72009  1.0000
  H   H3913     1.0  0.66093  0.15855  0.72667  1.0000
  H   H3914     1.0  0.64486  0.17908  0.68839  1.0000
  H   H3915     1.0  0.63511  0.18581  0.69794  1.0000
  H   H3916     1.0  0.64695  0.19051  0.69130  1.0000
  H   H3917     1.0  0.73056  0.40061  0.72858  1.0000
  H   H3918     1.0  0.71045  0.35022  0.76990  1.0000
  H   H3919     1.0  0.64249  0.23833  0.75051  1.0000
  C   C3935     1.0  0.71571  0.40445  0.69470  1.0000
  H   H3920     1.0  0.71179  0.46451  0.77216  1.0000
  H   H3921     1.0  0.73130  0.34423  0.61970  1.0000
  H   H3922     1.0  0.67097  0.27349  0.63171  1.0000
  H   H3923     1.0  0.73270  0.37742  0.68430  1.0000
  C   C3936     1.0  0.58434  0.22317  0.67499  1.0000
  H   H3924     1.0  0.70958  0.41513  0.71597  1.0000
  H   H3925     1.0  0.73463  0.08844  0.68745  1.0000
  H   H3926     1.0  0.65506  0.25017  0.75876  1.0000
  C   C3937     1.0  0.73639  0.27350  0.61349  1.0000
  C   C3938     1.0  0.49653  0.22908  0.71627  1.0000
  H   H3927     1.0  0.69771  0.39960  0.70519  1.0000
  C   C3939     1.0  0.50142  0.21733  0.73528  1.0000
  H   H3928     1.0  0.66881  0.14240  0.76498  1.0000
  Fe  Fe669     1.0  0.73273  0.03082  0.71973  1.0000
  H   H3929     1.0  0.71142  0.37338  0.75415  1.0000
  C   C3940     1.0  0.73557  0.07988  0.69107  1.0000
  C   C3941     1.0  0.72400  0.39282  0.76275  1.0000
  C   C3942     1.0  0.72463  0.41375  0.70519  1.0000
  C   C3943     1.0  0.69281  0.26069  0.64108  1.0000
  C   C3944     1.0  0.72599  0.35365  0.76464  1.0000
  C   C3945     1.0  0.58603  0.23890  0.66147  1.0000
  C   C3946     1.0  0.58334  0.21378  0.76770  1.0000
  H   H3930     1.0  0.73546  0.35704  0.70821  1.0000
  C   C3947     1.0  0.71053  0.07363  0.71718  1.0000
  C   C3948     1.0  0.52052  0.27272  0.77151  1.0000
  H   H3931     1.0  0.70417  0.07200  0.72390  1.0000
  N   N321      1.0  0.59485  0.22994  0.71842  1.0000
  C   C3949     1.0  0.58927  0.23853  0.72257  1.0000
  C   C3950     1.0  0.60537  0.22906  0.71394  1.0000
  C   C3951     1.0  0.59421  0.24656  0.72226  1.0000
  C   C3952     1.0  0.61054  0.23698  0.71342  1.0000
  C   C3953     1.0  0.60491  0.24576  0.71765  1.0000
  C   C3954     1.0  0.58969  0.22131  0.71943  1.0000
  H   H3932     1.0  0.58096  0.23917  0.72624  1.0000
  H   H3933     1.0  0.60984  0.22222  0.71076  1.0000
  H   H3934     1.0  0.58981  0.25331  0.72566  1.0000
  H   H3935     1.0  0.61887  0.23630  0.70978  1.0000
  H   H3936     1.0  0.60883  0.25192  0.71741  1.0000
  H   H3937     1.0  0.59014  0.21575  0.72715  1.0000
  H   H3938     1.0  0.58124  0.22431  0.71898  1.0000
  H   H3939     1.0  0.59349  0.21687  0.71305  1.0000
  C   C3955     1.0  0.50472  0.20697  0.67339  1.0000
  C   C3956     1.0  0.65017  0.26133  0.72792  1.0000
  H   H3940     1.0  0.58249  0.24609  0.65657  1.0000
  C   C3957     1.0  0.72649  0.11437  0.76922  1.0000
  S   S1329     1.0  0.73531  0.39167  0.66370  1.0000
  N   N322      1.0  0.68235  0.26481  0.64101  1.0000
  H   H3941     1.0  0.51722  0.21996  0.72859  1.0000
  C   C3958     1.0  0.69744  0.26810  0.62250  1.0000
  H   H3942     1.0  0.72424  0.32655  0.60693  1.0000
  C   C3959     1.0  0.73034  0.22177  0.60381  1.0000
  H   H3943     1.0  0.65243  0.26780  0.72160  1.0000
  H   H3944     1.0  0.64254  0.23818  0.73215  1.0000
  C   C3960     1.0  0.65793  0.27042  0.76516  1.0000
  S   S1330     1.0  0.55683  0.25302  0.76265  1.0000
  H   H3945     1.0  0.72711  0.05335  0.73064  1.0000
  C   C3961     1.0  0.66535  0.31383  0.75649  1.0000
  C   C3962     1.0  0.72613  0.40570  0.69073  1.0000
  H   H3946     1.0  0.72466  0.99770  0.70698  1.0000
  H   H3947     1.0  0.69807  0.37964  0.75864  1.0000
  C   C3963     1.0  0.73841  0.28350  0.61233  1.0000
  S   S1331     1.0  0.73157  0.03006  0.70358  1.0000
  C   C3964     1.0  0.59776  0.19968  0.76199  1.0000
  H   H3948     1.0  0.64742  0.25305  0.71760  1.0000
  C   C3965     1.0  0.63903  0.20339  0.76217  1.0000
  C   C3966     1.0  0.63105  0.20039  0.77070  1.0000
  C   C3967     1.0  0.73870  0.21706  0.60900  1.0000
  S   S1332     1.0  0.73438  0.30514  0.60588  1.0000
  S   S1333     1.0  0.64759  0.22565  0.77132  1.0000
  H   H3949     1.0  0.73416  0.33009  0.62187  1.0000
  H   H3950     1.0  0.72799  0.41746  0.70939  1.0000
  H   H3951     1.0  0.60164  0.24220  0.65643  1.0000
  H   H3952     1.0  0.50432  0.27302  0.73969  1.0000
  C   C3968     1.0  0.74020  0.98876  0.70183  1.0000
  C   C3969     1.0  0.66587  0.10971  0.76804  1.0000
  C   C3970     1.0  0.64386  0.21144  0.76219  1.0000
  H   H3953     1.0  0.67518  0.25449  0.65425  1.0000
  C   C3971     1.0  0.72920  0.99032  0.70492  1.0000
  C   C3972     1.0  0.73297  0.33140  0.59128  1.0000
  H   H3954     1.0  0.65227  0.26768  0.74005  1.0000
  C   C3973     1.0  0.72433  0.06804  0.70291  1.0000
  H   H3955     1.0  0.59905  0.21368  0.68945  1.0000
  H   H3956     1.0  0.64406  0.26139  0.75870  1.0000
  H   H3957     1.0  0.50486  0.26077  0.72738  1.0000
  N   N323      1.0  0.73301  0.33787  0.60624  1.0000
  N   N324      1.0  0.65952  0.36969  0.71476  1.0000
  C   C3974     1.0  0.65423  0.36353  0.71241  1.0000
  C   C3975     1.0  0.66847  0.37230  0.70798  1.0000
  C   C3976     1.0  0.65805  0.35957  0.70320  1.0000
  C   C3977     1.0  0.67252  0.36846  0.69872  1.0000
  C   C3978     1.0  0.66728  0.36202  0.69635  1.0000
  C   C3979     1.0  0.65531  0.37386  0.72439  1.0000
  H   H3958     1.0  0.64721  0.36135  0.71783  1.0000
  H   H3959     1.0  0.67262  0.37729  0.70973  1.0000
  H   H3960     1.0  0.65406  0.35432  0.70160  1.0000
  H   H3961     1.0  0.67973  0.37043  0.69347  1.0000
  H   H3962     1.0  0.67042  0.35885  0.68927  1.0000
  H   H3963     1.0  0.65147  0.36813  0.73088  1.0000
  H   H3964     1.0  0.66173  0.37521  0.72730  1.0000
  H   H3965     1.0  0.64951  0.38140  0.72288  1.0000
  N   N325      1.0  0.67621  0.31384  0.73579  1.0000
  C   C3980     1.0  0.66980  0.30685  0.74077  1.0000
  C   C3981     1.0  0.67747  0.32072  0.74100  1.0000
  C   C3982     1.0  0.73161  0.47597  0.75286  1.0000
  H   H3966     1.0  0.52647  0.19592  0.68391  1.0000
  C   C3983     1.0  0.72951  0.33164  0.60198  1.0000
  C   C3984     1.0  0.68176  0.31380  0.72484  1.0000
  H   H3967     1.0  0.66892  0.30134  0.73668  1.0000
  H   H3968     1.0  0.68252  0.32630  0.73708  1.0000
  N   N326      1.0  0.50517  0.26560  0.77429  1.0000
  C   C3985     1.0  0.63738  0.28208  0.77036  1.0000
  S   S1334     1.0  0.73362  0.44192  0.76623  1.0000
  H   H3969     1.0  0.67598  0.31495  0.71986  1.0000
  H   H3970     1.0  0.68617  0.32026  0.72148  1.0000
  H   H3971     1.0  0.68741  0.30615  0.72436  1.0000
  N   N327      1.0  0.60491  0.28235  0.69790  1.0000
  C   C3986     1.0  0.60173  0.28937  0.70439  1.0000
  C   C3987     1.0  0.61361  0.28292  0.68989  1.0000
  C   C3988     1.0  0.60768  0.29682  0.70334  1.0000
  C   C3989     1.0  0.61969  0.29032  0.68855  1.0000
  C   C3990     1.0  0.61680  0.29717  0.69546  1.0000
  C   C3991     1.0  0.59874  0.27443  0.69924  1.0000
  H   H3972     1.0  0.59471  0.28906  0.71064  1.0000
  H   H3973     1.0  0.61609  0.27740  0.68469  1.0000
  H   H3974     1.0  0.60535  0.30209  0.70878  1.0000
  H   H3975     1.0  0.62679  0.29051  0.68241  1.0000
  H   H3976     1.0  0.62170  0.30266  0.69475  1.0000
  H   H3977     1.0  0.60400  0.26695  0.69739  1.0000
  H   H3978     1.0  0.59434  0.27250  0.70753  1.0000
  H   H3979     1.0  0.59306  0.27739  0.69393  1.0000
  H   H3980     1.0  0.66271  0.10150  0.74757  1.0000
  C   C3992     1.0  0.73817  0.10890  0.70249  1.0000
  C   C3993     1.0  0.51069  0.25912  0.75027  1.0000
  H   H3981     1.0  0.70068  0.41041  0.76656  1.0000
  H   H3982     1.0  0.73269  0.36828  0.71397  1.0000
  C   C3994     1.0  0.73220  0.29248  0.60723  1.0000
  H   H3983     1.0  0.57937  0.21805  0.68048  1.0000
  C   C3995     1.0  0.50142  0.19265  0.68770  1.0000
  H   H3984     1.0  0.72375  0.09296  0.70353  1.0000
  H   H3985     1.0  0.51929  0.24633  0.76028  1.0000
  N   N328      1.0  0.70999  0.40753  0.70382  1.0000
  C   C3996     1.0  0.66574  0.10147  0.75427  1.0000
  H   H3986     1.0  0.52027  0.21043  0.66976  1.0000
  H   H3987     1.0  0.60784  0.20686  0.77233  1.0000
  H   H3988     1.0  0.67562  0.26697  0.65666  1.0000
  H   H3989     1.0  0.70883  0.25899  0.63181  1.0000
  C   C3997     1.0  0.66166  0.10971  0.75961  1.0000
  C   C3998     1.0  0.64738  0.25304  0.72567  1.0000
  H   H3990     1.0  0.60799  0.20861  0.67845  1.0000
  C   C3999     1.0  0.67450  0.26308  0.65087  1.0000
  H   H3991     1.0  0.69353  0.41352  0.70515  1.0000
  H   H3992     1.0  0.57127  0.23403  0.66881  1.0000
  C   C4000     1.0  0.70051  0.26229  0.63183  1.0000
  Fe  Fe670     1.0  0.72345  0.43102  0.76677  1.0000
  N   N329      1.0  0.70973  0.38573  0.76190  1.0000
  C   C4001     1.0  0.72023  0.38458  0.76156  1.0000
  C   C4002     1.0  0.66428  0.30672  0.75118  1.0000
  H   H3993     1.0  0.52841  0.27182  0.77268  1.0000
  C   C4003     1.0  0.51510  0.20521  0.67462  1.0000
  H   H3994     1.0  0.62149  0.27717  0.76068  1.0000
  H   H3995     1.0  0.73091  0.11016  0.72835  1.0000
  C   C4004     1.0  0.59543  0.27880  0.77087  1.0000
  C   C4005     1.0  0.64359  0.28471  0.76029  1.0000
  C   C4006     1.0  0.68676  0.27218  0.62247  1.0000
  N   N330      1.0  0.60602  0.27698  0.77044  1.0000
  C   C4007     1.0  0.59679  0.23671  0.66140  1.0000
  C   C4008     1.0  0.51616  0.28167  0.76475  1.0000
  C   C4009     1.0  0.71610  0.06584  0.71151  1.0000
  C   C4010     1.0  0.50623  0.28255  0.76285  1.0000
  H   H3996     1.0  0.57121  0.22684  0.77240  1.0000
  S   S1335     1.0  0.49913  0.25384  0.75469  1.0000
  H   H3997     1.0  0.64039  0.29122  0.75457  1.0000
  H   H3998     1.0  0.60945  0.22616  0.66822  1.0000
  H   H3999     1.0  0.65032  0.21345  0.75580  1.0000
  S   S1336     1.0  0.72450  0.25070  0.58675  1.0000
  C   C4011     1.0  0.72827  0.27241  0.60943  1.0000
  H   H4000     1.0  0.57848  0.21173  0.76361  1.0000
  N   N331      1.0  0.67376  0.10160  0.77121  1.0000
  H   H4001     1.0  0.72111  0.33761  0.62033  1.0000
  C   C4012     1.0  0.70620  0.40315  0.76516  1.0000
  H   H4002     1.0  0.66102  0.31388  0.76452  1.0000
  N   N332      1.0  0.52026  0.25514  0.71912  1.0000
  C   C4013     1.0  0.52790  0.25302  0.72480  1.0000
  C   C4014     1.0  0.52239  0.25911  0.70849  1.0000
  C   C4015     1.0  0.53812  0.25443  0.71980  1.0000
  C   C4016     1.0  0.53253  0.26063  0.70322  1.0000
  C   C4017     1.0  0.54045  0.25819  0.70892  1.0000
  C   C4018     1.0  0.50963  0.25356  0.72456  1.0000
  H   H4003     1.0  0.52618  0.24996  0.73323  1.0000
  H   H4004     1.0  0.51630  0.26093  0.70400  1.0000
  H   H4005     1.0  0.54419  0.25246  0.72434  1.0000
  H   H4006     1.0  0.53433  0.26345  0.69474  1.0000
  H   H4007     1.0  0.54839  0.25912  0.70486  1.0000
  H   H4008     1.0  0.50555  0.25179  0.71927  1.0000
  H   H4009     1.0  0.50995  0.24683  0.73147  1.0000
  C   C4019     1.0  0.73063  0.41033  0.69606  1.0000
  H   H4010     1.0  0.50319  0.21287  0.74282  1.0000
  H   H4011     1.0  0.61130  0.27852  0.75385  1.0000
  H   H4012     1.0  0.71969  0.40866  0.76537  1.0000
  C   C4020     1.0  0.67388  0.09330  0.75745  1.0000
  S   S1337     1.0  0.73070  0.42070  0.73225  1.0000
  S   S1338     1.0  0.71841  0.03470  0.73238  1.0000
  H   H4013     1.0  0.68428  0.08719  0.76828  1.0000
  H   H4014     1.0  0.73493  0.10864  0.69607  1.0000
  H   H4015     1.0  0.73595  0.20566  0.58657  1.0000
  H   H4016     1.0  0.73593  0.07578  0.68480  1.0000
  H   H4017     1.0  0.61194  0.28939  0.75897  1.0000
  C   C4021     1.0  0.61305  0.28067  0.76052  1.0000
  H   H4018     1.0  0.73064  0.40312  0.68352  1.0000
  C   C4022     1.0  0.51860  0.19703  0.68258  1.0000
  H   H4019     1.0  0.49468  0.23377  0.70884  1.0000
  C   C4023     1.0  0.49272  0.20998  0.70279  1.0000
  N   N333      1.0  0.49799  0.20082  0.68000  1.0000
  H   H4020     1.0  0.73047  0.32611  0.58808  1.0000
  H   H4021     1.0  0.73940  0.22020  0.61532  1.0000
  C   C4024     1.0  0.64059  0.21661  0.77063  1.0000
  H   H4022     1.0  0.73561  0.19150  0.61716  1.0000
  C   C4025     1.0  0.72721  0.12094  0.77542  1.0000
  H   H4023     1.0  0.60489  0.19430  0.76458  1.0000
  C   C4026     1.0  0.59974  0.21111  0.77250  1.0000
  Fe  Fe671     1.0  0.71193  0.26217  0.57921  1.0000
  C   C4027     1.0  0.50082  0.27437  0.76769  1.0000
  H   H4024     1.0  0.65557  0.19007  0.77362  1.0000
  C   C4028     1.0  0.49121  0.21925  0.73351  1.0000
  H   H4025     1.0  0.59122  0.25171  0.77478  1.0000
  S   S1339     1.0  0.73630  0.42069  0.75752  1.0000
  C   C4029     1.0  0.74001  0.34393  0.60008  1.0000
  H   H4026     1.0  0.49332  0.27490  0.76579  1.0000
  H   H4027     1.0  0.66299  0.11640  0.77184  1.0000
  C   C4030     1.0  0.71220  0.47982  0.77404  1.0000
  H   H4028     1.0  0.50198  0.21350  0.66735  1.0000
  H   H4029     1.0  0.73450  0.18003  0.60598  1.0000
  C   C4031     1.0  0.71492  0.46880  0.77597  1.0000
  C   C4032     1.0  0.65158  0.26756  0.77511  1.0000
  C   C4033     1.0  0.73911  0.47075  0.75902  1.0000
  C   C4034     1.0  0.73963  0.17705  0.61158  1.0000
  C   C4035     1.0  0.73031  0.28181  0.57694  1.0000
  H   H4030     1.0  0.65146  0.26377  0.84366  1.0000
  C   C4036     1.0  0.63734  0.25168  0.83485  1.0000
  C   C4037     1.0  0.63218  0.21402  0.77881  1.0000
  H   H4031     1.0  0.63886  0.22599  0.84298  1.0000
  C   C4038     1.0  0.70303  0.22121  0.90553  1.0000
  H   H4032     1.0  0.72774  0.18830  0.84343  1.0000
  C   C4039     1.0  0.72369  0.26140  0.97073  1.0000
  Fe  Fe672     1.0  0.69482  0.21814  0.86837  1.0000
  S   S1340     1.0  0.67898  0.22918  0.87061  1.0000
  S   S1341     1.0  0.69623  0.20069  0.87402  1.0000
  Fe  Fe673     1.0  0.70637  0.23563  0.85836  1.0000
  S   S1342     1.0  0.69160  0.24827  0.85951  1.0000
  S   S1343     1.0  0.72263  0.23898  0.85239  1.0000
  Fe  Fe674     1.0  0.68728  0.23874  0.87587  1.0000
  S   S1344     1.0  0.67882  0.24546  0.89036  1.0000
  Fe  Fe675     1.0  0.68470  0.23762  0.85406  1.0000
  S   S1345     1.0  0.67493  0.24502  0.84142  1.0000
  S   S1346     1.0  0.70251  0.22684  0.87507  1.0000
  S   S1347     1.0  0.70000  0.22582  0.85148  1.0000
  H   H4033     1.0  0.68135  0.21099  0.89175  1.0000
  H   H4034     1.0  0.67004  0.20591  0.79351  1.0000
  S   S1348     1.0  0.72428  0.27332  0.87547  1.0000
  C   C4040     1.0  0.69943  0.20584  0.89758  1.0000
  N   N334      1.0  0.69138  0.21411  0.89992  1.0000
  H   H4035     1.0  0.72219  0.29922  0.96981  1.0000
  H   H4036     1.0  0.72244  0.22022  0.84668  1.0000
  H   H4037     1.0  0.72832  0.36391  0.82248  1.0000
  S   S1349     1.0  0.73751  0.12854  0.78583  1.0000
  Fe  Fe676     1.0  0.72045  0.27664  0.92702  1.0000
  S   S1350     1.0  0.70628  0.27262  0.93908  1.0000
  C   C4041     1.0  0.70553  0.28365  0.97228  1.0000
  Fe  Fe677     1.0  0.72979  0.25408  0.92563  1.0000
  S   S1351     1.0  0.71660  0.24808  0.93793  1.0000
  C   C4042     1.0  0.71768  0.29492  0.96757  1.0000
  Fe  Fe678     1.0  0.70636  0.26164  0.92901  1.0000
  S   S1352     1.0  0.69112  0.26128  0.92512  1.0000
  Fe  Fe679     1.0  0.71802  0.25957  0.94674  1.0000
  S   S1353     1.0  0.71704  0.25590  0.96446  1.0000
  S   S1354     1.0  0.71949  0.26696  0.91627  1.0000
  S   S1355     1.0  0.73221  0.26425  0.93514  1.0000
  Fe  Fe680     1.0  0.64262  0.23176  0.80828  1.0000
  S   S1356     1.0  0.65004  0.24013  0.79233  1.0000
  S   S1357     1.0  0.65176  0.22254  0.82101  1.0000
  Fe  Fe681     1.0  0.62100  0.23667  0.80227  1.0000
  H   H4038     1.0  0.62130  0.20361  0.78549  1.0000
  S   S1358     1.0  0.60419  0.23475  0.80778  1.0000
  H   H4039     1.0  0.60654  0.26471  0.79581  1.0000
  C   C4043     1.0  0.62752  0.20584  0.77891  1.0000
  Fe  Fe682     1.0  0.63500  0.25237  0.79418  1.0000
  H   H4040     1.0  0.51844  0.25764  0.78126  1.0000
  S   S1359     1.0  0.63473  0.22290  0.80174  1.0000
  S   S1360     1.0  0.62810  0.24459  0.81054  1.0000
  S   S1361     1.0  0.73517  0.29920  0.86648  1.0000
  C   C4044     1.0  0.68085  0.21473  0.89834  1.0000
  H   H4041     1.0  0.64680  0.19968  0.80832  1.0000
  H   H4042     1.0  0.62585  0.23407  0.84669  1.0000
  H   H4043     1.0  0.73288  0.25765  0.89427  1.0000
  C   C4045     1.0  0.63363  0.23389  0.84115  1.0000
  H   H4044     1.0  0.73709  0.42148  0.78171  1.0000
  H   H4045     1.0  0.69978  0.29396  0.91811  1.0000
  H   H4046     1.0  0.69172  0.27573  0.89683  1.0000
  C   C4046     1.0  0.74017  0.22473  0.83422  1.0000
  H   H4047     1.0  0.73375  0.23147  0.83192  1.0000
  H   H4048     1.0  0.71556  0.30538  0.88645  1.0000
  H   H4049     1.0  0.69805  0.19971  0.89462  1.0000
  C   C4047     1.0  0.73258  0.28981  0.90275  1.0000
  H   H4050     1.0  0.73385  0.14606  0.85657  1.0000
  N   N335      1.0  0.73679  0.21472  0.83653  1.0000
  C   C4048     1.0  0.71902  0.29495  0.95689  1.0000
  H   H4051     1.0  0.71041  0.29200  0.88054  1.0000
  C   C4049     1.0  0.70958  0.20524  0.89883  1.0000
  S   S1362     1.0  0.62672  0.24554  0.78611  1.0000
  H   H4052     1.0  0.62938  0.21814  0.78518  1.0000
  C   C4050     1.0  0.73262  0.26041  0.86127  1.0000
  H   H4053     1.0  0.69470  0.28070  0.91189  1.0000
  C   C4051     1.0  0.59473  0.24163  0.80007  1.0000
  C   C4052     1.0  0.59725  0.24419  0.78900  1.0000
  C   C4053     1.0  0.72731  0.21369  0.84319  1.0000
  C   C4054     1.0  0.57882  0.25268  0.78869  1.0000
  C   C4055     1.0  0.57641  0.25007  0.79969  1.0000
  C   C4056     1.0  0.58426  0.24445  0.80533  1.0000
  H   H4054     1.0  0.66030  0.21677  0.78825  1.0000
  H   H4055     1.0  0.63254  0.23484  0.83303  1.0000
  H   H4056     1.0  0.56840  0.25243  0.80392  1.0000
  H   H4057     1.0  0.58222  0.24244  0.81385  1.0000
  C   C4057     1.0  0.73218  0.29487  0.91068  1.0000
  H   H4058     1.0  0.64473  0.23288  0.85517  1.0000
  S   S1363     1.0  0.72267  0.29327  0.92243  1.0000
  C   C4058     1.0  0.73028  0.19572  0.84143  1.0000
  C   C4059     1.0  0.64748  0.25787  0.84334  1.0000
  H   H4059     1.0  0.60531  0.24193  0.78487  1.0000
  H   H4060     1.0  0.71928  0.39788  0.78638  1.0000
  H   H4061     1.0  0.65295  0.24670  0.85652  1.0000
  C   C4060     1.0  0.64883  0.19753  0.80071  1.0000
  C   C4061     1.0  0.73072  0.26794  0.96498  1.0000
  H   H4062     1.0  0.73253  0.26942  0.95647  1.0000
  H   H4063     1.0  0.64136  0.26702  0.82966  1.0000
  C   C4062     1.0  0.58852  0.27563  0.78032  1.0000
  C   C4063     1.0  0.64190  0.25964  0.83544  1.0000
  C   C4064     1.0  0.70783  0.29255  0.88875  1.0000
  H   H4064     1.0  0.65471  0.26097  0.78085  1.0000
  H   H4065     1.0  0.70569  0.27009  0.89379  1.0000
  C   C4065     1.0  0.65865  0.19913  0.78308  1.0000
  C   C4066     1.0  0.58546  0.22522  0.77769  1.0000
  H   H4066     1.0  0.71016  0.30646  0.90535  1.0000
  H   H4067     1.0  0.73857  0.25072  0.84967  1.0000
  H   H4068     1.0  0.72699  0.28501  0.90378  1.0000
  H   H4069     1.0  0.63317  0.25305  0.82858  1.0000
  C   C4067     1.0  0.72707  0.41062  0.78405  1.0000
  C   C4068     1.0  0.49963  0.25690  0.77912  1.0000
  C   C4069     1.0  0.70668  0.28351  0.96169  1.0000
  C   C4070     1.0  0.66961  0.23819  0.83520  1.0000
  C   C4071     1.0  0.66885  0.22765  0.83927  1.0000
  C   C4072     1.0  0.66357  0.22287  0.83469  1.0000
  C   C4073     1.0  0.65902  0.22858  0.82603  1.0000
  C   C4074     1.0  0.65996  0.23905  0.82184  1.0000
  C   C4075     1.0  0.66524  0.24381  0.82640  1.0000
  H   H4070     1.0  0.67214  0.22324  0.84606  1.0000
  H   H4071     1.0  0.66291  0.21476  0.83797  1.0000
  H   H4072     1.0  0.65654  0.24352  0.81515  1.0000
  H   H4073     1.0  0.66581  0.25196  0.82319  1.0000
  C   C4076     1.0  0.72349  0.24806  0.85916  1.0000
  C   C4077     1.0  0.71531  0.25076  0.86753  1.0000
  C   C4078     1.0  0.71570  0.25836  0.87267  1.0000
  C   C4079     1.0  0.72424  0.26334  0.86940  1.0000
  H   H4074     1.0  0.65832  0.21132  0.80215  1.0000
  C   C4080     1.0  0.73224  0.25277  0.85614  1.0000
  H   H4075     1.0  0.70856  0.24715  0.86999  1.0000
  H   H4076     1.0  0.70924  0.26053  0.87899  1.0000
  H   H4077     1.0  0.60079  0.22180  0.78145  1.0000
  C   C4081     1.0  0.58926  0.24961  0.78329  1.0000
  C   C4082     1.0  0.68326  0.25003  0.89926  1.0000
  C   C4083     1.0  0.69394  0.24910  0.89924  1.0000
  C   C4084     1.0  0.69669  0.25239  0.90715  1.0000
  C   C4085     1.0  0.68873  0.25671  0.91496  1.0000
  C   C4086     1.0  0.67818  0.25766  0.91479  1.0000
  C   C4087     1.0  0.67548  0.25433  0.90708  1.0000
  H   H4078     1.0  0.70003  0.24579  0.89323  1.0000
  H   H4079     1.0  0.70489  0.25161  0.90719  1.0000
  H   H4080     1.0  0.67198  0.26097  0.92074  1.0000
  H   H4081     1.0  0.66724  0.25506  0.90722  1.0000
  C   C4088     1.0  0.72867  0.18011  0.87757  1.0000
  C   C4089     1.0  0.72780  0.19091  0.87309  1.0000
  C   C4090     1.0  0.71782  0.19742  0.87214  1.0000
  C   C4091     1.0  0.70883  0.19304  0.87530  1.0000
  C   C4092     1.0  0.70977  0.18227  0.87974  1.0000
  C   C4093     1.0  0.71962  0.17587  0.88097  1.0000
  C   C4094     1.0  0.72383  0.20426  0.84562  1.0000
  H   H4082     1.0  0.71711  0.20578  0.86887  1.0000
  H   H4083     1.0  0.70284  0.17887  0.88228  1.0000
  H   H4084     1.0  0.72024  0.16756  0.88450  1.0000
  S   S1364     1.0  0.73509  0.31545  0.83737  1.0000
  C   C4095     1.0  0.73519  0.27281  0.97024  1.0000
  H   H4085     1.0  0.73322  0.38062  0.81127  1.0000
  H   H4086     1.0  0.61835  0.27070  0.77898  1.0000
  C   C4096     1.0  0.64616  0.18774  0.78939  1.0000
  C   C4097     1.0  0.74002  0.19677  0.83476  1.0000
  C   C4098     1.0  0.66146  0.20930  0.79425  1.0000
  C   C4099     1.0  0.69300  0.22159  0.90410  1.0000
  C   C4100     1.0  0.64134  0.27345  0.77774  1.0000
  C   C4101     1.0  0.59251  0.27058  0.78936  1.0000
  Fe  Fe683     1.0  0.64096  0.23236  0.78594  1.0000
  C   C4102     1.0  0.71072  0.30019  0.89203  1.0000
  C   C4103     1.0  0.69956  0.27740  0.89242  1.0000
  N   N336      1.0  0.70201  0.28576  0.89583  1.0000
  N   N337      1.0  0.63843  0.24218  0.84184  1.0000
  S   S1365     1.0  0.63328  0.26984  0.79004  1.0000
  C   C4104     1.0  0.71138  0.21302  0.90278  1.0000
  C   C4105     1.0  0.65377  0.19199  0.78132  1.0000
  C   C4106     1.0  0.73617  0.39231  0.78460  1.0000
  C   C4107     1.0  0.70186  0.29377  0.90980  1.0000
  H   H4087     1.0  0.70259  0.27872  0.95957  1.0000
  H   H4088     1.0  0.71599  0.19880  0.89667  1.0000
  H   H4089     1.0  0.68394  0.10716  0.77698  1.0000
  C   C4108     1.0  0.64372  0.24045  0.84972  1.0000
  H   H4090     1.0  0.73512  0.09693  0.78826  1.0000
  C   C4109     1.0  0.69907  0.28626  0.90624  1.0000
  H   H4091     1.0  0.69945  0.27957  0.88388  1.0000
  C   C4110     1.0  0.72674  0.40002  0.78540  1.0000
  C   C4111     1.0  0.70768  0.30081  0.90262  1.0000
  C   C4112     1.0  0.64830  0.24827  0.85060  1.0000
  C   C4113     1.0  0.60332  0.26875  0.78886  1.0000
  C   C4114     1.0  0.73924  0.37347  0.81249  1.0000
  H   H4092     1.0  0.67668  0.22310  0.89620  1.0000
  N   N338      1.0  0.65615  0.20182  0.79268  1.0000
  H   H4093     1.0  0.70429  0.22728  0.90869  1.0000
  H   H4094     1.0  0.50443  0.24961  0.77644  1.0000
  C   C4115     1.0  0.64366  0.19051  0.79916  1.0000
  C   C4116     1.0  0.71349  0.28919  0.95396  1.0000
  H   H4095     1.0  0.68654  0.22797  0.90625  1.0000
  H   H4096     1.0  0.67610  0.21074  0.90565  1.0000
  S   S1366     1.0  0.56865  0.26058  0.78226  1.0000
  H   H4097     1.0  0.73477  0.19425  0.87053  1.0000
  H   H4098     1.0  0.71621  0.20354  0.85079  1.0000
  S   S1367     1.0  0.71613  0.42072  0.78144  1.0000
  H   H4099     1.0  0.73196  0.46492  0.79190  1.0000
  Fe  Fe684     1.0  0.73653  0.28246  0.86580  1.0000
  H   H4100     1.0  0.49813  0.25547  0.78784  1.0000
  H   H4101     1.0  0.71922  0.21269  0.90375  1.0000
  H   H4102     1.0  0.58726  0.26788  0.79669  1.0000
  H   H4103     1.0  0.63763  0.18736  0.80543  1.0000
  H   H4104     1.0  0.72430  0.45485  0.78391  1.0000
  H   H4105     1.0  0.58013  0.27690  0.78060  1.0000
  H   H4106     1.0  0.72447  0.29924  0.95093  1.0000
  H   H4107     1.0  0.64201  0.18253  0.78795  1.0000
  H   H4108     1.0  0.74019  0.28739  0.88713  1.0000
  H   H4109     1.0  0.71464  0.28898  0.94572  1.0000
  C   C4117     1.0  0.72201  0.46339  0.78249  1.0000
  H   H4110     1.0  0.58232  0.23187  0.78154  1.0000
  C   C4118     1.0  0.73650  0.36411  0.81877  1.0000
  H   H4111     1.0  0.73736  0.15687  0.86717  1.0000
  C   C4119     1.0  0.60999  0.27209  0.77929  1.0000
  H   H4112     1.0  0.73935  0.26407  0.85886  1.0000
  H   H4113     1.0  0.73254  0.32994  0.81785  1.0000
  H   H4114     1.0  0.67187  0.10500  0.78623  1.0000
  N   N339      1.0  0.71105  0.28924  0.97510  1.0000
  C   C4120     1.0  0.59582  0.21958  0.77763  1.0000
  C   C4121     1.0  0.72629  0.46903  0.78698  1.0000
  H   H4115     1.0  0.72026  0.12650  0.77830  1.0000
  H   H4116     1.0  0.68230  0.09395  0.78347  1.0000
  C   C4122     1.0  0.67819  0.10191  0.77991  1.0000
  H   H4117     1.0  0.73642  0.08293  0.77995  1.0000
  H   H4118     1.0  0.73595  0.38422  0.78511  1.0000
  C   C4123     1.0  0.72343  0.48006  0.78485  1.0000
  C   C4124     1.0  0.73674  0.41333  0.78277  1.0000
  C   C4125     1.0  0.74002  0.29122  0.89327  1.0000
  C   C4126     1.0  0.73683  0.12026  0.77801  1.0000
  H   H4119     1.0  0.73907  0.30519  0.91528  1.0000
  C   C4127     1.0  0.73936  0.30124  0.90917  1.0000
  H   H4120     1.0  0.74024  0.25336  0.88241  1.0000
  H   H4121     1.0  0.66424  0.20275  0.77662  1.0000
  H   H4122     1.0  0.74023  0.24434  0.89516  1.0000
  C   C4128     1.0  0.74031  0.25260  0.89080  1.0000
  S   S1368     1.0  0.72595  0.35660  0.77654  1.0000
  H   H4123     1.0  0.74044  0.27803  0.96570  1.0000
  H   H4124     1.0  0.49193  0.25853  0.77675  1.0000
  H   H4125     1.0  0.74027  0.10374  0.80100  1.0000
  C   C4129     1.0  0.51487  0.26471  0.77626  1.0000
  Fe  Fe685     1.0  0.69766  0.75091  0.11368  1.0000
  S   S1369     1.0  0.70639  0.75764  0.12148  1.0000
  S   S1370     1.0  0.68196  0.74622  0.12167  1.0000
  Fe  Fe686     1.0  0.71659  0.74682  0.09526  1.0000
  S   S1371     1.0  0.72660  0.75320  0.10185  1.0000
  S   S1372     1.0  0.72678  0.73920  0.08176  1.0000
  Fe  Fe687     1.0  0.71979  0.74431  0.11758  1.0000
  S   S1373     1.0  0.73081  0.73443  0.12804  1.0000
  Fe  Fe688     1.0  0.71247  0.76600  0.10495  1.0000
  S   S1374     1.0  0.71607  0.78223  0.09969  1.0000
  S   S1375     1.0  0.71080  0.73690  0.11092  1.0000
  S   S1376     1.0  0.70266  0.76038  0.09723  1.0000
  N   N340      1.0  0.68819  0.72641  0.14424  1.0000
  H   H4126     1.0  0.72355  0.70631  0.10065  1.0000
  H   H4127     1.0  0.64545  0.79360  0.16974  1.0000
  S   S1377     1.0  0.72141  0.73843  0.03651  1.0000
  C   C4130     1.0  0.72270  0.76754  0.07398  1.0000
  C   C4131     1.0  0.73352  0.72176  0.12555  1.0000
  C   C4132     1.0  0.73692  0.71467  0.98060  1.0000
  H   H4128     1.0  0.70534  0.89712  0.17010  1.0000
  H   H4129     1.0  0.67768  0.74317  0.16551  1.0000
  S   S1378     1.0  0.65022  0.76293  0.16103  1.0000
  H   H4130     1.0  0.70912  0.78011  0.07608  1.0000
  C   C4133     1.0  0.69276  0.73455  0.14361  1.0000
  C   C4134     1.0  0.73390  0.87496  0.13091  1.0000
  H   H4131     1.0  0.69499  0.72510  0.12830  1.0000
  N   N341      1.0  0.72338  0.78507  0.07437  1.0000
  C   C4135     1.0  0.68082  0.73831  0.15968  1.0000
  H   H4132     1.0  0.73728  0.89399  0.14603  1.0000
  H   H4133     1.0  0.72837  0.79805  0.09541  1.0000
  C   C4136     1.0  0.73749  0.70317  0.11824  1.0000
  H   H4134     1.0  0.73865  0.78796  0.07250  1.0000
  H   H4135     1.0  0.64265  0.78067  0.17303  1.0000
  C   C4137     1.0  0.68030  0.72383  0.15263  1.0000
  C   C4138     1.0  0.71803  0.79600  0.07492  1.0000
  H   H4136     1.0  0.68560  0.71714  0.13497  1.0000
  S   S1379     1.0  0.72720  0.89550  0.16768  1.0000
  C   C4139     1.0  0.72517  0.71723  0.12598  1.0000
  H   H4137     1.0  0.49262  0.71158  0.17022  1.0000
  C   C4140     1.0  0.73579  0.78900  0.11903  1.0000
  Fe  Fe689     1.0  0.73326  0.72705  0.02703  1.0000
  H   H4138     1.0  0.72014  0.87255  0.14321  1.0000
  C   C4141     1.0  0.73062  0.78054  0.12299  1.0000
  C   C4142     1.0  0.73365  0.76455  0.07263  1.0000
  S   S1380     1.0  0.73328  0.72096  0.99149  1.0000
  H   H4139     1.0  0.51274  0.70384  0.17424  1.0000
  H   H4140     1.0  0.73764  0.75650  0.07206  1.0000
  C   C4143     1.0  0.67647  0.72976  0.16046  1.0000
  C   C4144     1.0  0.67343  0.75092  0.13272  1.0000
  C   C4145     1.0  0.67425  0.75995  0.13544  1.0000
  C   C4146     1.0  0.66712  0.76355  0.14415  1.0000
  C   C4147     1.0  0.65933  0.75799  0.15039  1.0000
  C   C4148     1.0  0.65872  0.74880  0.14784  1.0000
  C   C4149     1.0  0.66563  0.74539  0.13895  1.0000
  H   H4141     1.0  0.68018  0.76431  0.13066  1.0000
  H   H4142     1.0  0.66760  0.77071  0.14601  1.0000
  H   H4143     1.0  0.65270  0.74451  0.15252  1.0000
  H   H4144     1.0  0.66490  0.73844  0.13687  1.0000
  Fe  Fe690     1.0  0.73891  0.71750  0.00698  1.0000
  H   H4145     1.0  0.71974  0.71318  0.07803  1.0000
  C   C4150     1.0  0.72820  0.71177  0.07731  1.0000
  H   H4146     1.0  0.71715  0.72104  0.12889  1.0000
  H   H4147     1.0  0.73241  0.74421  0.98818  1.0000
  C   C4151     1.0  0.72495  0.73966  0.06913  1.0000
  C   C4152     1.0  0.71533  0.74416  0.06600  1.0000
  C   C4153     1.0  0.71432  0.74382  0.05595  1.0000
  C   C4154     1.0  0.72284  0.73880  0.04908  1.0000
  C   C4155     1.0  0.73243  0.73440  0.05225  1.0000
  C   C4156     1.0  0.73353  0.73501  0.06212  1.0000
  H   H4148     1.0  0.70864  0.74776  0.07134  1.0000
  H   H4149     1.0  0.70686  0.74729  0.05355  1.0000
  H   H4150     1.0  0.73296  0.86951  0.12675  1.0000
  H   H4151     1.0  0.65361  0.78371  0.16253  1.0000
  C   C4157     1.0  0.71765  0.77790  0.07484  1.0000
  H   H4152     1.0  0.70989  0.79638  0.07982  1.0000
  C   C4158     1.0  0.68908  0.74069  0.15125  1.0000
  C   C4159     1.0  0.72905  0.79309  0.10306  1.0000
  C   C4160     1.0  0.72385  0.78464  0.10707  1.0000
  C   C4161     1.0  0.72478  0.77829  0.11698  1.0000
  H   H4153     1.0  0.71771  0.80083  0.06688  1.0000
  H   H4154     1.0  0.73172  0.71000  0.06117  1.0000
  C   C4162     1.0  0.72664  0.87662  0.14023  1.0000
  H   H4155     1.0  0.72078  0.77179  0.12015  1.0000
  S   S1381     1.0  0.72989  0.71289  0.02374  1.0000
  H   H4156     1.0  0.71813  0.76183  0.07448  1.0000
  H   H4157     1.0  0.69905  0.73658  0.13696  1.0000
  H   H4158     1.0  0.73906  0.80174  0.10589  1.0000
  C   C4163     1.0  0.69206  0.72016  0.13606  1.0000
  H   H4159     1.0  0.67002  0.72784  0.16696  1.0000
  C   C4164     1.0  0.73413  0.78224  0.07294  1.0000
  C   C4165     1.0  0.72714  0.70793  0.12234  1.0000
  H   H4160     1.0  0.69856  0.71347  0.13819  1.0000
  H   H4161     1.0  0.69245  0.74740  0.15047  1.0000
  H   H4162     1.0  0.72853  0.71784  0.09961  1.0000
  C   C4166     1.0  0.73717  0.74636  0.98010  1.0000
  H   H4163     1.0  0.72063  0.70464  0.12237  1.0000
  C   C4167     1.0  0.73510  0.79521  0.10900  1.0000
  H   H4164     1.0  0.73907  0.73061  0.04707  1.0000
  N   N342      1.0  0.73222  0.71206  0.08552  1.0000
  Fe  Fe691     1.0  0.64377  0.75131  0.17532  1.0000
  H   H4165     1.0  0.67675  0.71729  0.15325  1.0000
  H   H4166     1.0  0.73109  0.77575  0.13077  1.0000
  C   C4168     1.0  0.64913  0.78508  0.17044  1.0000
  C   C4169     1.0  0.73632  0.88859  0.14184  1.0000
  H   H4167     1.0  0.72221  0.79944  0.07881  1.0000
  C   C4170     1.0  0.72788  0.88348  0.14573  1.0000
  C   C4171     1.0  0.72507  0.71392  0.09546  1.0000
  C   C4172     1.0  0.73491  0.70998  0.06777  1.0000
  H   H4168     1.0  0.72236  0.88484  0.15300  1.0000
  H   H4169     1.0  0.71749  0.71931  0.09405  1.0000
  C   C4173     1.0  0.73942  0.77193  0.07209  1.0000
  H   H4170     1.0  0.71558  0.70854  0.97687  1.0000
  S   S1382     1.0  0.73964  0.69243  0.11240  1.0000
  C   C4174     1.0  0.49146  0.70436  0.17590  1.0000
  H   H4171     1.0  0.74043  0.75298  0.04265  1.0000
  C   C4175     1.0  0.52775  0.73724  0.27099  1.0000
  N   N343      1.0  0.71222  0.97317  0.29059  1.0000
  H   H4172     1.0  0.51138  0.73886  0.24968  1.0000
  H   H4173     1.0  0.73978  0.86091  0.20278  1.0000
  S   S1383     1.0  0.68421  0.75124  0.34649  1.0000
  H   H4174     1.0  0.51154  0.69996  0.18829  1.0000
  H   H4175     1.0  0.59537  0.81916  0.23391  1.0000
  S   S1384     1.0  0.72577  0.86827  0.28210  1.0000
  C   C4176     1.0  0.66068  0.72630  0.35283  1.0000
  H   H4176     1.0  0.54540  0.75397  0.22435  1.0000
  H   H4177     1.0  0.59579  0.81760  0.25257  1.0000
  C   C4177     1.0  0.69971  0.78536  0.36895  1.0000
  H   H4178     1.0  0.70128  0.91869  0.22620  1.0000
  S   S1385     1.0  0.73777  0.94113  0.24872  1.0000
  C   C4178     1.0  0.51236  0.71692  0.22833  1.0000
  Fe  Fe692     1.0  0.65526  0.79807  0.24137  1.0000
  S   S1386     1.0  0.64316  0.81025  0.24908  1.0000
  S   S1387     1.0  0.66784  0.78785  0.24985  1.0000
  Fe  Fe693     1.0  0.64579  0.80354  0.22210  1.0000
  S   S1388     1.0  0.63317  0.81665  0.22790  1.0000
  S   S1389     1.0  0.64584  0.79886  0.20728  1.0000
  Fe  Fe694     1.0  0.64614  0.82063  0.23294  1.0000
  S   S1390     1.0  0.64960  0.83696  0.22947  1.0000
  Fe  Fe695     1.0  0.63149  0.80501  0.24337  1.0000
  S   S1391     1.0  0.61654  0.79982  0.25321  1.0000
  S   S1392     1.0  0.65889  0.80856  0.22553  1.0000
  S   S1393     1.0  0.64339  0.79180  0.23727  1.0000
  Fe  Fe696     1.0  0.64408  0.74032  0.30046  1.0000
  S   S1394     1.0  0.64843  0.73095  0.28774  1.0000
  S   S1395     1.0  0.65692  0.73893  0.30916  1.0000
  Fe  Fe697     1.0  0.62249  0.75071  0.29550  1.0000
  S   S1396     1.0  0.62487  0.74250  0.28251  1.0000
  S   S1397     1.0  0.60733  0.76219  0.29990  1.0000
  Fe  Fe698     1.0  0.63202  0.72814  0.29315  1.0000
  S   S1398     1.0  0.62886  0.71265  0.29281  1.0000
  Fe  Fe699     1.0  0.64107  0.74576  0.27785  1.0000
  S   S1399     1.0  0.64729  0.74933  0.26044  1.0000
  S   S1400     1.0  0.62818  0.73597  0.30695  1.0000
  S   S1401     1.0  0.63811  0.75558  0.28984  1.0000
  Fe  Fe700     1.0  0.61683  0.67398  0.24847  1.0000
  S   S1402     1.0  0.63029  0.66179  0.24194  1.0000
  S   S1403     1.0  0.59936  0.67436  0.25364  1.0000
  Fe  Fe701     1.0  0.63068  0.68928  0.24610  1.0000
  S   S1404     1.0  0.64532  0.67882  0.23891  1.0000
  S   S1405     1.0  0.63036  0.70569  0.24766  1.0000
  Fe  Fe702     1.0  0.63506  0.67577  0.22996  1.0000
  S   S1406     1.0  0.64045  0.67448  0.21310  1.0000
  Fe  Fe703     1.0  0.63968  0.66557  0.25146  1.0000
  S   S1407     1.0  0.65247  0.65480  0.25981  1.0000
  S   S1408     1.0  0.62101  0.68762  0.23567  1.0000
  S   S1409     1.0  0.62565  0.67635  0.25938  1.0000
  C   C4179     1.0  0.73931  0.51963  0.24444  1.0000
  S   S1410     1.0  0.63805  0.73171  0.20195  1.0000
  C   C4180     1.0  0.57913  0.80198  0.24594  1.0000
  Fe  Fe704     1.0  0.62631  0.74189  0.19234  1.0000
  Fe  Fe705     1.0  0.64474  0.74607  0.19849  1.0000
  S   S1411     1.0  0.64946  0.75021  0.21148  1.0000
  H   H4179     1.0  0.62168  0.71945  0.18980  1.0000
  Fe  Fe706     1.0  0.57875  0.74751  0.24982  1.0000
  S   S1412     1.0  0.57587  0.75892  0.23493  1.0000
  S   S1413     1.0  0.58456  0.73019  0.25083  1.0000
  Fe  Fe707     1.0  0.57123  0.76433  0.26256  1.0000
  S   S1414     1.0  0.56706  0.77714  0.24880  1.0000
  S   S1415     1.0  0.56907  0.76819  0.27834  1.0000
  Fe  Fe708     1.0  0.56029  0.76531  0.24496  1.0000
  S   S1416     1.0  0.54632  0.76814  0.23720  1.0000
  Fe  Fe709     1.0  0.58281  0.76955  0.24023  1.0000
  S   S1417     1.0  0.59485  0.77895  0.22992  1.0000
  S   S1418     1.0  0.56298  0.75321  0.25965  1.0000
  S   S1419     1.0  0.58723  0.75734  0.25414  1.0000
  Fe  Fe710     1.0  0.56310  0.69485  0.21541  1.0000
  S   S1420     1.0  0.55910  0.70375  0.19976  1.0000
  S   S1421     1.0  0.57539  0.67974  0.21723  1.0000
  Fe  Fe711     1.0  0.55116  0.71266  0.22603  1.0000
  S   S1422     1.0  0.54646  0.72323  0.21142  1.0000
  S   S1423     1.0  0.54683  0.71726  0.24159  1.0000
  Fe  Fe712     1.0  0.54260  0.70882  0.20907  1.0000
  S   S1424     1.0  0.52713  0.71317  0.20325  1.0000
  Fe  Fe713     1.0  0.56313  0.71733  0.20339  1.0000
  S   S1425     1.0  0.57364  0.72713  0.19078  1.0000
  S   S1426     1.0  0.54630  0.69860  0.22444  1.0000
  S   S1427     1.0  0.56812  0.70814  0.21831  1.0000
  H   H4180     1.0  0.70796  0.75350  0.34776  1.0000
  C   C4181     1.0  0.60390  0.71097  0.23941  1.0000
  N   N344      1.0  0.70311  0.91082  0.20381  1.0000
  S   S1428     1.0  0.69802  0.72207  0.35609  1.0000
  H   H4181     1.0  0.57093  0.75109  0.19072  1.0000
  C   C4182     1.0  0.56536  0.75177  0.19812  1.0000
  Fe  Fe714     1.0  0.69013  0.85928  0.24252  1.0000
  S   S1429     1.0  0.70207  0.85638  0.22783  1.0000
  S   S1430     1.0  0.68027  0.84736  0.25214  1.0000
  Fe  Fe715     1.0  0.69651  0.87983  0.24188  1.0000
  S   S1431     1.0  0.70866  0.87877  0.22696  1.0000
  S   S1432     1.0  0.69361  0.89212  0.25150  1.0000
  Fe  Fe716     1.0  0.69661  0.87371  0.22184  1.0000
  S   S1433     1.0  0.69232  0.88008  0.20612  1.0000
  Fe  Fe717     1.0  0.71294  0.86165  0.23443  1.0000
  S   S1434     1.0  0.72981  0.85439  0.23514  1.0000
  S   S1435     1.0  0.68385  0.87634  0.23612  1.0000
  S   S1436     1.0  0.70158  0.86300  0.24971  1.0000
  H   H4182     1.0  0.72373  0.59413  0.29840  1.0000
  H   H4183     1.0  0.71247  0.94697  0.29739  1.0000
  H   H4184     1.0  0.53955  0.74007  0.24125  1.0000
  Fe  Fe718     1.0  0.72085  0.86986  0.29887  1.0000
  H   H4185     1.0  0.72087  0.87115  0.24936  1.0000
  S   S1437     1.0  0.70550  0.88030  0.30452  1.0000
  H   H4186     1.0  0.73095  0.85791  0.33162  1.0000
  S   S1438     1.0  0.72567  0.83877  0.28398  1.0000
  C   C4183     1.0  0.70680  0.95773  0.28413  1.0000
  S   S1439     1.0  0.72404  0.85252  0.30556  1.0000
  C   C4184     1.0  0.70794  0.97582  0.28185  1.0000
  Fe  Fe719     1.0  0.72572  0.93122  0.25226  1.0000
  S   S1440     1.0  0.73104  0.92063  0.26658  1.0000
  S   S1441     1.0  0.72537  0.92286  0.23992  1.0000
  S   S1442     1.0  0.73122  0.94204  0.27392  1.0000
  C   C4185     1.0  0.72364  0.89506  0.26694  1.0000
  H   H4187     1.0  0.65017  0.79027  0.26876  1.0000
  Fe  Fe720     1.0  0.71950  0.93241  0.27528  1.0000
  H   H4188     1.0  0.72233  0.89065  0.29171  1.0000
  S   S1443     1.0  0.71321  0.94243  0.26112  1.0000
  Fe  Fe721     1.0  0.71885  0.61142  0.24162  1.0000
  S   S1444     1.0  0.72657  0.59640  0.25090  1.0000
  S   S1445     1.0  0.72969  0.62209  0.23196  1.0000
  Fe  Fe722     1.0  0.69744  0.60608  0.24936  1.0000
  S   S1446     1.0  0.70355  0.59023  0.25922  1.0000
  S   S1447     1.0  0.68048  0.61202  0.24744  1.0000
  Fe  Fe723     1.0  0.71269  0.59934  0.26394  1.0000
  S   S1448     1.0  0.71528  0.59583  0.28049  1.0000
  Fe  Fe724     1.0  0.71709  0.58853  0.24524  1.0000
  S   S1449     1.0  0.72866  0.57501  0.23859  1.0000
  S   S1450     1.0  0.70565  0.61519  0.25515  1.0000
  S   S1451     1.0  0.71021  0.60354  0.23501  1.0000
  H   H4189     1.0  0.61662  0.77426  0.26954  1.0000
  H   H4190     1.0  0.65582  0.79678  0.17962  1.0000
  S   S1452     1.0  0.72174  0.53421  0.22843  1.0000
  C   C4186     1.0  0.63848  0.78275  0.26734  1.0000
  H   H4191     1.0  0.62701  0.71237  0.20110  1.0000
  C   C4187     1.0  0.62419  0.71140  0.19446  1.0000
  C   C4188     1.0  0.52654  0.76637  0.23667  1.0000
  C   C4189     1.0  0.72892  0.56171  0.20623  1.0000
  C   C4190     1.0  0.59085  0.81350  0.25066  1.0000
  C   C4191     1.0  0.52186  0.73671  0.26409  1.0000
  H   H4192     1.0  0.55028  0.74107  0.25301  1.0000
  C   C4192     1.0  0.60088  0.70173  0.25798  1.0000
  S   S1453     1.0  0.63256  0.75651  0.18964  1.0000
  C   C4193     1.0  0.64276  0.78777  0.27251  1.0000
  C   C4194     1.0  0.59333  0.71033  0.22778  1.0000
  H   H4193     1.0  0.71754  0.61917  0.21859  1.0000
  C   C4195     1.0  0.72618  0.56373  0.23621  1.0000
  C   C4196     1.0  0.71601  0.56233  0.23716  1.0000
  C   C4197     1.0  0.71464  0.55322  0.23484  1.0000
  C   C4198     1.0  0.72343  0.54554  0.23153  1.0000
  H   H4194     1.0  0.52046  0.71790  0.22629  1.0000
  C   C4199     1.0  0.57408  0.79369  0.26459  1.0000
  H   H4195     1.0  0.70921  0.56826  0.23961  1.0000
  H   H4196     1.0  0.70677  0.55218  0.23551  1.0000
  H   H4197     1.0  0.67277  0.72015  0.32523  1.0000
  H   H4198     1.0  0.71553  0.89437  0.27139  1.0000
  C   C4200     1.0  0.72222  0.62282  0.28227  1.0000
  C   C4201     1.0  0.71922  0.61545  0.27859  1.0000
  C   C4202     1.0  0.71967  0.60511  0.28444  1.0000
  Fe  Fe725     1.0  0.66819  0.75264  0.35719  1.0000
  H   H4199     1.0  0.71640  0.61785  0.27134  1.0000
  H   H4200     1.0  0.71151  0.88750  0.32085  1.0000
  H   H4201     1.0  0.56690  0.79272  0.26267  1.0000
  C   C4203     1.0  0.69511  0.90544  0.20716  1.0000
  H   H4202     1.0  0.50188  0.68671  0.19531  1.0000
  C   C4204     1.0  0.70630  0.89364  0.30048  1.0000
  H   H4203     1.0  0.59181  0.70615  0.19386  1.0000
  C   C4205     1.0  0.73086  0.71248  0.36331  1.0000
  C   C4206     1.0  0.70758  0.91500  0.29441  1.0000
  C   C4207     1.0  0.69836  0.91202  0.30085  1.0000
  C   C4208     1.0  0.69769  0.90136  0.30383  1.0000
  C   C4209     1.0  0.60152  0.71384  0.22940  1.0000
  C   C4210     1.0  0.58476  0.80855  0.23778  1.0000
  H   H4204     1.0  0.69166  0.91798  0.30342  1.0000
  H   H4205     1.0  0.69050  0.89913  0.30874  1.0000
  C   C4211     1.0  0.72789  0.84163  0.27021  1.0000
  C   C4212     1.0  0.72124  0.83924  0.26521  1.0000
  C   C4213     1.0  0.72214  0.84277  0.25430  1.0000
  C   C4214     1.0  0.72993  0.84835  0.24836  1.0000
  C   C4215     1.0  0.66562  0.78482  0.18900  1.0000
  H   H4206     1.0  0.72747  0.48972  0.21085  1.0000
  H   H4207     1.0  0.71516  0.83499  0.26979  1.0000
  H   H4208     1.0  0.71670  0.84130  0.25051  1.0000
  C   C4216     1.0  0.73065  0.82496  0.33464  1.0000
  C   C4217     1.0  0.50713  0.70417  0.18192  1.0000
  C   C4218     1.0  0.70253  0.90059  0.24824  1.0000
  C   C4219     1.0  0.71111  0.90003  0.23969  1.0000
  C   C4220     1.0  0.71805  0.90692  0.23720  1.0000
  C   C4221     1.0  0.71652  0.91435  0.24331  1.0000
  C   C4222     1.0  0.70802  0.91485  0.25195  1.0000
  C   C4223     1.0  0.70104  0.90799  0.25439  1.0000
  H   H4209     1.0  0.71242  0.89434  0.23494  1.0000
  H   H4210     1.0  0.72464  0.90647  0.23054  1.0000
  H   H4211     1.0  0.70677  0.92057  0.25671  1.0000
  H   H4212     1.0  0.69444  0.90848  0.26105  1.0000
  S   S1454     1.0  0.60994  0.74085  0.20230  1.0000
  C   C4224     1.0  0.49744  0.69914  0.21151  1.0000
  C   C4225     1.0  0.71092  0.71860  0.35820  1.0000
  C   C4226     1.0  0.59208  0.73406  0.18600  1.0000
  C   C4227     1.0  0.51584  0.70751  0.20672  1.0000
  C   C4228     1.0  0.50636  0.71381  0.20400  1.0000
  H   H4213     1.0  0.73596  0.51547  0.24071  1.0000
  C   C4229     1.0  0.58516  0.80682  0.25863  1.0000
  C   C4230     1.0  0.50690  0.69282  0.21423  1.0000
  C   C4231     1.0  0.51606  0.69696  0.21185  1.0000
  H   H4214     1.0  0.50611  0.72198  0.20002  1.0000
  S   S1455     1.0  0.72333  0.96917  0.25454  1.0000
  H   H4215     1.0  0.50719  0.68463  0.21815  1.0000
  H   H4216     1.0  0.52330  0.69199  0.21392  1.0000
  C   C4232     1.0  0.53325  0.76626  0.24314  1.0000
  C   C4233     1.0  0.52947  0.76448  0.25405  1.0000
  C   C4234     1.0  0.51920  0.76259  0.25842  1.0000
  H   H4217     1.0  0.53446  0.76452  0.25913  1.0000
  H   H4218     1.0  0.51638  0.76115  0.26688  1.0000
  C   C4235     1.0  0.57460  0.72601  0.24796  1.0000
  C   C4236     1.0  0.56873  0.71945  0.25585  1.0000
  C   C4237     1.0  0.56024  0.71671  0.25384  1.0000
  C   C4238     1.0  0.55780  0.72027  0.24385  1.0000
  C   C4239     1.0  0.56381  0.72664  0.23587  1.0000
  C   C4240     1.0  0.57211  0.72967  0.23799  1.0000
  H   H4219     1.0  0.57058  0.71670  0.26360  1.0000
  H   H4220     1.0  0.55556  0.71181  0.26001  1.0000
  H   H4221     1.0  0.56189  0.72947  0.22817  1.0000
  H   H4222     1.0  0.57659  0.73481  0.23191  1.0000
  C   C4241     1.0  0.60029  0.73659  0.19886  1.0000
  C   C4242     1.0  0.59203  0.73325  0.20688  1.0000
  C   C4243     1.0  0.58398  0.73004  0.20452  1.0000
  C   C4244     1.0  0.58398  0.73044  0.19406  1.0000
  H   H4223     1.0  0.72818  0.56263  0.19799  1.0000
  Fe  Fe726     1.0  0.64832  0.72871  0.18657  1.0000
  H   H4224     1.0  0.59178  0.73327  0.21496  1.0000
  H   H4225     1.0  0.57760  0.72759  0.21075  1.0000
  H   H4226     1.0  0.71402  0.88191  0.26293  1.0000
  C   C4245     1.0  0.66033  0.64325  0.25572  1.0000
  C   C4246     1.0  0.67043  0.63940  0.25799  1.0000
  C   C4247     1.0  0.67679  0.63001  0.25521  1.0000
  C   C4248     1.0  0.67301  0.62424  0.25036  1.0000
  C   C4249     1.0  0.66293  0.62812  0.24802  1.0000
  C   C4250     1.0  0.65664  0.63765  0.25060  1.0000
  H   H4227     1.0  0.67331  0.64369  0.26197  1.0000
  H   H4228     1.0  0.68448  0.62710  0.25713  1.0000
  H   H4229     1.0  0.65992  0.62371  0.24429  1.0000
  H   H4230     1.0  0.64883  0.64052  0.24887  1.0000
  C   C4251     1.0  0.64568  0.68519  0.20502  1.0000
  C   C4252     1.0  0.65041  0.68493  0.19449  1.0000
  N   N345      1.0  0.73383  0.56996  0.20684  1.0000
  C   C4253     1.0  0.65353  0.70249  0.19158  1.0000
  C   C4254     1.0  0.64883  0.70277  0.20214  1.0000
  C   C4255     1.0  0.64495  0.69408  0.20889  1.0000
  H   H4231     1.0  0.65098  0.67806  0.19149  1.0000
  C   C4256     1.0  0.66936  0.77401  0.19225  1.0000
  H   H4232     1.0  0.64834  0.70958  0.20514  1.0000
  H   H4233     1.0  0.64135  0.69429  0.21705  1.0000
  C   C4257     1.0  0.59269  0.67534  0.24367  1.0000
  C   C4258     1.0  0.58185  0.67981  0.24499  1.0000
  C   C4259     1.0  0.57653  0.68133  0.23685  1.0000
  C   C4260     1.0  0.58189  0.67783  0.22758  1.0000
  C   C4261     1.0  0.59261  0.67289  0.22647  1.0000
  C   C4262     1.0  0.59807  0.67188  0.23438  1.0000
  H   H4234     1.0  0.57757  0.68228  0.25224  1.0000
  H   H4235     1.0  0.56822  0.68500  0.23785  1.0000
  H   H4236     1.0  0.59676  0.67000  0.21939  1.0000
  H   H4237     1.0  0.60638  0.66823  0.23338  1.0000
  C   C4263     1.0  0.62895  0.71088  0.28028  1.0000
  C   C4264     1.0  0.62807  0.70111  0.27921  1.0000
  C   C4265     1.0  0.62839  0.69945  0.26926  1.0000
  C   C4266     1.0  0.62937  0.70761  0.26035  1.0000
  C   C4267     1.0  0.63000  0.71746  0.26145  1.0000
  C   C4268     1.0  0.62997  0.71904  0.27133  1.0000
  H   H4238     1.0  0.62732  0.69474  0.28607  1.0000
  H   H4239     1.0  0.62798  0.69180  0.26854  1.0000
  H   H4240     1.0  0.63084  0.72381  0.25458  1.0000
  H   H4241     1.0  0.63096  0.72650  0.27193  1.0000
  C   C4269     1.0  0.59710  0.76438  0.29320  1.0000
  C   C4270     1.0  0.58678  0.76836  0.29814  1.0000
  C   C4271     1.0  0.57833  0.76970  0.29336  1.0000
  C   C4272     1.0  0.58011  0.76723  0.28351  1.0000
  C   C4273     1.0  0.59049  0.76364  0.27835  1.0000
  C   C4274     1.0  0.59897  0.76211  0.28324  1.0000
  H   H4242     1.0  0.58528  0.77021  0.30581  1.0000
  H   H4243     1.0  0.57035  0.77252  0.29740  1.0000
  H   H4244     1.0  0.59202  0.76182  0.27072  1.0000
  H   H4245     1.0  0.60691  0.75921  0.27927  1.0000
  C   C4275     1.0  0.65742  0.84009  0.23641  1.0000
  C   C4276     1.0  0.66133  0.84938  0.23233  1.0000
  C   C4277     1.0  0.66821  0.85176  0.23717  1.0000
  C   C4278     1.0  0.67102  0.84500  0.24632  1.0000
  C   C4279     1.0  0.66676  0.83593  0.25067  1.0000
  C   C4280     1.0  0.66010  0.83341  0.24566  1.0000
  H   H4246     1.0  0.65920  0.85465  0.22525  1.0000
  H   H4247     1.0  0.67136  0.85881  0.23379  1.0000
  H   H4248     1.0  0.66884  0.83069  0.25778  1.0000
  H   H4249     1.0  0.65706  0.82628  0.24894  1.0000
  C   C4281     1.0  0.64609  0.78538  0.20925  1.0000
  C   C4282     1.0  0.64108  0.78208  0.20324  1.0000
  C   C4283     1.0  0.64197  0.77131  0.20399  1.0000
  C   C4284     1.0  0.64789  0.76376  0.21074  1.0000
  C   C4285     1.0  0.65275  0.76705  0.21691  1.0000
  C   C4286     1.0  0.65186  0.77784  0.21617  1.0000
  H   H4250     1.0  0.63660  0.78788  0.19789  1.0000
  H   H4251     1.0  0.63811  0.76892  0.19929  1.0000
  H   H4252     1.0  0.65740  0.76125  0.22210  1.0000
  H   H4253     1.0  0.65597  0.78032  0.22064  1.0000
  C   C4287     1.0  0.61111  0.79345  0.24672  1.0000
  C   C4288     1.0  0.60414  0.78685  0.25261  1.0000
  C   C4289     1.0  0.59932  0.78216  0.24753  1.0000
  C   C4290     1.0  0.60126  0.78423  0.23652  1.0000
  C   C4291     1.0  0.60828  0.79077  0.23064  1.0000
  C   C4292     1.0  0.61329  0.79526  0.23572  1.0000
  H   H4254     1.0  0.60232  0.78548  0.26111  1.0000
  H   H4255     1.0  0.59392  0.77715  0.25214  1.0000
  H   H4256     1.0  0.60982  0.79244  0.22212  1.0000
  H   H4257     1.0  0.61864  0.80036  0.23109  1.0000
  C   C4293     1.0  0.66542  0.77524  0.25227  1.0000
  C   C4294     1.0  0.66288  0.77218  0.24429  1.0000
  C   C4295     1.0  0.65799  0.76365  0.24673  1.0000
  C   C4296     1.0  0.65553  0.75826  0.25718  1.0000
  C   C4297     1.0  0.65882  0.76076  0.26504  1.0000
  C   C4298     1.0  0.66386  0.76924  0.26256  1.0000
  H   H4258     1.0  0.66424  0.77675  0.23631  1.0000
  H   H4259     1.0  0.65561  0.76162  0.24062  1.0000
  H   H4260     1.0  0.65717  0.75643  0.27308  1.0000
  H   H4261     1.0  0.66582  0.77160  0.26874  1.0000
  H   H4262     1.0  0.58574  0.80588  0.26671  1.0000
  C   C4299     1.0  0.73624  0.97775  0.27428  1.0000
  C   C4300     1.0  0.73353  0.54691  0.23088  1.0000
  H   H4263     1.0  0.52429  0.73657  0.27932  1.0000
  C   C4301     1.0  0.71551  0.72607  0.35974  1.0000
  C   C4302     1.0  0.73526  0.87690  0.24335  1.0000
  H   H4264     1.0  0.72353  0.90940  0.28660  1.0000
  C   C4303     1.0  0.71468  0.79222  0.36933  1.0000
  C   C4304     1.0  0.72646  0.70505  0.36142  1.0000
  N   N346      1.0  0.59840  0.70463  0.24750  1.0000
  C   C4305     1.0  0.65437  0.75102  0.33874  1.0000
  C   C4306     1.0  0.64518  0.75034  0.33610  1.0000
  C   C4307     1.0  0.64570  0.74722  0.32675  1.0000
  C   C4308     1.0  0.65546  0.74476  0.31994  1.0000
  C   C4309     1.0  0.66457  0.74589  0.32236  1.0000
  C   C4310     1.0  0.66404  0.74899  0.33169  1.0000
  C   C4311     1.0  0.71308  0.88081  0.19641  1.0000
  H   H4265     1.0  0.63863  0.74636  0.32500  1.0000
  H   H4266     1.0  0.67214  0.74407  0.31712  1.0000
  H   H4267     1.0  0.67115  0.74963  0.33350  1.0000
  H   H4268     1.0  0.72691  0.74558  0.34746  1.0000
  C   C4312     1.0  0.73395  0.83411  0.32830  1.0000
  H   H4269     1.0  0.58162  0.75508  0.21040  1.0000
  C   C4313     1.0  0.52001  0.73680  0.24644  1.0000
  C   C4314     1.0  0.70943  0.76917  0.34728  1.0000
  C   C4315     1.0  0.71640  0.77556  0.34635  1.0000
  C   C4316     1.0  0.72710  0.77111  0.34612  1.0000
  C   C4317     1.0  0.71560  0.89657  0.29421  1.0000
  C   C4318     1.0  0.72399  0.75393  0.34718  1.0000
  C   C4319     1.0  0.71326  0.75839  0.34746  1.0000
  C   C4320     1.0  0.49666  0.69048  0.18985  1.0000
  H   H4270     1.0  0.63088  0.70692  0.18943  1.0000
  H   H4271     1.0  0.73380  0.55378  0.20860  1.0000
  C   C4321     1.0  0.72771  0.57881  0.21024  1.0000
  C   C4322     1.0  0.65897  0.78838  0.18180  1.0000
  C   C4323     1.0  0.71487  0.98128  0.29423  1.0000
  H   H4272     1.0  0.71208  0.91882  0.18979  1.0000
  S   S1456     1.0  0.65636  0.74194  0.18411  1.0000
  H   H4273     1.0  0.70220  0.97019  0.27131  1.0000
  H   H4274     1.0  0.71929  0.57948  0.21321  1.0000
  Fe  Fe727     1.0  0.68916  0.73793  0.35943  1.0000
  H   H4275     1.0  0.72310  0.97880  0.29548  1.0000
  H   H4276     1.0  0.51644  0.70012  0.23401  1.0000
  H   H4277     1.0  0.72247  0.82445  0.33612  1.0000
  C   C4324     1.0  0.73711  0.88947  0.25217  1.0000
  S   S1457     1.0  0.50024  0.75873  0.25800  1.0000
  C   C4325     1.0  0.62808  0.78603  0.28729  1.0000
  C   C4326     1.0  0.70541  0.91546  0.21056  1.0000
  C   C4327     1.0  0.68924  0.90449  0.21751  1.0000
  C   C4328     1.0  0.69951  0.91492  0.22089  1.0000
  C   C4329     1.0  0.69147  0.90927  0.22441  1.0000
  H   H4278     1.0  0.71185  0.91961  0.20799  1.0000
  H   H4279     1.0  0.69170  0.89085  0.18510  1.0000
  H   H4280     1.0  0.68703  0.90854  0.23250  1.0000
  N   N347      1.0  0.68538  0.86697  0.27301  1.0000
  C   C4330     1.0  0.68859  0.87386  0.27671  1.0000
  C   C4331     1.0  0.68973  0.85640  0.27518  1.0000
  C   C4332     1.0  0.69641  0.87023  0.28268  1.0000
  C   C4333     1.0  0.69766  0.85253  0.28101  1.0000
  C   C4334     1.0  0.70099  0.85949  0.28479  1.0000
  C   C4335     1.0  0.67693  0.87094  0.26708  1.0000
  H   H4281     1.0  0.68513  0.88224  0.27500  1.0000
  H   H4282     1.0  0.68720  0.85092  0.27224  1.0000
  H   H4283     1.0  0.69887  0.87569  0.28572  1.0000
  H   H4284     1.0  0.70125  0.84418  0.28258  1.0000
  H   H4285     1.0  0.70710  0.85653  0.28936  1.0000
  H   H4286     1.0  0.66916  0.87239  0.27257  1.0000
  H   H4287     1.0  0.67807  0.87842  0.26133  1.0000
  H   H4288     1.0  0.67679  0.86525  0.26249  1.0000
  N   N348      1.0  0.62089  0.75684  0.22730  1.0000
  C   C4336     1.0  0.62248  0.76684  0.22546  1.0000
  C   C4337     1.0  0.62494  0.74907  0.23496  1.0000
  C   C4338     1.0  0.62801  0.76936  0.23156  1.0000
  C   C4339     1.0  0.63045  0.75134  0.24126  1.0000
  C   C4340     1.0  0.63195  0.76157  0.23953  1.0000
  C   C4341     1.0  0.61532  0.75432  0.22061  1.0000
  H   H4289     1.0  0.61947  0.77295  0.21924  1.0000
  H   H4290     1.0  0.62394  0.74107  0.23622  1.0000
  H   H4291     1.0  0.62936  0.77728  0.22998  1.0000
  H   H4292     1.0  0.63360  0.74522  0.24740  1.0000
  H   H4293     1.0  0.63626  0.76344  0.24428  1.0000
  H   H4294     1.0  0.62101  0.75207  0.21351  1.0000
  H   H4295     1.0  0.61128  0.74773  0.22487  1.0000
  H   H4296     1.0  0.60912  0.76120  0.21808  1.0000
  N   N349      1.0  0.59464  0.73641  0.29484  1.0000
  C   C4342     1.0  0.58509  0.74117  0.29217  1.0000
  C   C4343     1.0  0.60204  0.73002  0.28884  1.0000
  C   C4344     1.0  0.58292  0.73988  0.28306  1.0000
  C   C4345     1.0  0.60012  0.72850  0.27972  1.0000
  C   C4346     1.0  0.59050  0.73351  0.27680  1.0000
  C   C4347     1.0  0.59693  0.73785  0.30434  1.0000
  H   H4297     1.0  0.57918  0.74622  0.29692  1.0000
  H   H4298     1.0  0.60951  0.72609  0.29109  1.0000
  H   H4299     1.0  0.57545  0.74393  0.28081  1.0000
  H   H4300     1.0  0.60606  0.72345  0.27496  1.0000
  H   H4301     1.0  0.58892  0.73247  0.26970  1.0000
  H   H4302     1.0  0.59130  0.74462  0.30737  1.0000
  H   H4303     1.0  0.59660  0.73059  0.31062  1.0000
  H   H4304     1.0  0.60493  0.73959  0.30259  1.0000
  S   S1458     1.0  0.65808  0.71336  0.18289  1.0000
  H   H4305     1.0  0.57491  0.79721  0.24396  1.0000
  C   C4348     1.0  0.72342  0.60210  0.29379  1.0000
  C   C4349     1.0  0.73590  0.84690  0.26423  1.0000
  H   H4306     1.0  0.70434  0.77753  0.36750  1.0000
  H   H4307     1.0  0.51379  0.73569  0.26719  1.0000
  H   H4308     1.0  0.55414  0.74542  0.19416  1.0000
  H   H4309     1.0  0.65378  0.72106  0.33259  1.0000
  Fe  Fe728     1.0  0.68711  0.76145  0.35566  1.0000
  H   H4310     1.0  0.71468  0.75305  0.36965  1.0000
  H   H4311     1.0  0.54271  0.73929  0.27223  1.0000
  H   H4312     1.0  0.68899  0.73052  0.33525  1.0000
  C   C4350     1.0  0.59066  0.81433  0.24017  1.0000
  H   H4313     1.0  0.72690  0.89589  0.31519  1.0000
  C   C4351     1.0  0.73696  0.53220  0.25512  1.0000
  H   H4314     1.0  0.57626  0.76745  0.20236  1.0000
  C   C4352     1.0  0.72546  0.72301  0.36234  1.0000
  C   C4353     1.0  0.51263  0.76234  0.25198  1.0000
  S   S1459     1.0  0.70816  0.92842  0.29061  1.0000
  C   C4354     1.0  0.72762  0.97655  0.26106  1.0000
  S   S1460     1.0  0.65357  0.75373  0.35116  1.0000
  C   C4355     1.0  0.69984  0.88895  0.18588  1.0000
  H   H4315     1.0  0.50582  0.73339  0.22291  1.0000
  C   C4356     1.0  0.70524  0.96813  0.27846  1.0000
  H   H4316     1.0  0.68890  0.72371  0.32557  1.0000
  C   C4357     1.0  0.54229  0.73985  0.25624  1.0000
  S   S1461     1.0  0.63619  0.73774  0.17699  1.0000
  H   H4317     1.0  0.71726  0.96086  0.30307  1.0000
  H   H4318     1.0  0.57956  0.78587  0.26570  1.0000
  N   N350      1.0  0.56771  0.75542  0.20558  1.0000
  H   H4319     1.0  0.71350  0.78393  0.34598  1.0000
  H   H4320     1.0  0.58335  0.75626  0.19656  1.0000
  H   H4321     1.0  0.59558  0.70731  0.26284  1.0000
  H   H4322     1.0  0.58486  0.80882  0.22963  1.0000
  Fe  Fe729     1.0  0.73056  0.85102  0.28884  1.0000
  H   H4323     1.0  0.72165  0.63088  0.27785  1.0000
  C   C4358     1.0  0.67143  0.72573  0.34846  1.0000
  C   C4359     1.0  0.70254  0.88323  0.19543  1.0000
  H   H4324     1.0  0.73239  0.77611  0.34550  1.0000
  C   C4360     1.0  0.65873  0.72206  0.33727  1.0000
  H   H4325     1.0  0.61670  0.77841  0.28562  1.0000
  H   H4326     1.0  0.62399  0.78711  0.29516  1.0000
  C   C4361     1.0  0.72547  0.87632  0.25008  1.0000
  H   H4327     1.0  0.67632  0.72732  0.35281  1.0000
  N   N351      1.0  0.68328  0.61478  0.28395  1.0000
  C   C4362     1.0  0.68549  0.60613  0.27962  1.0000
  C   C4363     1.0  0.67385  0.62186  0.28378  1.0000
  C   C4364     1.0  0.67807  0.60429  0.27515  1.0000
  C   C4365     1.0  0.66621  0.62019  0.27947  1.0000
  C   C4366     1.0  0.66836  0.61135  0.27513  1.0000
  C   C4367     1.0  0.69135  0.61683  0.28814  1.0000
  H   H4328     1.0  0.69308  0.60066  0.27950  1.0000
  H   H4329     1.0  0.67223  0.62892  0.28685  1.0000
  H   H4330     1.0  0.67992  0.59758  0.27147  1.0000
  H   H4331     1.0  0.65883  0.62594  0.27912  1.0000
  H   H4332     1.0  0.66268  0.61017  0.27137  1.0000
  H   H4333     1.0  0.68777  0.62137  0.29446  1.0000
  H   H4334     1.0  0.69632  0.60933  0.29164  1.0000
  H   H4335     1.0  0.69657  0.62133  0.28171  1.0000
  H   H4336     1.0  0.70531  0.91006  0.18768  1.0000
  H   H4337     1.0  0.73548  0.96314  0.27108  1.0000
  C   C4368     1.0  0.73159  0.81669  0.31201  1.0000
  S   S1462     1.0  0.67067  0.76412  0.36545  1.0000
  H   H4338     1.0  0.69873  0.79068  0.36123  1.0000
  C   C4369     1.0  0.71913  0.88281  0.32227  1.0000
  C   C4370     1.0  0.55581  0.74860  0.20000  1.0000
  C   C4371     1.0  0.73265  0.52648  0.25074  1.0000
  C   C4372     1.0  0.54857  0.74939  0.20948  1.0000
  H   H4339     1.0  0.68306  0.90000  0.22014  1.0000
  H   H4340     1.0  0.71817  0.79122  0.36131  1.0000
  H   H4341     1.0  0.69170  0.78437  0.37355  1.0000
  H   H4342     1.0  0.64586  0.72542  0.35024  1.0000
  N   N352      1.0  0.65571  0.71463  0.25614  1.0000
  C   C4373     1.0  0.65718  0.72473  0.25384  1.0000
  C   C4374     1.0  0.65412  0.71054  0.24856  1.0000
  C   C4375     1.0  0.65673  0.73114  0.24383  1.0000
  C   C4376     1.0  0.65351  0.71677  0.23851  1.0000
  C   C4377     1.0  0.65481  0.72715  0.23615  1.0000
  C   C4378     1.0  0.65623  0.70804  0.26667  1.0000
  H   H4343     1.0  0.65860  0.72793  0.25979  1.0000
  H   H4344     1.0  0.65296  0.70253  0.25036  1.0000
  H   H4345     1.0  0.65779  0.73920  0.24208  1.0000
  H   H4346     1.0  0.65187  0.71359  0.23266  1.0000
  H   H4347     1.0  0.65435  0.73207  0.22838  1.0000
  H   H4348     1.0  0.66455  0.70419  0.26710  1.0000
  H   H4349     1.0  0.65285  0.71283  0.27283  1.0000
  H   H4350     1.0  0.65152  0.70186  0.26866  1.0000
  N   N353      1.0  0.68425  0.82926  0.22735  1.0000
  C   C4379     1.0  0.67903  0.82152  0.22828  1.0000
  C   C4380     1.0  0.68995  0.82852  0.23464  1.0000
  C   C4381     1.0  0.67927  0.81286  0.23679  1.0000
  C   C4382     1.0  0.69027  0.82002  0.24330  1.0000
  C   C4383     1.0  0.68488  0.81215  0.24436  1.0000
  C   C4384     1.0  0.68410  0.83814  0.21824  1.0000
  H   H4351     1.0  0.67441  0.82217  0.22258  1.0000
  H   H4352     1.0  0.69397  0.83472  0.23401  1.0000
  H   H4353     1.0  0.67500  0.80681  0.23763  1.0000
  H   H4354     1.0  0.69447  0.81969  0.24926  1.0000
  H   H4355     1.0  0.68492  0.80554  0.25109  1.0000
  H   H4356     1.0  0.69051  0.83603  0.21153  1.0000
  H   H4357     1.0  0.67638  0.84030  0.21581  1.0000
  H   H4358     1.0  0.68512  0.84529  0.22015  1.0000
  N   N354      1.0  0.68058  0.63997  0.22696  1.0000
  C   C4385     1.0  0.67337  0.63905  0.22194  1.0000
  C   C4386     1.0  0.67871  0.64838  0.23156  1.0000
  C   C4387     1.0  0.66392  0.64658  0.22161  1.0000
  C   C4388     1.0  0.66931  0.65600  0.23144  1.0000
  C   C4389     1.0  0.66190  0.65507  0.22642  1.0000
  C   C4390     1.0  0.69057  0.63217  0.22700  1.0000
  H   H4359     1.0  0.67485  0.63241  0.21826  1.0000
  H   H4360     1.0  0.68439  0.64910  0.23557  1.0000
  H   H4361     1.0  0.65815  0.64583  0.21771  1.0000
  H   H4362     1.0  0.66768  0.66246  0.23542  1.0000
  H   H4363     1.0  0.65455  0.66088  0.22632  1.0000
  H   H4364     1.0  0.69325  0.63092  0.23444  1.0000
  H   H4365     1.0  0.68966  0.62434  0.22657  1.0000
  H   H4366     1.0  0.69676  0.63484  0.22023  1.0000
  N   N355      1.0  0.57934  0.80123  0.25622  1.0000
  H   H4367     1.0  0.51132  0.76432  0.23598  1.0000
  H   H4368     1.0  0.60592  0.71885  0.22299  1.0000
  H   H4369     1.0  0.73181  0.53780  0.25974  1.0000
  C   C4391     1.0  0.51632  0.76435  0.24105  1.0000
  C   C4392     1.0  0.72557  0.61895  0.21429  1.0000
  H   H4370     1.0  0.60921  0.70187  0.25751  1.0000
  H   H4371     1.0  0.52224  0.72859  0.24522  1.0000
  H   H4372     1.0  0.74033  0.54084  0.22900  1.0000
  H   H4373     1.0  0.52926  0.76799  0.22820  1.0000
  H   H4374     1.0  0.65724  0.72860  0.36035  1.0000
  C   C4393     1.0  0.65429  0.72453  0.34715  1.0000
  H   H4375     1.0  0.60865  0.68475  0.21686  1.0000
  C   C4394     1.0  0.49721  0.70968  0.20640  1.0000
  C   C4395     1.0  0.60032  0.73698  0.18840  1.0000
  H   H4376     1.0  0.72793  0.81207  0.31964  1.0000
  H   H4377     1.0  0.66743  0.79040  0.19240  1.0000
  H   H4378     1.0  0.62307  0.69444  0.21006  1.0000
  H   H4379     1.0  0.73778  0.58488  0.28303  1.0000
  N   N356      1.0  0.61551  0.70576  0.19843  1.0000
  C   C4396     1.0  0.61617  0.69715  0.20657  1.0000
  C   C4397     1.0  0.60701  0.70883  0.19373  1.0000
  C   C4398     1.0  0.60801  0.69162  0.21046  1.0000
  C   C4399     1.0  0.59863  0.70358  0.19750  1.0000
  C   C4400     1.0  0.59916  0.69491  0.20593  1.0000
  C   C4401     1.0  0.73293  0.62085  0.21879  1.0000
  C   C4402     1.0  0.66952  0.72160  0.33312  1.0000
  H   H4380     1.0  0.63765  0.75195  0.34147  1.0000
  H   H4381     1.0  0.71519  0.87637  0.20379  1.0000
  H   H4382     1.0  0.72285  0.61551  0.20061  1.0000
  H   H4383     1.0  0.52158  0.74232  0.23871  1.0000
  S   S1463     1.0  0.69588  0.77455  0.34907  1.0000
  H   H4384     1.0  0.60653  0.73976  0.18214  1.0000
  C   C4403     1.0  0.72853  0.61702  0.20407  1.0000
  C   C4404     1.0  0.72614  0.61976  0.29155  1.0000
  C   C4405     1.0  0.70964  0.91113  0.19315  1.0000
  H   H4385     1.0  0.59201  0.73456  0.17787  1.0000
  H   H4386     1.0  0.61017  0.71383  0.24068  1.0000
  H   H4387     1.0  0.72736  0.59417  0.21259  1.0000
  H   H4388     1.0  0.58102  0.70160  0.23509  1.0000
  N   N357      1.0  0.67567  0.72361  0.33865  1.0000
  H   H4389     1.0  0.69322  0.90181  0.20183  1.0000
  H   H4390     1.0  0.72904  0.88242  0.18851  1.0000
  H   H4391     1.0  0.72100  0.56192  0.21154  1.0000
  H   H4392     1.0  0.59134  0.71246  0.22011  1.0000
  C   C4406     1.0  0.68689  0.72349  0.33416  1.0000
  H   H4393     1.0  0.69179  0.71632  0.33822  1.0000
  C   C4407     1.0  0.72090  0.88420  0.18778  1.0000
  H   H4394     1.0  0.64269  0.78134  0.25962  1.0000
  H   H4395     1.0  0.62931  0.76523  0.26822  1.0000
  C   C4408     1.0  0.73223  0.58715  0.20992  1.0000
  N   N358      1.0  0.72025  0.87231  0.32689  1.0000
  C   C4409     1.0  0.66655  0.76692  0.18818  1.0000
  C   C4410     1.0  0.72168  0.88237  0.25779  1.0000
  H   H4396     1.0  0.73884  0.85038  0.21418  1.0000
  C   C4411     1.0  0.58756  0.70417  0.23617  1.0000
  C   C4412     1.0  0.65443  0.69352  0.18781  1.0000
  C   C4413     1.0  0.62399  0.78109  0.28185  1.0000
  H   H4397     1.0  0.57153  0.79629  0.27221  1.0000
  C   C4414     1.0  0.59020  0.70141  0.24604  1.0000
  S   S1464     1.0  0.72973  0.62912  0.29611  1.0000
  C   C4415     1.0  0.72681  0.60935  0.29725  1.0000
  C   C4416     1.0  0.63753  0.78938  0.28256  1.0000
  C   C4417     1.0  0.73490  0.55597  0.23308  1.0000
  C   C4418     1.0  0.73088  0.76027  0.34669  1.0000
  Fe  Fe730     1.0  0.72591  0.95130  0.25910  1.0000
  H   H4398     1.0  0.72414  0.52766  0.25185  1.0000
  N   N359      1.0  0.52608  0.73781  0.25353  1.0000
  C   C4419     1.0  0.53805  0.73880  0.26701  1.0000
  H   H4399     1.0  0.58566  0.69663  0.25253  1.0000
  H   H4400     1.0  0.73664  0.65161  0.34470  1.0000
  H   H4401     1.0  0.62670  0.77690  0.25807  1.0000
  C   C4420     1.0  0.53616  0.73935  0.24958  1.0000
  H   H4402     1.0  0.59988  0.69355  0.26191  1.0000
  N   N360      1.0  0.62920  0.77951  0.27200  1.0000
  H   H4403     1.0  0.64085  0.79315  0.28671  1.0000
  H   H4404     1.0  0.73064  0.81380  0.30541  1.0000
  C   C4421     1.0  0.57771  0.75874  0.20360  1.0000
  H   H4405     1.0  0.54111  0.74701  0.21100  1.0000
  C   C4422     1.0  0.73177  0.48319  0.20712  1.0000
  C   C4423     1.0  0.62525  0.77366  0.26671  1.0000
  C   C4424     1.0  0.56061  0.75628  0.21487  1.0000
  C   C4425     1.0  0.72994  0.86632  0.32830  1.0000
  S   S1465     1.0  0.67304  0.73862  0.36976  1.0000
  H   H4406     1.0  0.71144  0.73421  0.35888  1.0000
  C   C4426     1.0  0.55097  0.75325  0.21697  1.0000
  N   N361      1.0  0.72749  0.88886  0.25874  1.0000
  H   H4407     1.0  0.56234  0.75940  0.22070  1.0000
  C   C4427     1.0  0.71625  0.90723  0.29119  1.0000
  H   H4408     1.0  0.72899  0.89241  0.27258  1.0000
  H   H4409     1.0  0.60668  0.71536  0.18699  1.0000
  H   H4410     1.0  0.67416  0.77114  0.19815  1.0000
  C   C4428     1.0  0.71383  0.96297  0.29617  1.0000
  C   C4429     1.0  0.71806  0.89017  0.17832  1.0000
  C   C4430     1.0  0.65997  0.77076  0.18092  1.0000
  C   C4431     1.0  0.71119  0.86727  0.32976  1.0000
  H   H4411     1.0  0.72347  0.90352  0.26335  1.0000
  H   H4412     1.0  0.50428  0.71251  0.18275  1.0000
  H   H4413     1.0  0.73370  0.75077  0.36885  1.0000
  H   H4414     1.0  0.70477  0.95168  0.28158  1.0000
  H   H4415     1.0  0.72971  0.60696  0.30447  1.0000
  C   C4432     1.0  0.50419  0.72558  0.22635  1.0000
  H   H4416     1.0  0.72891  0.72879  0.36369  1.0000
  C   C4433     1.0  0.73336  0.97164  0.26896  1.0000
  H   H4417     1.0  0.72827  0.84065  0.32510  1.0000
  S   S1466     1.0  0.69372  0.74795  0.36756  1.0000
  S   S1467     1.0  0.73377  0.80476  0.34617  1.0000
  H   H4418     1.0  0.72719  0.82502  0.31149  1.0000
  H   H4419     1.0  0.59277  0.69068  0.20881  1.0000
  C   C4434     1.0  0.72781  0.88762  0.31907  1.0000
  H   H4420     1.0  0.71141  0.86114  0.33715  1.0000
  H   H4421     1.0  0.71682  0.90471  0.19331  1.0000
  N   N362      1.0  0.49820  0.69954  0.18262  1.0000
  C   C4435     1.0  0.71114  0.95510  0.29303  1.0000
  C   C4436     1.0  0.71646  0.70811  0.35889  1.0000
  H   H4422     1.0  0.73061  0.69689  0.36220  1.0000
  H   H4423     1.0  0.66916  0.75849  0.19088  1.0000
  H   H4424     1.0  0.70360  0.87310  0.33100  1.0000
  H   H4425     1.0  0.71294  0.70231  0.35769  1.0000
  C   C4437     1.0  0.73708  0.85006  0.25327  1.0000
  H   H4426     1.0  0.71125  0.86356  0.32331  1.0000
  Fe  Fe731     1.0  0.73515  0.52659  0.21667  1.0000
  S   S1468     1.0  0.73356  0.52653  0.20046  1.0000
  S   S1469     1.0  0.73645  0.87190  0.29991  1.0000
  C   C4438     1.0  0.51010  0.70692  0.23261  1.0000
  H   H4427     1.0  0.72759  0.79838  0.37032  1.0000
  N   N363      1.0  0.65617  0.78135  0.17792  1.0000
  H   H4428     1.0  0.65807  0.69329  0.17965  1.0000
  C   C4439     1.0  0.73770  0.88160  0.32060  1.0000
  H   H4429     1.0  0.65771  0.76521  0.17786  1.0000
  C   C4440     1.0  0.72006  0.79628  0.37438  1.0000
  N   N364      1.0  0.70513  0.78967  0.37439  1.0000
  C   C4441     1.0  0.73890  0.61689  0.19838  1.0000
  C   C4442     1.0  0.73794  0.81640  0.33891  1.0000
  C   C4443     1.0  0.73879  0.87087  0.32524  1.0000
  Fe  Fe732     1.0  0.74023  0.85430  0.30505  1.0000
  H   H4430     1.0  0.73829  0.87214  0.23741  1.0000
  H   H4431     1.0  0.49805  0.69786  0.23755  1.0000
  C   C4444     1.0  0.49969  0.70570  0.23455  1.0000
  N   N365      1.0  0.49177  0.71422  0.23235  1.0000
  C   C4445     1.0  0.72802  0.75316  0.37563  1.0000
  C   C4446     1.0  0.49385  0.72409  0.22861  1.0000
  C   C4447     1.0  0.71725  0.75439  0.37606  1.0000
  C   C4448     1.0  0.70755  0.89249  0.17739  1.0000
  C   C4449     1.0  0.70590  0.79505  0.38974  1.0000
  Fe  Fe733     1.0  0.72797  0.76586  0.51782  1.0000
  H   H4432     1.0  0.73328  0.78511  0.57509  1.0000
  H   H4433     1.0  0.70690  0.80397  0.50384  1.0000
  C   C4450     1.0  0.71400  0.71627  0.38750  1.0000
  N   N366      1.0  0.73132  0.75495  0.38363  1.0000
  S   S1470     1.0  0.72616  0.74915  0.52185  1.0000
  H   H4434     1.0  0.70117  0.79589  0.46807  1.0000
  C   C4451     1.0  0.73717  0.80551  0.54791  1.0000
  C   C4452     1.0  0.72415  0.75772  0.39228  1.0000
  S   S1471     1.0  0.67717  0.74715  0.39422  1.0000
  C   C4453     1.0  0.71332  0.75904  0.39298  1.0000
  H   H4435     1.0  0.69465  0.73284  0.40024  1.0000
  C   C4454     1.0  0.69518  0.72096  0.38709  1.0000
  C   C4455     1.0  0.70253  0.72854  0.39745  1.0000
  H   H4436     1.0  0.71037  0.80523  0.47513  1.0000
  C   C4456     1.0  0.73524  0.75438  0.45118  1.0000
  C   C4457     1.0  0.70478  0.80072  0.48053  1.0000
  S   S1472     1.0  0.71741  0.77753  0.50793  1.0000
  C   C4458     1.0  0.71049  0.79882  0.55109  1.0000
  Fe  Fe734     1.0  0.71513  0.78781  0.51915  1.0000
  S   S1473     1.0  0.69902  0.79510  0.52697  1.0000
  N   N367      1.0  0.70302  0.80000  0.49115  1.0000
  S   S1474     1.0  0.72420  0.77541  0.52999  1.0000
  C   C4459     1.0  0.70843  0.80576  0.49508  1.0000
  Fe  Fe735     1.0  0.70932  0.77525  0.44024  1.0000
  S   S1475     1.0  0.72576  0.77203  0.43065  1.0000
  S   S1476     1.0  0.70749  0.77305  0.45800  1.0000
  Fe  Fe736     1.0  0.69936  0.77821  0.42116  1.0000
  S   S1477     1.0  0.71516  0.77532  0.41047  1.0000
  S   S1478     1.0  0.68652  0.78224  0.41187  1.0000
  Fe  Fe737     1.0  0.71964  0.76216  0.42356  1.0000
  H   H4437     1.0  0.71711  0.80357  0.49210  1.0000
  Fe  Fe738     1.0  0.71957  0.78554  0.41843  1.0000
  S   S1479     1.0  0.72841  0.79744  0.40730  1.0000
  S   S1480     1.0  0.70354  0.76426  0.43399  1.0000
  S   S1481     1.0  0.70339  0.78957  0.42837  1.0000
  H   H4438     1.0  0.71959  0.80089  0.38869  1.0000
  C   C4460     1.0  0.72821  0.78686  0.46414  1.0000
  H   H4439     1.0  0.68590  0.78360  0.49969  1.0000
  H   H4440     1.0  0.69480  0.79346  0.50643  1.0000
  H   H4441     1.0  0.72009  0.73790  0.45580  1.0000
  C   C4461     1.0  0.72764  0.78292  0.47501  1.0000
  Fe  Fe739     1.0  0.73171  0.78412  0.49971  1.0000
  C   C4462     1.0  0.72242  0.78363  0.45869  1.0000
  C   C4463     1.0  0.71593  0.77646  0.46410  1.0000
  C   C4464     1.0  0.71566  0.77224  0.47487  1.0000
  C   C4465     1.0  0.72152  0.77539  0.48027  1.0000
  S   S1482     1.0  0.72764  0.74629  0.41972  1.0000
  H   H4442     1.0  0.72272  0.78695  0.45038  1.0000
  H   H4443     1.0  0.71074  0.76663  0.47913  1.0000
  H   H4444     1.0  0.72118  0.77203  0.48853  1.0000
  H   H4445     1.0  0.71470  0.78238  0.55052  1.0000
  H   H4446     1.0  0.70148  0.75835  0.38524  1.0000
  H   H4447     1.0  0.70571  0.81438  0.49237  1.0000
  H   H4448     1.0  0.70697  0.80122  0.54421  1.0000
  C   C4466     1.0  0.71063  0.80628  0.55647  1.0000
  H   H4449     1.0  0.69764  0.71931  0.37903  1.0000
  Fe  Fe740     1.0  0.67719  0.74990  0.37689  1.0000
  H   H4450     1.0  0.69195  0.77758  0.56386  1.0000
  H   H4451     1.0  0.70237  0.79609  0.39775  1.0000
  C   C4467     1.0  0.69111  0.78849  0.49423  1.0000
  C   C4468     1.0  0.69286  0.78919  0.48340  1.0000
  C   C4469     1.0  0.71955  0.78527  0.56335  1.0000
  S   S1483     1.0  0.72870  0.79557  0.51043  1.0000
  C   C4470     1.0  0.69621  0.79406  0.49799  1.0000
  H   H4452     1.0  0.72897  0.76107  0.45281  1.0000
  C   C4471     1.0  0.73645  0.74034  0.52719  1.0000
  C   C4472     1.0  0.68017  0.75692  0.39876  1.0000
  C   C4473     1.0  0.68489  0.75399  0.40754  1.0000
  C   C4474     1.0  0.68713  0.76165  0.41146  1.0000
  C   C4475     1.0  0.68430  0.77235  0.40686  1.0000
  C   C4476     1.0  0.67947  0.77527  0.39817  1.0000
  C   C4477     1.0  0.67767  0.76758  0.39396  1.0000
  H   H4453     1.0  0.68664  0.74579  0.41147  1.0000
  H   H4454     1.0  0.69068  0.75932  0.41828  1.0000
  H   H4455     1.0  0.67692  0.78353  0.39478  1.0000
  H   H4456     1.0  0.67385  0.76994  0.38732  1.0000
  H   H4457     1.0  0.70769  0.76132  0.39984  1.0000
  H   H4458     1.0  0.72770  0.72451  0.40049  1.0000
  H   H4459     1.0  0.73045  0.71257  0.38829  1.0000
  C   C4478     1.0  0.72109  0.72386  0.39770  1.0000
  H   H4460     1.0  0.72298  0.77703  0.56602  1.0000
  H   H4461     1.0  0.71524  0.71093  0.38232  1.0000
  C   C4479     1.0  0.71536  0.80304  0.56521  1.0000
  C   C4480     1.0  0.71096  0.72958  0.40105  1.0000
  C   C4481     1.0  0.69709  0.76650  0.55365  1.0000
  C   C4482     1.0  0.69954  0.76537  0.54322  1.0000
  C   C4483     1.0  0.69908  0.77430  0.53501  1.0000
  C   C4484     1.0  0.69613  0.78441  0.53718  1.0000
  C   C4485     1.0  0.69302  0.78556  0.54763  1.0000
  C   C4486     1.0  0.69368  0.77661  0.55586  1.0000
  H   H4462     1.0  0.70220  0.75759  0.54143  1.0000
  H   H4463     1.0  0.70147  0.77332  0.52696  1.0000
  H   H4464     1.0  0.69077  0.79335  0.54937  1.0000
  H   H4465     1.0  0.68912  0.78478  0.48033  1.0000
  S   S1484     1.0  0.69916  0.75524  0.56366  1.0000
  C   C4487     1.0  0.72211  0.74517  0.45024  1.0000
  N   N368      1.0  0.73301  0.74559  0.44975  1.0000
  H   H4466     1.0  0.69321  0.78904  0.38853  1.0000
  C   C4488     1.0  0.72263  0.71713  0.39090  1.0000
  N   N369      1.0  0.70415  0.72211  0.39060  1.0000
  C   C4489     1.0  0.70076  0.79101  0.38447  1.0000
  C   C4490     1.0  0.70986  0.75737  0.38480  1.0000
  C   C4491     1.0  0.69964  0.79543  0.47649  1.0000
  H   H4467     1.0  0.70963  0.73470  0.40649  1.0000
  C   C4492     1.0  0.71560  0.79770  0.38465  1.0000
  H   H4468     1.0  0.72806  0.72769  0.53269  1.0000
  N   N370      1.0  0.71983  0.79265  0.56847  1.0000
  H   H4469     1.0  0.71633  0.75202  0.45298  1.0000
  C   C4493     1.0  0.72920  0.75410  0.55149  1.0000
  H   H4470     1.0  0.73298  0.79262  0.45993  1.0000
  Fe  Fe741     1.0  0.73808  0.78235  0.52079  1.0000
  S   S1485     1.0  0.73437  0.78783  0.48177  1.0000
  H   H4471     1.0  0.71744  0.74165  0.55060  1.0000
  H   H4472     1.0  0.70723  0.81454  0.55382  1.0000
  H   H4473     1.0  0.72117  0.74518  0.44230  1.0000
  H   H4474     1.0  0.72581  0.72948  0.55532  1.0000
  H   H4475     1.0  0.73183  0.81314  0.54708  1.0000
  H   H4476     1.0  0.71797  0.73783  0.56438  1.0000
  C   C4494     1.0  0.71491  0.78823  0.55458  1.0000
  H   H4477     1.0  0.68897  0.72833  0.38671  1.0000
  C   C4495     1.0  0.72274  0.73775  0.55627  1.0000
  H   H4478     1.0  0.72682  0.75891  0.39871  1.0000
  C   C4496     1.0  0.73531  0.73005  0.53212  1.0000
  H   H4479     1.0  0.71567  0.80892  0.56920  1.0000
  H   H4480     1.0  0.73457  0.80204  0.53414  1.0000
  H   H4481     1.0  0.72127  0.75846  0.55075  1.0000
  C   C4497     1.0  0.73726  0.75961  0.54941  1.0000
  H   H4482     1.0  0.73786  0.80184  0.38507  1.0000
  H   H4483     1.0  0.73925  0.73034  0.44614  1.0000
  H   H4484     1.0  0.73518  0.75327  0.49746  1.0000
  H   H4485     1.0  0.69167  0.71444  0.39261  1.0000
  N   N371      1.0  0.73129  0.74333  0.55421  1.0000
  S   S1486     1.0  0.74005  0.81028  0.56544  1.0000
  C   C4498     1.0  0.73913  0.79038  0.39956  1.0000
  H   H4486     1.0  0.73568  0.76814  0.54705  1.0000
  C   C4499     1.0  0.73870  0.79922  0.54056  1.0000
  H   H4487     1.0  0.69047  0.93862  0.69738  1.0000
  S   S1487     1.0  0.63589  0.66874  0.76215  1.0000
  H   H4488     1.0  0.57697  0.80419  0.68450  1.0000
  H   H4489     1.0  0.59207  0.74567  0.71216  1.0000
  S   S1488     1.0  0.55176  0.72574  0.76577  1.0000
  Fe  Fe742     1.0  0.73698  0.80138  0.60421  1.0000
  Fe  Fe743     1.0  0.67149  0.86205  0.72636  1.0000
  S   S1489     1.0  0.68344  0.84845  0.73292  1.0000
  S   S1490     1.0  0.65411  0.86211  0.72861  1.0000
  Fe  Fe744     1.0  0.68834  0.87484  0.71380  1.0000
  S   S1491     1.0  0.70165  0.86202  0.71882  1.0000
  S   S1492     1.0  0.69233  0.88964  0.70252  1.0000
  Fe  Fe745     1.0  0.69292  0.85108  0.71641  1.0000
  S   S1493     1.0  0.70010  0.83799  0.70772  1.0000
  Fe  Fe746     1.0  0.69104  0.86070  0.73483  1.0000
  S   S1494     1.0  0.69670  0.85939  0.74964  1.0000
  S   S1495     1.0  0.68069  0.86404  0.70969  1.0000
  S   S1496     1.0  0.67800  0.87420  0.72997  1.0000
  H   H4490     1.0  0.69527  0.96535  0.68527  1.0000
  S   S1497     1.0  0.73098  0.93380  0.71672  1.0000
  H   H4491     1.0  0.61346  0.78204  0.67818  1.0000
  S   S1498     1.0  0.69062  0.74694  0.59414  1.0000
  H   H4492     1.0  0.67187  0.79406  0.59652  1.0000
  H   H4493     1.0  0.71446  0.73668  0.59005  1.0000
  C   C4500     1.0  0.73038  0.71283  0.60686  1.0000
  C   C4501     1.0  0.58498  0.80362  0.68521  1.0000
  C   C4502     1.0  0.72406  0.61115  0.76225  1.0000
  H   H4494     1.0  0.69020  0.95487  0.68393  1.0000
  C   C4503     1.0  0.72500  0.78930  0.57746  1.0000
  C   C4504     1.0  0.73254  0.61461  0.76345  1.0000
  C   C4505     1.0  0.58684  0.80895  0.69188  1.0000
  Fe  Fe747     1.0  0.64659  0.67603  0.74771  1.0000
  S   S1499     1.0  0.64491  0.69062  0.75341  1.0000
  S   S1500     1.0  0.66355  0.66949  0.74098  1.0000
  Fe  Fe748     1.0  0.62312  0.67737  0.75315  1.0000
  S   S1501     1.0  0.61937  0.69196  0.75953  1.0000
  S   S1502     1.0  0.60950  0.67171  0.75166  1.0000
  Fe  Fe749     1.0  0.63130  0.69735  0.74543  1.0000
  S   S1503     1.0  0.62862  0.71436  0.73728  1.0000
  S   S1504     1.0  0.49262  0.77861  0.68782  1.0000
  H   H4495     1.0  0.49415  0.76128  0.73324  1.0000
  S   S1505     1.0  0.63405  0.68343  0.73826  1.0000
  Fe  Fe750     1.0  0.73621  0.92808  0.68895  1.0000
  Fe  Fe751     1.0  0.62571  0.73591  0.68245  1.0000
  S   S1506     1.0  0.62863  0.74138  0.66484  1.0000
  S   S1507     1.0  0.61815  0.72259  0.69259  1.0000
  Fe  Fe752     1.0  0.63605  0.75174  0.68553  1.0000
  S   S1508     1.0  0.64004  0.75888  0.66830  1.0000
  S   S1509     1.0  0.63852  0.75597  0.69946  1.0000
  Fe  Fe753     1.0  0.62374  0.75766  0.66827  1.0000
  S   S1510     1.0  0.61390  0.77147  0.65920  1.0000
  Fe  Fe754     1.0  0.64464  0.74218  0.66625  1.0000
  S   S1511     1.0  0.66008  0.73668  0.65577  1.0000
  S   S1512     1.0  0.61935  0.75212  0.68568  1.0000
  S   S1513     1.0  0.64220  0.73514  0.68351  1.0000
  Fe  Fe755     1.0  0.61709  0.79564  0.73429  1.0000
  S   S1514     1.0  0.61058  0.81048  0.74047  1.0000
  S   S1515     1.0  0.61592  0.77904  0.74294  1.0000
  Fe  Fe756     1.0  0.62369  0.80759  0.71188  1.0000
  S   S1516     1.0  0.61782  0.82345  0.71607  1.0000
  S   S1517     1.0  0.62982  0.80503  0.69542  1.0000
  Fe  Fe757     1.0  0.62528  0.81589  0.73019  1.0000
  S   S1518     1.0  0.63807  0.81983  0.73577  1.0000
  Fe  Fe758     1.0  0.60379  0.81657  0.72585  1.0000
  S   S1519     1.0  0.58673  0.82468  0.72627  1.0000
  S   S1520     1.0  0.63219  0.80041  0.72512  1.0000
  S   S1521     1.0  0.60925  0.80139  0.72055  1.0000
  Fe  Fe759     1.0  0.55950  0.78230  0.69377  1.0000
  S   S1522     1.0  0.54373  0.79119  0.70099  1.0000
  S   S1523     1.0  0.56489  0.78563  0.67627  1.0000
  Fe  Fe760     1.0  0.56432  0.76996  0.71467  1.0000
  S   S1524     1.0  0.54887  0.77746  0.72366  1.0000
  S   S1525     1.0  0.57626  0.75967  0.72387  1.0000
  Fe  Fe761     1.0  0.54172  0.77535  0.71120  1.0000
  S   S1526     1.0  0.52758  0.76755  0.71542  1.0000
  Fe  Fe762     1.0  0.55249  0.79239  0.71260  1.0000
  S   S1527     1.0  0.55068  0.80686  0.71883  1.0000
  S   S1528     1.0  0.55710  0.76638  0.70320  1.0000
  S   S1529     1.0  0.56834  0.78497  0.70435  1.0000
  H   H4496     1.0  0.64932  0.70021  0.68847  1.0000
  H   H4497     1.0  0.61099  0.79106  0.66610  1.0000
  Fe  Fe763     1.0  0.56216  0.71219  0.75884  1.0000
  H   H4498     1.0  0.63504  0.73940  0.76780  1.0000
  S   S1530     1.0  0.56674  0.71418  0.74131  1.0000
  H   H4499     1.0  0.65568  0.81644  0.71508  1.0000
  C   C4506     1.0  0.73810  0.90175  0.73240  1.0000
  C   C4507     1.0  0.72101  0.88713  0.69166  1.0000
  H   H4500     1.0  0.73222  0.62376  0.69303  1.0000
  C   C4508     1.0  0.51876  0.77158  0.67263  1.0000
  C   C4509     1.0  0.72739  0.82205  0.61984  1.0000
  S   S1531     1.0  0.68139  0.77196  0.58456  1.0000
  H   H4501     1.0  0.67789  0.83609  0.76985  1.0000
  H   H4502     1.0  0.72448  0.72158  0.61920  1.0000
  H   H4503     1.0  0.65858  0.67827  0.72055  1.0000
  H   H4504     1.0  0.65791  0.77846  0.64164  1.0000
  Fe  Fe764     1.0  0.67833  0.76028  0.59972  1.0000
  S   S1532     1.0  0.68869  0.76511  0.60728  1.0000
  S   S1533     1.0  0.66193  0.75836  0.60801  1.0000
  Fe  Fe765     1.0  0.70133  0.75260  0.60050  1.0000
  S   S1534     1.0  0.71206  0.74119  0.61052  1.0000
  Fe  Fe766     1.0  0.69306  0.77554  0.59150  1.0000
  C   C4510     1.0  0.66910  0.79008  0.60456  1.0000
  Fe  Fe767     1.0  0.69375  0.61467  0.73645  1.0000
  S   S1535     1.0  0.70385  0.62069  0.74335  1.0000
  S   S1536     1.0  0.67670  0.62220  0.73607  1.0000
  Fe  Fe768     1.0  0.71048  0.59512  0.73266  1.0000
  S   S1537     1.0  0.72184  0.59925  0.73953  1.0000
  S   S1538     1.0  0.71669  0.58045  0.72616  1.0000
  Fe  Fe769     1.0  0.70786  0.60393  0.75191  1.0000
  Fe  Fe770     1.0  0.71692  0.61551  0.73026  1.0000
  N   N372      1.0  0.66235  0.77946  0.62506  1.0000
  S   S1539     1.0  0.69684  0.59815  0.74607  1.0000
  S   S1540     1.0  0.70646  0.61112  0.72241  1.0000
  H   H4505     1.0  0.71954  0.56857  0.75645  1.0000
  S   S1541     1.0  0.70878  0.54078  0.76223  1.0000
  H   H4506     1.0  0.68412  0.82515  0.71518  1.0000
  C   C4511     1.0  0.69291  0.94244  0.70218  1.0000
  H   H4507     1.0  0.65690  0.78498  0.60083  1.0000
  H   H4508     1.0  0.72297  0.49117  0.74618  1.0000
  H   H4509     1.0  0.65114  0.68402  0.70450  1.0000
  S   S1542     1.0  0.69459  0.79226  0.58866  1.0000
  H   H4510     1.0  0.67359  0.81141  0.71889  1.0000
  C   C4512     1.0  0.56997  0.78813  0.73959  1.0000
  C   C4513     1.0  0.51691  0.69715  0.76658  1.0000
  Fe  Fe771     1.0  0.69480  0.75908  0.57960  1.0000
  N   N373      1.0  0.69600  0.95187  0.69797  1.0000
  C   C4514     1.0  0.67626  0.82724  0.71352  1.0000
  H   H4511     1.0  0.64041  0.83044  0.71234  1.0000
  N   N374      1.0  0.57843  0.79842  0.74552  1.0000
  H   H4512     1.0  0.70340  0.89675  0.68020  1.0000
  C   C4515     1.0  0.71884  0.73002  0.59478  1.0000
  H   H4513     1.0  0.71516  0.87528  0.67565  1.0000
  N   N375      1.0  0.65611  0.83274  0.70932  1.0000
  C   C4516     1.0  0.72663  0.86827  0.69674  1.0000
  C   C4517     1.0  0.71406  0.56926  0.73574  1.0000
  C   C4518     1.0  0.72182  0.55995  0.73628  1.0000
  C   C4519     1.0  0.72016  0.55119  0.74440  1.0000
  C   C4520     1.0  0.71056  0.55154  0.75172  1.0000
  C   C4521     1.0  0.70263  0.56071  0.75096  1.0000
  C   C4522     1.0  0.70445  0.56964  0.74306  1.0000
  H   H4514     1.0  0.72920  0.55955  0.73056  1.0000
  H   H4515     1.0  0.69518  0.56099  0.75660  1.0000
  H   H4516     1.0  0.69835  0.57675  0.74253  1.0000
  H   H4517     1.0  0.59570  0.77633  0.73965  1.0000
  H   H4518     1.0  0.72626  0.54411  0.74490  1.0000
  C   C4523     1.0  0.66784  0.63176  0.76273  1.0000
  C   C4524     1.0  0.70445  0.78574  0.60535  1.0000
  C   C4525     1.0  0.64367  0.70359  0.69501  1.0000
  H   H4519     1.0  0.70184  0.77846  0.60699  1.0000
  C   C4526     1.0  0.69950  0.95643  0.70394  1.0000
  H   H4520     1.0  0.57572  0.80572  0.75840  1.0000
  H   H4521     1.0  0.61995  0.79303  0.67266  1.0000
  C   C4527     1.0  0.70190  0.79384  0.59686  1.0000
  H   H4522     1.0  0.64641  0.83453  0.69862  1.0000
  H   H4523     1.0  0.72040  0.89491  0.69290  1.0000
  C   C4528     1.0  0.65622  0.69409  0.72266  1.0000
  C   C4529     1.0  0.57940  0.78066  0.73822  1.0000
  C   C4530     1.0  0.72519  0.81737  0.63052  1.0000
  C   C4531     1.0  0.50582  0.69962  0.76914  1.0000
  C   C4532     1.0  0.58767  0.79106  0.74432  1.0000
  H   H4524     1.0  0.71487  0.81144  0.59890  1.0000
  H   H4525     1.0  0.64582  0.71614  0.70643  1.0000
  H   H4526     1.0  0.72529  0.79613  0.58044  1.0000
  H   H4527     1.0  0.67269  0.65478  0.75947  1.0000
  C   C4533     1.0  0.51753  0.77113  0.70805  1.0000
  C   C4534     1.0  0.51044  0.76447  0.71009  1.0000
  C   C4535     1.0  0.50263  0.76679  0.70413  1.0000
  C   C4536     1.0  0.50174  0.77588  0.69611  1.0000
  C   C4537     1.0  0.50869  0.78266  0.69424  1.0000
  C   C4538     1.0  0.51656  0.78030  0.70015  1.0000
  H   H4528     1.0  0.51115  0.75732  0.71613  1.0000
  C   C4539     1.0  0.65161  0.68991  0.70838  1.0000
  H   H4529     1.0  0.50806  0.78972  0.68808  1.0000
  H   H4530     1.0  0.52185  0.78558  0.69859  1.0000
  C   C4540     1.0  0.57366  0.74702  0.72861  1.0000
  C   C4541     1.0  0.57083  0.74214  0.72215  1.0000
  C   C4542     1.0  0.56903  0.73187  0.72594  1.0000
  C   C4543     1.0  0.56962  0.72670  0.73632  1.0000
  C   C4544     1.0  0.57246  0.73160  0.74275  1.0000
  C   C4545     1.0  0.57467  0.74168  0.73884  1.0000
  H   H4531     1.0  0.57024  0.74618  0.71416  1.0000
  H   H4532     1.0  0.56703  0.72801  0.72089  1.0000
  H   H4533     1.0  0.57309  0.72758  0.75073  1.0000
  H   H4534     1.0  0.57692  0.74542  0.74383  1.0000
  C   C4546     1.0  0.57734  0.81946  0.72335  1.0000
  C   C4547     1.0  0.57989  0.81007  0.71967  1.0000
  C   C4548     1.0  0.57187  0.80614  0.71796  1.0000
  C   C4549     1.0  0.56129  0.81155  0.72003  1.0000
  C   C4550     1.0  0.55886  0.82091  0.72362  1.0000
  C   C4551     1.0  0.56681  0.82485  0.72522  1.0000
  H   H4535     1.0  0.58796  0.80580  0.71824  1.0000
  H   H4536     1.0  0.57382  0.79885  0.71527  1.0000
  H   H4537     1.0  0.55074  0.82516  0.72522  1.0000
  H   H4538     1.0  0.56474  0.83211  0.72802  1.0000
  C   C4552     1.0  0.66042  0.74365  0.64279  1.0000
  C   C4553     1.0  0.65111  0.74790  0.63903  1.0000
  C   C4554     1.0  0.65158  0.75251  0.62832  1.0000
  C   C4555     1.0  0.66136  0.75297  0.62142  1.0000
  C   C4556     1.0  0.67064  0.74902  0.62526  1.0000
  C   C4557     1.0  0.67016  0.74442  0.63595  1.0000
  H   H4539     1.0  0.64355  0.74735  0.64430  1.0000
  H   H4540     1.0  0.64438  0.75557  0.62536  1.0000
  H   H4541     1.0  0.67822  0.74916  0.61997  1.0000
  H   H4542     1.0  0.67737  0.74125  0.63888  1.0000
  C   C4558     1.0  0.63663  0.76958  0.69800  1.0000
  C   C4559     1.0  0.63649  0.77642  0.68815  1.0000
  C   C4560     1.0  0.63478  0.78734  0.68727  1.0000
  C   C4561     1.0  0.63278  0.79140  0.69629  1.0000
  C   C4562     1.0  0.63276  0.78453  0.70611  1.0000
  C   C4563     1.0  0.63493  0.77365  0.70694  1.0000
  H   H4543     1.0  0.63795  0.77330  0.68120  1.0000
  H   H4544     1.0  0.63500  0.79262  0.67963  1.0000
  H   H4545     1.0  0.63117  0.78754  0.71312  1.0000
  H   H4546     1.0  0.63517  0.76839  0.71455  1.0000
  C   C4564     1.0  0.60024  0.77468  0.66420  1.0000
  C   C4565     1.0  0.59394  0.78197  0.65763  1.0000
  C   C4566     1.0  0.58308  0.78510  0.66137  1.0000
  C   C4567     1.0  0.57845  0.78112  0.67178  1.0000
  C   C4568     1.0  0.58470  0.77386  0.67845  1.0000
  C   C4569     1.0  0.59561  0.77059  0.67463  1.0000
  H   H4547     1.0  0.59747  0.78517  0.64958  1.0000
  H   H4548     1.0  0.57827  0.79071  0.65620  1.0000
  H   H4549     1.0  0.58109  0.77068  0.68646  1.0000
  H   H4550     1.0  0.60042  0.76496  0.67973  1.0000
  C   C4570     1.0  0.61360  0.76648  0.76263  1.0000
  C   C4571     1.0  0.61396  0.77670  0.75669  1.0000
  C   C4572     1.0  0.61324  0.78475  0.76173  1.0000
  C   C4573     1.0  0.68281  0.61742  0.76517  1.0000
  H   H4551     1.0  0.61410  0.76024  0.75877  1.0000
  H   H4552     1.0  0.61360  0.79262  0.75722  1.0000
  H   H4553     1.0  0.71767  0.89012  0.75562  1.0000
  C   C4574     1.0  0.66697  0.65663  0.73884  1.0000
  C   C4575     1.0  0.65928  0.65102  0.73984  1.0000
  C   C4576     1.0  0.66234  0.64053  0.73857  1.0000
  C   C4577     1.0  0.67306  0.63561  0.73653  1.0000
  C   C4578     1.0  0.68071  0.64131  0.73540  1.0000
  C   C4579     1.0  0.67768  0.65181  0.73651  1.0000
  H   H4554     1.0  0.65100  0.65472  0.74162  1.0000
  H   H4555     1.0  0.65640  0.63614  0.73939  1.0000
  H   H4556     1.0  0.68898  0.63765  0.73360  1.0000
  H   H4557     1.0  0.68365  0.65616  0.73568  1.0000
  C   C4580     1.0  0.62529  0.71654  0.72510  1.0000
  C   C4581     1.0  0.62160  0.70902  0.72245  1.0000
  C   C4582     1.0  0.61910  0.71098  0.71254  1.0000
  C   C4583     1.0  0.62052  0.72034  0.70524  1.0000
  C   C4584     1.0  0.62422  0.72781  0.70794  1.0000
  C   C4585     1.0  0.62646  0.72598  0.71789  1.0000
  H   H4558     1.0  0.62050  0.70179  0.72809  1.0000
  H   H4559     1.0  0.61624  0.70518  0.71048  1.0000
  H   H4560     1.0  0.62545  0.73500  0.70235  1.0000
  H   H4561     1.0  0.62944  0.73175  0.71987  1.0000
  C   C4586     1.0  0.59889  0.67341  0.76235  1.0000
  H   H4562     1.0  0.73184  0.86733  0.73226  1.0000
  C   C4587     1.0  0.69999  0.95155  0.71441  1.0000
  H   H4563     1.0  0.66012  0.63463  0.76078  1.0000
  H   H4564     1.0  0.71834  0.88864  0.73750  1.0000
  C   C4588     1.0  0.58858  0.67524  0.76093  1.0000
  C   C4589     1.0  0.73693  0.89583  0.66262  1.0000
  C   C4590     1.0  0.72600  0.82252  0.63792  1.0000
  H   H4565     1.0  0.58723  0.67490  0.75349  1.0000
  C   C4591     1.0  0.52692  0.77636  0.67229  1.0000
  H   H4566     1.0  0.73031  0.86136  0.70182  1.0000
  H   H4567     1.0  0.57978  0.77376  0.73529  1.0000
  N   N376      1.0  0.60153  0.75707  0.70757  1.0000
  C   C4592     1.0  0.73120  0.89668  0.73049  1.0000
  C   C4593     1.0  0.70547  0.80319  0.59468  1.0000
  H   H4568     1.0  0.70430  0.95349  0.68209  1.0000
  C   C4594     1.0  0.66750  0.64947  0.76479  1.0000
  H   H4569     1.0  0.65853  0.84852  0.70419  1.0000
  H   H4570     1.0  0.73246  0.83528  0.60832  1.0000
  H   H4571     1.0  0.59203  0.79362  0.67409  1.0000
  C   C4595     1.0  0.65253  0.70477  0.71870  1.0000
  H   H4572     1.0  0.70229  0.96372  0.70052  1.0000
  H   H4573     1.0  0.56229  0.80287  0.74418  1.0000
  C   C4596     1.0  0.58832  0.78210  0.74062  1.0000
  C   C4597     1.0  0.64976  0.85034  0.73040  1.0000
  C   C4598     1.0  0.65596  0.84048  0.73380  1.0000
  C   C4599     1.0  0.65211  0.83127  0.73564  1.0000
  C   C4600     1.0  0.64216  0.83178  0.73379  1.0000
  C   C4601     1.0  0.63597  0.84163  0.73033  1.0000
  C   C4602     1.0  0.63973  0.85088  0.72874  1.0000
  H   H4574     1.0  0.66367  0.83994  0.73516  1.0000
  H   H4575     1.0  0.65693  0.82368  0.73836  1.0000
  H   H4576     1.0  0.62826  0.84214  0.72899  1.0000
  H   H4577     1.0  0.63484  0.85849  0.72621  1.0000
  C   C4603     1.0  0.71367  0.83741  0.70468  1.0000
  C   C4604     1.0  0.71834  0.83912  0.71198  1.0000
  C   C4605     1.0  0.73901  0.76129  0.60767  1.0000
  N   N377      1.0  0.72894  0.83205  0.63474  1.0000
  H   H4578     1.0  0.73357  0.84418  0.62170  1.0000
  C   C4606     1.0  0.71963  0.83624  0.69467  1.0000
  H   H4579     1.0  0.71377  0.83989  0.71977  1.0000
  C   C4607     1.0  0.73044  0.83173  0.61665  1.0000
  H   H4580     1.0  0.53795  0.75912  0.69151  1.0000
  H   H4581     1.0  0.71599  0.83493  0.68902  1.0000
  C   C4608     1.0  0.69736  0.89703  0.70820  1.0000
  C   C4609     1.0  0.69764  0.89413  0.71891  1.0000
  C   C4610     1.0  0.70172  0.90009  0.72332  1.0000
  C   C4611     1.0  0.70594  0.90869  0.71697  1.0000
  C   C4612     1.0  0.70583  0.91151  0.70622  1.0000
  C   C4613     1.0  0.70131  0.90584  0.70191  1.0000
  H   H4582     1.0  0.69461  0.88735  0.72382  1.0000
  H   H4583     1.0  0.70165  0.89796  0.73166  1.0000
  H   H4584     1.0  0.70905  0.91817  0.70128  1.0000
  H   H4585     1.0  0.70101  0.90819  0.69365  1.0000
  C   C4614     1.0  0.72868  0.86606  0.74905  1.0000
  C   C4615     1.0  0.72620  0.86589  0.73962  1.0000
  C   C4616     1.0  0.71639  0.86399  0.73964  1.0000
  C   C4617     1.0  0.70904  0.86210  0.74913  1.0000
  C   C4618     1.0  0.71157  0.86223  0.75854  1.0000
  C   C4619     1.0  0.72132  0.86424  0.75850  1.0000
  H   H4586     1.0  0.69745  0.93791  0.72679  1.0000
  H   H4587     1.0  0.71456  0.86393  0.73234  1.0000
  H   H4588     1.0  0.70596  0.86075  0.76592  1.0000
  H   H4589     1.0  0.72315  0.86427  0.76583  1.0000
  C   C4620     1.0  0.69645  0.95662  0.68676  1.0000
  H   H4590     1.0  0.73028  0.75055  0.60656  1.0000
  N   N378      1.0  0.59367  0.70306  0.73729  1.0000
  C   C4621     1.0  0.59675  0.70264  0.74630  1.0000
  C   C4622     1.0  0.59365  0.71189  0.72937  1.0000
  C   C4623     1.0  0.59996  0.71122  0.74752  1.0000
  C   C4624     1.0  0.59684  0.72059  0.73033  1.0000
  C   C4625     1.0  0.60003  0.72022  0.73947  1.0000
  C   C4626     1.0  0.59020  0.69401  0.73633  1.0000
  H   H4591     1.0  0.59676  0.69562  0.75256  1.0000
  H   H4592     1.0  0.59105  0.71230  0.72229  1.0000
  H   H4593     1.0  0.60250  0.71085  0.75461  1.0000
  H   H4594     1.0  0.59686  0.72753  0.72402  1.0000
  H   H4595     1.0  0.60271  0.72682  0.74025  1.0000
  H   H4596     1.0  0.58854  0.69504  0.72844  1.0000
  H   H4597     1.0  0.59641  0.68672  0.73762  1.0000
  H   H4598     1.0  0.58283  0.69299  0.74229  1.0000
  H   H4599     1.0  0.73151  0.89606  0.72256  1.0000
  C   C4627     1.0  0.73602  0.96157  0.72729  1.0000
  H   H4600     1.0  0.57195  0.81451  0.74660  1.0000
  C   C4628     1.0  0.67038  0.81955  0.71555  1.0000
  H   H4601     1.0  0.66528  0.76633  0.63755  1.0000
  H   H4602     1.0  0.64888  0.73833  0.76200  1.0000
  S   S1543     1.0  0.72289  0.96285  0.70322  1.0000
  C   C4629     1.0  0.73109  0.83670  0.62426  1.0000
  H   H4603     1.0  0.68079  0.79350  0.61061  1.0000
  H   H4604     1.0  0.59539  0.78359  0.70497  1.0000
  H   H4605     1.0  0.67652  0.84371  0.70779  1.0000
  Fe  Fe772     1.0  0.72460  0.53245  0.76576  1.0000
  H   H4606     1.0  0.73392  0.84376  0.63922  1.0000
  C   C4630     1.0  0.71945  0.60372  0.77033  1.0000
  N   N379      1.0  0.71590  0.56863  0.77276  1.0000
  C   C4631     1.0  0.59803  0.74862  0.70536  1.0000
  H   H4607     1.0  0.72427  0.81885  0.64622  1.0000
  H   H4608     1.0  0.54909  0.77137  0.68118  1.0000
  C   C4632     1.0  0.69318  0.93742  0.71266  1.0000
  H   H4609     1.0  0.66450  0.83800  0.75939  1.0000
  H   H4610     1.0  0.52751  0.78389  0.66695  1.0000
  H   H4611     1.0  0.64172  0.84380  0.70728  1.0000
  C   C4633     1.0  0.72980  0.97272  0.70246  1.0000
  C   C4634     1.0  0.72870  0.48704  0.75101  1.0000
  C   C4635     1.0  0.73015  0.83737  0.69178  1.0000
  C   C4636     1.0  0.74025  0.89455  0.67202  1.0000
  C   C4637     1.0  0.52475  0.75748  0.68646  1.0000
  H   H4612     1.0  0.57203  0.67971  0.76772  1.0000
  H   H4613     1.0  0.51299  0.77544  0.66775  1.0000
  H   H4614     1.0  0.72290  0.80979  0.63298  1.0000
  H   H4615     1.0  0.52092  0.69089  0.76239  1.0000
  H   H4616     1.0  0.68681  0.60927  0.76516  1.0000
  H   H4617     1.0  0.68612  0.84100  0.75737  1.0000
  S   S1544     1.0  0.55268  0.70034  0.76878  1.0000
  C   C4638     1.0  0.72888  0.84007  0.70917  1.0000
  H   H4618     1.0  0.59463  0.79212  0.74619  1.0000
  S   S1545     1.0  0.72296  0.79737  0.61642  1.0000
  H   H4619     1.0  0.52889  0.75626  0.75048  1.0000
  S   S1546     1.0  0.57358  0.70847  0.76934  1.0000
  C   C4639     1.0  0.59717  0.80808  0.69273  1.0000
  C   C4640     1.0  0.64567  0.83553  0.70672  1.0000
  H   H4620     1.0  0.54342  0.71464  0.74009  1.0000
  N   N380      1.0  0.71734  0.88600  0.68359  1.0000
  H   H4621     1.0  0.61059  0.77925  0.71381  1.0000
  C   C4641     1.0  0.69682  0.94198  0.71877  1.0000
  H   H4622     1.0  0.58553  0.81016  0.74710  1.0000
  H   H4623     1.0  0.70313  0.95506  0.71896  1.0000
  H   H4624     1.0  0.58975  0.76923  0.70111  1.0000
  C   C4642     1.0  0.72471  0.72127  0.59046  1.0000
  H   H4625     1.0  0.72993  0.89929  0.75860  1.0000
  H   H4626     1.0  0.72485  0.72121  0.58241  1.0000
  H   H4627     1.0  0.72856  0.87924  0.70477  1.0000
  H   H4628     1.0  0.52371  0.75032  0.69230  1.0000
  H   H4629     1.0  0.63616  0.70088  0.69671  1.0000
  H   H4630     1.0  0.64183  0.71230  0.69223  1.0000
  C   C4643     1.0  0.60794  0.77305  0.71214  1.0000
  H   H4631     1.0  0.54140  0.74743  0.72548  1.0000
  H   H4632     1.0  0.60473  0.74191  0.70381  1.0000
  H   H4633     1.0  0.53289  0.71965  0.75685  1.0000
  H   H4634     1.0  0.65928  0.69160  0.72983  1.0000
  H   H4635     1.0  0.68368  0.84709  0.76834  1.0000
  C   C4644     1.0  0.56960  0.79699  0.74334  1.0000
  C   C4645     1.0  0.53145  0.73634  0.75043  1.0000
  H   H4636     1.0  0.71357  0.89417  0.66873  1.0000
  H   H4637     1.0  0.65085  0.77584  0.61909  1.0000
  H   H4638     1.0  0.52695  0.73839  0.75786  1.0000
  C   C4646     1.0  0.66066  0.78507  0.60698  1.0000
  C   C4647     1.0  0.53475  0.72569  0.74993  1.0000
  C   C4648     1.0  0.54059  0.72289  0.74049  1.0000
  H   H4639     1.0  0.66911  0.61608  0.76064  1.0000
  H   H4640     1.0  0.53640  0.75974  0.73740  1.0000
  H   H4641     1.0  0.70350  0.80946  0.58812  1.0000
  H   H4642     1.0  0.56303  0.78721  0.73756  1.0000
  H   H4643     1.0  0.65160  0.77100  0.63695  1.0000
  H   H4644     1.0  0.54497  0.78154  0.67064  1.0000
  C   C4649     1.0  0.67069  0.78428  0.62274  1.0000
  S   S1547     1.0  0.70887  0.59934  0.76889  1.0000
  C   C4650     1.0  0.53278  0.76250  0.68596  1.0000
  C   C4651     1.0  0.73468  0.83951  0.69897  1.0000
  S   S1548     1.0  0.49876  0.69176  0.76621  1.0000
  C   C4652     1.0  0.67284  0.62121  0.76277  1.0000
  C   C4653     1.0  0.67412  0.78975  0.61249  1.0000
  C   C4654     1.0  0.71187  0.80431  0.60079  1.0000
  C   C4655     1.0  0.72278  0.86717  0.68856  1.0000
  C   C4656     1.0  0.65731  0.77985  0.61735  1.0000
  H   H4645     1.0  0.73310  0.64246  0.68497  1.0000
  N   N381      1.0  0.67079  0.85048  0.76064  1.0000
  C   C4657     1.0  0.66353  0.84645  0.75839  1.0000
  C   C4658     1.0  0.66975  0.86116  0.75895  1.0000
  C   C4659     1.0  0.65483  0.85316  0.75459  1.0000
  C   C4660     1.0  0.66121  0.86810  0.75504  1.0000
  C   C4661     1.0  0.65371  0.86405  0.75286  1.0000
  C   C4662     1.0  0.68004  0.84329  0.76425  1.0000
  C   C4663     1.0  0.73456  0.91482  0.66008  1.0000
  S   S1549     1.0  0.73785  0.90525  0.77318  1.0000
  H   H4646     1.0  0.64915  0.84998  0.75264  1.0000
  H   H4647     1.0  0.66057  0.87655  0.75345  1.0000
  H   H4648     1.0  0.64722  0.86932  0.74949  1.0000
  C   C4664     1.0  0.51771  0.76207  0.67973  1.0000
  C   C4665     1.0  0.60961  0.75462  0.71276  1.0000
  C   C4666     1.0  0.64861  0.70781  0.70947  1.0000
  C   C4667     1.0  0.64088  0.74327  0.76148  1.0000
  C   C4668     1.0  0.71809  0.87617  0.68203  1.0000
  H   H4649     1.0  0.65256  0.71064  0.72285  1.0000
  C   C4669     1.0  0.71204  0.89530  0.67691  1.0000
  C   C4670     1.0  0.72571  0.87830  0.69836  1.0000
  C   C4671     1.0  0.54208  0.77708  0.67869  1.0000
  C   C4672     1.0  0.59353  0.79762  0.67935  1.0000
  C   C4673     1.0  0.68773  0.62422  0.76738  1.0000
  S   S1550     1.0  0.73122  0.87806  0.77562  1.0000
  N   N382      1.0  0.67393  0.72407  0.62560  1.0000
  C   C4674     1.0  0.68114  0.72621  0.61642  1.0000
  C   C4675     1.0  0.67706  0.72046  0.63503  1.0000
  C   C4676     1.0  0.69175  0.72507  0.61656  1.0000
  C   C4677     1.0  0.68759  0.71934  0.63546  1.0000
  C   C4678     1.0  0.69496  0.72173  0.62616  1.0000
  C   C4679     1.0  0.66283  0.72539  0.62528  1.0000
  H   H4650     1.0  0.67867  0.72905  0.60894  1.0000
  H   H4651     1.0  0.67132  0.71888  0.64234  1.0000
  H   H4652     1.0  0.69745  0.72692  0.60931  1.0000
  H   H4653     1.0  0.68997  0.71686  0.64299  1.0000
  H   H4654     1.0  0.70312  0.72110  0.62635  1.0000
  H   H4655     1.0  0.66051  0.73217  0.61890  1.0000
  H   H4656     1.0  0.66154  0.71811  0.62391  1.0000
  H   H4657     1.0  0.65751  0.72715  0.63276  1.0000
  H   H4658     1.0  0.59452  0.75144  0.69825  1.0000
  C   C4680     1.0  0.53954  0.74134  0.73240  1.0000
  H   H4659     1.0  0.72008  0.58067  0.75929  1.0000
  S   S1551     1.0  0.70678  0.76351  0.58540  1.0000
  H   H4660     1.0  0.61353  0.80138  0.68746  1.0000
  H   H4661     1.0  0.53893  0.78268  0.68407  1.0000
  C   C4681     1.0  0.71052  0.78702  0.61171  1.0000
  C   C4682     1.0  0.67199  0.83770  0.70935  1.0000
  N   N383      1.0  0.53388  0.77173  0.67882  1.0000
  N   N384      1.0  0.60364  0.79695  0.68010  1.0000
  C   C4683     1.0  0.59640  0.76734  0.70487  1.0000
  C   C4684     1.0  0.52285  0.70258  0.76958  1.0000
  C   C4685     1.0  0.61243  0.79045  0.67401  1.0000
  C   C4686     1.0  0.66184  0.84033  0.70728  1.0000
  H   H4662     1.0  0.61360  0.74651  0.71505  1.0000
  C   C4687     1.0  0.54294  0.73075  0.73164  1.0000
  H   H4663     1.0  0.59872  0.81221  0.69788  1.0000
  C   C4688     1.0  0.73290  0.49281  0.75561  1.0000
  C   C4689     1.0  0.73662  0.61039  0.77257  1.0000
  S   S1552     1.0  0.73537  0.88516  0.65824  1.0000
  N   N385      1.0  0.64026  0.75385  0.76289  1.0000
  C   C4690     1.0  0.72938  0.83741  0.64270  1.0000
  C   C4691     1.0  0.63982  0.76232  0.75457  1.0000
  H   H4664     1.0  0.72128  0.84094  0.64654  1.0000
  C   C4692     1.0  0.63922  0.77242  0.75593  1.0000
  C   C4693     1.0  0.63902  0.77382  0.76587  1.0000
  C   C4694     1.0  0.61296  0.76255  0.71507  1.0000
  H   H4665     1.0  0.51114  0.75853  0.68035  1.0000
  H   H4666     1.0  0.63965  0.76139  0.74687  1.0000
  Fe  Fe773     1.0  0.72978  0.94572  0.70160  1.0000
  H   H4667     1.0  0.63851  0.77917  0.74939  1.0000
  H   H4668     1.0  0.60857  0.67206  0.77325  1.0000
  H   H4669     1.0  0.49748  0.76139  0.70556  1.0000
  C   C4695     1.0  0.64030  0.75513  0.77260  1.0000
  N   N386      1.0  0.67276  0.63841  0.76481  1.0000
  C   C4696     1.0  0.57998  0.67786  0.76901  1.0000
  C   C4697     1.0  0.71432  0.79626  0.60935  1.0000
  H   H4670     1.0  0.73206  0.76743  0.60931  1.0000
  H   H4671     1.0  0.72107  0.61432  0.75511  1.0000
  C   C4698     1.0  0.71886  0.73018  0.60511  1.0000
  H   H4672     1.0  0.73231  0.84177  0.71474  1.0000
  C   C4699     1.0  0.53037  0.75516  0.74229  1.0000
  H   H4673     1.0  0.70749  0.57759  0.76091  1.0000
  H   H4674     1.0  0.71254  0.78074  0.61825  1.0000
  H   H4675     1.0  0.71503  0.90240  0.67639  1.0000
  C   C4700     1.0  0.73395  0.90602  0.65680  1.0000
  C   C4701     1.0  0.65912  0.77354  0.63582  1.0000
  C   C4702     1.0  0.57786  0.80761  0.74966  1.0000
  C   C4703     1.0  0.68259  0.63478  0.76710  1.0000
  Fe  Fe774     1.0  0.72312  0.92441  0.71100  1.0000
  C   C4704     1.0  0.66028  0.82244  0.71334  1.0000
  C   C4705     1.0  0.65581  0.68660  0.71745  1.0000
  H   H4676     1.0  0.69094  0.92984  0.71594  1.0000
  H   H4677     1.0  0.67482  0.78382  0.62880  1.0000
  H   H4678     1.0  0.52300  0.75850  0.73922  1.0000
  S   S1553     1.0  0.72054  0.93685  0.69657  1.0000
  H   H4679     1.0  0.61956  0.76053  0.71894  1.0000
  C   C4706     1.0  0.59952  0.77548  0.70709  1.0000
  H   H4680     1.0  0.58028  0.81379  0.69632  1.0000
  C   C4707     1.0  0.73941  0.95095  0.73180  1.0000
  H   H4681     1.0  0.63818  0.78166  0.76712  1.0000
  S   S1554     1.0  0.73731  0.81674  0.59263  1.0000
  C   C4708     1.0  0.60552  0.80196  0.68679  1.0000
  N   N387      1.0  0.64813  0.70040  0.70448  1.0000
  C   C4709     1.0  0.73029  0.89864  0.75066  1.0000
  S   S1555     1.0  0.71109  0.91601  0.72261  1.0000
  N   N388      1.0  0.53400  0.74400  0.74176  1.0000
  H   H4682     1.0  0.64479  0.71853  0.76749  1.0000
  H   H4683     1.0  0.72339  0.85941  0.68728  1.0000
  C   C4710     1.0  0.71576  0.57414  0.76182  1.0000
  H   H4684     1.0  0.73460  0.70610  0.61165  1.0000
  H   H4685     1.0  0.70806  0.55715  0.77198  1.0000
  H   H4686     1.0  0.72675  0.81813  0.61407  1.0000
  H   H4687     1.0  0.72063  0.78405  0.58400  1.0000
  H   H4688     1.0  0.54751  0.72863  0.72428  1.0000
  H   H4689     1.0  0.73595  0.62049  0.75727  1.0000
  C   C4711     1.0  0.72453  0.72153  0.61118  1.0000
  H   H4690     1.0  0.71099  0.50020  0.76875  1.0000
  H   H4691     1.0  0.72927  0.60465  0.71623  1.0000
  H   H4692     1.0  0.63921  0.74343  0.75379  1.0000
  S   S1556     1.0  0.73005  0.62385  0.72142  1.0000
  H   H4693     1.0  0.73253  0.92262  0.65528  1.0000
  C   C4712     1.0  0.73066  0.71275  0.59644  1.0000
  H   H4694     1.0  0.73468  0.83677  0.68395  1.0000
  S   S1557     1.0  0.73399  0.54182  0.76954  1.0000
  C   C4713     1.0  0.72329  0.89351  0.74903  1.0000
  H   H4695     1.0  0.66006  0.65168  0.76186  1.0000
  H   H4696     1.0  0.69557  0.62134  0.76910  1.0000
  Fe  Fe775     1.0  0.63315  0.68410  0.76710  1.0000
  H   H4697     1.0  0.67564  0.86439  0.76046  1.0000
  C   C4714     1.0  0.73774  0.91366  0.66946  1.0000
  C   C4715     1.0  0.51776  0.71056  0.77518  1.0000
  C   C4716     1.0  0.61241  0.78253  0.77267  1.0000
  C   C4717     1.0  0.72373  0.89259  0.73886  1.0000
  C   C4718     1.0  0.73662  0.63647  0.68031  1.0000
  H   H4698     1.0  0.73347  0.83177  0.64880  1.0000
  H   H4699     1.0  0.73039  0.50131  0.75432  1.0000
  H   H4700     1.0  0.53136  0.70045  0.76768  1.0000
  H   H4701     1.0  0.73758  0.57416  0.71272  1.0000
  C   C4719     1.0  0.63957  0.76513  0.77427  1.0000
  H   H4702     1.0  0.63801  0.70340  0.76714  1.0000
  H   H4703     1.0  0.72361  0.57914  0.77572  1.0000
  H   H4704     1.0  0.73131  0.90712  0.64960  1.0000
  H   H4705     1.0  0.68653  0.64007  0.76865  1.0000
  C   C4720     1.0  0.74006  0.48753  0.76214  1.0000
  C   C4721     1.0  0.61293  0.76424  0.77354  1.0000
  C   C4722     1.0  0.50072  0.70770  0.77459  1.0000
  C   C4723     1.0  0.60060  0.67358  0.77209  1.0000
  C   C4724     1.0  0.73656  0.60697  0.71186  1.0000
  S   S1558     1.0  0.73813  0.91506  0.70307  1.0000
  H   H4706     1.0  0.70685  0.48395  0.76878  1.0000
  H   H4707     1.0  0.73888  0.97724  0.72405  1.0000
  H   H4708     1.0  0.72946  0.96398  0.72333  1.0000
  H   H4709     1.0  0.73541  0.94520  0.73123  1.0000
  S   S1559     1.0  0.73814  0.52436  0.75481  1.0000
  H   H4710     1.0  0.73764  0.57387  0.73117  1.0000
  C   C4725     1.0  0.73807  0.75176  0.60607  1.0000
  C   C4726     1.0  0.73614  0.62596  0.68485  1.0000
  H   H4711     1.0  0.72039  0.50026  0.77586  1.0000
  N   N389      1.0  0.73750  0.90277  0.74238  1.0000
  S   S1560     1.0  0.73881  0.70229  0.59076  1.0000
  H   H4712     1.0  0.73913  0.73536  0.59837  1.0000
  H   H4713     1.0  0.66556  0.65095  0.77287  1.0000
  C   C4727     1.0  0.64281  0.71288  0.77470  1.0000
  H   H4714     1.0  0.61760  0.71073  0.77416  1.0000
  C   C4728     1.0  0.63914  0.70417  0.77446  1.0000
  S   S1561     1.0  0.73891  0.92517  0.67263  1.0000
  C   C4729     1.0  0.73896  0.61602  0.71303  1.0000
  Fe  Fe776     1.0  0.74019  0.51178  0.76932  1.0000
  C   C4730     1.0  0.74046  0.90348  0.67555  1.0000
  C   C4731     1.0  0.72405  0.98236  0.70519  1.0000
  H   H4715     1.0  0.74044  0.84181  0.73218  1.0000
  H   H4716     1.0  0.49220  0.70966  0.77665  1.0000
  C   C4732     1.0  0.60856  0.70019  0.79675  1.0000
  C   C4733     1.0  0.73765  0.83265  0.82735  1.0000
  S   S1562     1.0  0.72129  0.79089  0.87074  1.0000
  C   C4734     1.0  0.70525  0.71745  0.96629  1.0000
  C   C4735     1.0  0.73896  0.76105  0.89325  1.0000
  H   H4717     1.0  0.66091  0.73945  0.88025  1.0000
  C   C4736     1.0  0.57131  0.73916  0.81681  1.0000
  H   H4718     1.0  0.73708  0.55203  0.82265  1.0000
  C   C4737     1.0  0.58896  0.75840  0.80443  1.0000
  H   H4719     1.0  0.65924  0.71770  0.84895  1.0000
  C   C4738     1.0  0.71711  0.82011  0.85983  1.0000
  H   H4720     1.0  0.58722  0.74160  0.78002  1.0000
  H   H4721     1.0  0.71540  0.69393  0.94266  1.0000
  C   C4739     1.0  0.70667  0.70200  0.82788  1.0000
  S   S1563     1.0  0.73339  0.71850  0.90855  1.0000
  C   C4740     1.0  0.72976  0.69227  0.84421  1.0000
  C   C4741     1.0  0.59456  0.69107  0.79953  1.0000
  Fe  Fe777     1.0  0.69610  0.75579  0.85264  1.0000
  S   S1564     1.0  0.68046  0.75077  0.85917  1.0000
  S   S1565     1.0  0.69958  0.77203  0.84580  1.0000
  Fe  Fe778     1.0  0.70876  0.73347  0.85400  1.0000
  S   S1566     1.0  0.69445  0.72646  0.86072  1.0000
  S   S1567     1.0  0.72568  0.72513  0.84969  1.0000
  Fe  Fe779     1.0  0.68681  0.73901  0.84867  1.0000
  S   S1568     1.0  0.67985  0.73286  0.83844  1.0000
  Fe  Fe780     1.0  0.68930  0.73853  0.87070  1.0000
  S   S1569     1.0  0.68137  0.73331  0.88761  1.0000
  S   S1570     1.0  0.70168  0.74509  0.84118  1.0000
  S   S1571     1.0  0.70430  0.74453  0.86499  1.0000
  C   C4742     1.0  0.59198  0.67561  0.78038  1.0000
  S   S1572     1.0  0.72566  0.71890  0.93393  1.0000
  H   H4722     1.0  0.70254  0.69567  0.82941  1.0000
  H   H4723     1.0  0.72204  0.69238  0.82324  1.0000
  C   C4743     1.0  0.72727  0.67955  0.89262  1.0000
  H   H4724     1.0  0.72913  0.62359  0.78857  1.0000
  Fe  Fe781     1.0  0.72326  0.71044  0.92278  1.0000
  S   S1573     1.0  0.70714  0.70824  0.92329  1.0000
  H   H4725     1.0  0.60504  0.68776  0.81020  1.0000
  H   H4726     1.0  0.69260  0.71350  0.83233  1.0000
  H   H4727     1.0  0.65035  0.71174  0.86028  1.0000
  N   N390      1.0  0.71721  0.83669  0.84742  1.0000
  C   C4744     1.0  0.58669  0.73508  0.78675  1.0000
  H   H4728     1.0  0.64076  0.74839  0.77914  1.0000
  H   H4729     1.0  0.72337  0.77036  0.89186  1.0000
  Fe  Fe782     1.0  0.62823  0.73916  0.81828  1.0000
  S   S1574     1.0  0.63535  0.74737  0.80214  1.0000
  S   S1575     1.0  0.63278  0.74124  0.83261  1.0000
  Fe  Fe783     1.0  0.61302  0.73149  0.80968  1.0000
  S   S1576     1.0  0.61931  0.73902  0.79312  1.0000
  S   S1577     1.0  0.59993  0.72266  0.81248  1.0000
  Fe  Fe784     1.0  0.63511  0.73278  0.79730  1.0000
  H   H4730     1.0  0.69593  0.72440  0.95440  1.0000
  Fe  Fe785     1.0  0.61877  0.75279  0.79961  1.0000
  H   H4731     1.0  0.57506  0.76353  0.78534  1.0000
  S   S1578     1.0  0.62905  0.72403  0.81357  1.0000
  S   S1579     1.0  0.61146  0.74573  0.81613  1.0000
  S   S1580     1.0  0.55248  0.71029  0.78892  1.0000
  H   H4732     1.0  0.73326  0.53723  0.81795  1.0000
  N   N391      1.0  0.73280  0.69486  0.88080  1.0000
  C   C4745     1.0  0.73425  0.75904  0.84813  1.0000
  C   C4746     1.0  0.72938  0.70023  0.88880  1.0000
  H   H4733     1.0  0.59518  0.76088  0.80625  1.0000
  H   H4734     1.0  0.51182  0.67745  0.78211  1.0000
  C   C4747     1.0  0.70166  0.71766  0.95742  1.0000
  C   C4748     1.0  0.72356  0.68503  0.90077  1.0000
  S   S1581     1.0  0.56994  0.73298  0.78020  1.0000
  H   H4735     1.0  0.70274  0.70937  0.94548  1.0000
  C   C4749     1.0  0.64736  0.73335  0.86547  1.0000
  S   S1582     1.0  0.64720  0.72585  0.78467  1.0000
  C   C4750     1.0  0.73478  0.74842  0.84875  1.0000
  H   H4736     1.0  0.56793  0.73500  0.81284  1.0000
  C   C4751     1.0  0.73195  0.68460  0.88263  1.0000
  C   C4752     1.0  0.64949  0.73872  0.87197  1.0000
  H   H4737     1.0  0.72758  0.74543  0.85108  1.0000
  H   H4738     1.0  0.50446  0.68667  0.79007  1.0000
  H   H4739     1.0  0.73137  0.70676  0.82012  1.0000
  H   H4740     1.0  0.73429  0.92167  0.78395  1.0000
  C   C4753     1.0  0.57760  0.76001  0.79273  1.0000
  C   C4754     1.0  0.73947  0.62906  0.79473  1.0000
  H   H4741     1.0  0.71030  0.80911  0.85619  1.0000
  C   C4755     1.0  0.59251  0.72479  0.80277  1.0000
  C   C4756     1.0  0.59336  0.73296  0.79384  1.0000
  C   C4757     1.0  0.71910  0.84743  0.84451  1.0000
  C   C4758     1.0  0.57911  0.72906  0.78848  1.0000
  C   C4759     1.0  0.57845  0.72067  0.79723  1.0000
  C   C4760     1.0  0.58511  0.71857  0.80436  1.0000
  H   H4742     1.0  0.73216  0.71947  0.95580  1.0000
  C   C4761     1.0  0.71354  0.49685  0.77638  1.0000
  H   H4743     1.0  0.57259  0.71601  0.79869  1.0000
  H   H4744     1.0  0.58438  0.71224  0.81125  1.0000
  S   S1583     1.0  0.73987  0.80466  0.84541  1.0000
  C   C4762     1.0  0.63742  0.69828  0.79331  1.0000
  C   C4763     1.0  0.64080  0.70717  0.79360  1.0000
  N   N392      1.0  0.71654  0.48530  0.77838  1.0000
  C   C4764     1.0  0.73891  0.73908  0.93710  1.0000
  S   S1584     1.0  0.73558  0.53137  0.79884  1.0000
  H   H4745     1.0  0.63544  0.69261  0.80051  1.0000
  H   H4746     1.0  0.64145  0.70829  0.80102  1.0000
  H   H4747     1.0  0.59332  0.67560  0.78793  1.0000
  H   H4748     1.0  0.71693  0.55326  0.80128  1.0000
  H   H4749     1.0  0.56496  0.74271  0.82281  1.0000
  C   C4765     1.0  0.66418  0.72181  0.86514  1.0000
  H   H4750     1.0  0.73525  0.59948  0.78759  1.0000
  N   N393      1.0  0.65472  0.72507  0.86207  1.0000
  H   H4751     1.0  0.58552  0.69613  0.78741  1.0000
  H   H4752     1.0  0.70237  0.72404  0.97022  1.0000
  Fe  Fe786     1.0  0.54287  0.71360  0.77650  1.0000
  Fe  Fe787     1.0  0.56249  0.72104  0.77730  1.0000
  H   H4753     1.0  0.70632  0.82101  0.83946  1.0000
  C   C4766     1.0  0.71246  0.83354  0.84133  1.0000
  C   C4767     1.0  0.73309  0.72004  0.97142  1.0000
  H   H4754     1.0  0.73619  0.82491  0.83127  1.0000
  C   C4768     1.0  0.66696  0.73659  0.83586  1.0000
  C   C4769     1.0  0.65880  0.74343  0.84116  1.0000
  C   C4770     1.0  0.64840  0.74516  0.83976  1.0000
  C   C4771     1.0  0.64611  0.74022  0.83292  1.0000
  C   C4772     1.0  0.65436  0.73374  0.82729  1.0000
  C   C4773     1.0  0.66471  0.73190  0.82880  1.0000
  H   H4755     1.0  0.66045  0.74716  0.84654  1.0000
  H   H4756     1.0  0.64207  0.75025  0.84408  1.0000
  H   H4757     1.0  0.65270  0.72986  0.82204  1.0000
  H   H4758     1.0  0.67097  0.72663  0.82463  1.0000
  C   C4774     1.0  0.68906  0.72636  0.89709  1.0000
  C   C4775     1.0  0.69992  0.72599  0.89526  1.0000
  C   C4776     1.0  0.70561  0.72059  0.90325  1.0000
  C   C4777     1.0  0.70048  0.71538  0.91300  1.0000
  C   C4778     1.0  0.68971  0.71564  0.91468  1.0000
  C   C4779     1.0  0.68402  0.72118  0.90683  1.0000
  H   H4759     1.0  0.70387  0.73002  0.88777  1.0000
  H   H4760     1.0  0.71391  0.72047  0.90185  1.0000
  H   H4761     1.0  0.68568  0.71164  0.92214  1.0000
  H   H4762     1.0  0.67566  0.72143  0.90833  1.0000
  H   H4763     1.0  0.57720  0.73304  0.82083  1.0000
  C   C4780     1.0  0.63659  0.69675  0.78373  1.0000
  C   C4781     1.0  0.73134  0.77044  0.89211  1.0000
  C   C4782     1.0  0.72712  0.71256  0.84747  1.0000
  C   C4783     1.0  0.71853  0.70765  0.85041  1.0000
  C   C4784     1.0  0.71984  0.69751  0.84879  1.0000
  H   H4764     1.0  0.71930  0.73143  0.82877  1.0000
  S   S1585     1.0  0.63187  0.68585  0.78353  1.0000
  H   H4765     1.0  0.71093  0.71153  0.85412  1.0000
  H   H4766     1.0  0.71322  0.69365  0.85124  1.0000
  C   C4785     1.0  0.59201  0.69722  0.79008  1.0000
  H   H4767     1.0  0.72700  0.48441  0.78815  1.0000
  H   H4768     1.0  0.63921  0.76615  0.78209  1.0000
  C   C4786     1.0  0.72341  0.59965  0.77953  1.0000
  H   H4769     1.0  0.64562  0.72395  0.85170  1.0000
  H   H4770     1.0  0.71063  0.83874  0.83407  1.0000
  C   C4787     1.0  0.71000  0.82354  0.84432  1.0000
  H   H4771     1.0  0.71896  0.81488  0.86708  1.0000
  H   H4772     1.0  0.72667  0.76428  0.85001  1.0000
  H   H4773     1.0  0.73671  0.75366  0.89414  1.0000
  C   C4788     1.0  0.57287  0.75216  0.80006  1.0000
  H   H4774     1.0  0.50264  0.71928  0.78194  1.0000
  H   H4775     1.0  0.73750  0.74044  0.97559  1.0000
  C   C4789     1.0  0.72528  0.62595  0.81385  1.0000
  Fe  Fe788     1.0  0.56298  0.69801  0.78016  1.0000
  C   C4790     1.0  0.73578  0.84799  0.81285  1.0000
  S   S1586     1.0  0.61231  0.76956  0.79207  1.0000
  C   C4791     1.0  0.71592  0.78508  0.86370  1.0000
  C   C4792     1.0  0.70933  0.77800  0.86922  1.0000
  C   C4793     1.0  0.70453  0.77369  0.86377  1.0000
  C   C4794     1.0  0.70599  0.77676  0.85281  1.0000
  C   C4795     1.0  0.71258  0.78384  0.84729  1.0000
  C   C4796     1.0  0.71772  0.78781  0.85270  1.0000
  H   H4776     1.0  0.70786  0.77589  0.87773  1.0000
  H   H4777     1.0  0.69940  0.76829  0.86809  1.0000
  H   H4778     1.0  0.71375  0.78620  0.83880  1.0000
  H   H4779     1.0  0.72279  0.79323  0.84836  1.0000
  H   H4780     1.0  0.67006  0.71531  0.86238  1.0000
  H   H4781     1.0  0.72071  0.85033  0.83581  1.0000
  S   S1587     1.0  0.73906  0.74233  0.91610  1.0000
  S   S1588     1.0  0.73056  0.85450  0.80150  1.0000
  N   N394      1.0  0.57634  0.74736  0.80920  1.0000
  H   H4782     1.0  0.73032  0.70827  0.88743  1.0000
  C   C4797     1.0  0.72464  0.69543  0.89888  1.0000
  C   C4798     1.0  0.53012  0.69195  0.79560  1.0000
  C   C4799     1.0  0.66646  0.72685  0.87183  1.0000
  H   H4783     1.0  0.72188  0.69971  0.90521  1.0000
  H   H4784     1.0  0.72001  0.68119  0.90859  1.0000
  H   H4785     1.0  0.56668  0.74965  0.79819  1.0000
  N   N395      1.0  0.60600  0.70620  0.78749  1.0000
  C   C4800     1.0  0.73045  0.62542  0.79541  1.0000
  H   H4786     1.0  0.71653  0.62063  0.80576  1.0000
  S   S1589     1.0  0.57096  0.68243  0.78838  1.0000
  H   H4787     1.0  0.72576  0.68923  0.94990  1.0000
  C   C4801     1.0  0.59789  0.70474  0.78408  1.0000
  H   H4788     1.0  0.53049  0.66894  0.78349  1.0000
  H   H4789     1.0  0.60694  0.72143  0.77791  1.0000
  C   C4802     1.0  0.61251  0.77223  0.77855  1.0000
  C   C4803     1.0  0.73427  0.62978  0.81283  1.0000
  H   H4790     1.0  0.71213  0.85285  0.84813  1.0000
  C   C4804     1.0  0.73532  0.71527  0.96272  1.0000
  C   C4805     1.0  0.71705  0.69181  0.95072  1.0000
  H   H4791     1.0  0.61505  0.70126  0.79942  1.0000
  N   N396      1.0  0.71303  0.70075  0.95598  1.0000
  H   H4792     1.0  0.61205  0.78875  0.77652  1.0000
  H   H4793     1.0  0.59885  0.73794  0.79258  1.0000
  C   C4806     1.0  0.64359  0.71442  0.78428  1.0000
  C   C4807     1.0  0.71959  0.83010  0.85654  1.0000
  C   C4808     1.0  0.70557  0.70913  0.95239  1.0000
  N   N397      1.0  0.71736  0.71801  0.82459  1.0000
  C   C4809     1.0  0.70662  0.71993  0.82786  1.0000
  C   C4810     1.0  0.72285  0.70834  0.82263  1.0000
  H   H4794     1.0  0.72410  0.56956  0.79408  1.0000
  C   C4811     1.0  0.71760  0.70018  0.82431  1.0000
  H   H4795     1.0  0.73130  0.72330  0.82357  1.0000
  C   C4812     1.0  0.51104  0.67962  0.78973  1.0000
  H   H4796     1.0  0.54708  0.68684  0.79284  1.0000
  H   H4797     1.0  0.70887  0.54705  0.79011  1.0000
  S   S1590     1.0  0.73603  0.69622  0.92658  1.0000
  C   C4813     1.0  0.65910  0.73541  0.87518  1.0000
  H   H4798     1.0  0.72348  0.83254  0.86129  1.0000
  C   C4814     1.0  0.71227  0.81685  0.85368  1.0000
  H   H4799     1.0  0.58700  0.74661  0.81872  1.0000
  C   C4815     1.0  0.58422  0.75044  0.81149  1.0000
  H   H4800     1.0  0.63987  0.73597  0.86299  1.0000
  H   H4801     1.0  0.64374  0.74542  0.87449  1.0000
  Fe  Fe789     1.0  0.73712  0.72563  0.91996  1.0000
  H   H4802     1.0  0.71330  0.68512  0.95537  1.0000
  H   H4803     1.0  0.71985  0.59392  0.78581  1.0000
  C   C4816     1.0  0.65235  0.71931  0.85546  1.0000
  H   H4804     1.0  0.67389  0.72417  0.87441  1.0000
  C   C4817     1.0  0.73793  0.69994  0.87035  1.0000
  C   C4818     1.0  0.52074  0.68998  0.79470  1.0000
  H   H4805     1.0  0.61273  0.75635  0.77803  1.0000
  C   C4819     1.0  0.53987  0.67712  0.78777  1.0000
  C   C4820     1.0  0.73702  0.70736  0.84276  1.0000
  C   C4821     1.0  0.58572  0.76312  0.79495  1.0000
  H   H4806     1.0  0.59009  0.68514  0.80419  1.0000
  C   C4822     1.0  0.73407  0.77996  0.89128  1.0000
  H   H4807     1.0  0.73634  0.73190  0.93807  1.0000
  H   H4808     1.0  0.50881  0.67309  0.79632  1.0000
  C   C4823     1.0  0.60290  0.69254  0.80291  1.0000
  C   C4824     1.0  0.71265  0.70875  0.97003  1.0000
  H   H4809     1.0  0.72615  0.84770  0.84718  1.0000
  H   H4810     1.0  0.70223  0.72764  0.82925  1.0000
  S   S1591     1.0  0.72597  0.51944  0.78003  1.0000
  H   H4811     1.0  0.72274  0.73155  0.81482  1.0000
  C   C4825     1.0  0.72296  0.72650  0.82278  1.0000
  C   C4826     1.0  0.71194  0.55421  0.78708  1.0000
  H   H4812     1.0  0.54734  0.67207  0.78501  1.0000
  S   S1592     1.0  0.73154  0.67943  0.84264  1.0000
  H   H4813     1.0  0.72000  0.62443  0.82147  1.0000
  H   H4814     1.0  0.72823  0.78729  0.89037  1.0000
  C   C4827     1.0  0.72336  0.62379  0.80506  1.0000
  C   C4828     1.0  0.70111  0.71195  0.82959  1.0000
  C   C4829     1.0  0.58167  0.67801  0.77875  1.0000
  C   C4830     1.0  0.72056  0.56679  0.78927  1.0000
  H   H4815     1.0  0.58956  0.76913  0.78936  1.0000
  C   C4831     1.0  0.71646  0.55769  0.79334  1.0000
  H   H4816     1.0  0.72685  0.67133  0.89405  1.0000
  Fe  Fe790     1.0  0.73641  0.79622  0.86226  1.0000
  H   H4817     1.0  0.52994  0.69863  0.79875  1.0000
  C   C4832     1.0  0.71652  0.70044  0.96472  1.0000
  S   S1593     1.0  0.52493  0.71718  0.77966  1.0000
  H   H4818     1.0  0.70704  0.49941  0.78283  1.0000
  C   C4833     1.0  0.53033  0.67541  0.78693  1.0000
  C   C4834     1.0  0.53973  0.68542  0.79217  1.0000
  N   N398      1.0  0.52094  0.68183  0.79034  1.0000
  H   H4819     1.0  0.73587  0.63111  0.81979  1.0000
  C   C4835     1.0  0.73666  0.54315  0.81178  1.0000
  H   H4820     1.0  0.72250  0.69383  0.96751  1.0000
  C   C4836     1.0  0.61220  0.71395  0.78091  1.0000
  C   C4837     1.0  0.50667  0.71313  0.77760  1.0000
  H   H4821     1.0  0.72983  0.83409  0.81484  1.0000
  H   H4822     1.0  0.72824  0.72791  0.97107  1.0000
  H   H4823     1.0  0.73509  0.68017  0.87642  1.0000
  H   H4824     1.0  0.73453  0.70855  0.86857  1.0000
  H   H4825     1.0  0.51332  0.69520  0.79725  1.0000
  H   H4826     1.0  0.73676  0.69666  0.86412  1.0000
  C   C4838     1.0  0.73403  0.83789  0.81804  1.0000
  C   C4839     1.0  0.72027  0.57216  0.77887  1.0000
  C   C4840     1.0  0.73210  0.60285  0.78057  1.0000
  Fe  Fe791     1.0  0.73668  0.52824  0.78291  1.0000
  H   H4827     1.0  0.61702  0.71584  0.78541  1.0000
  H   H4828     1.0  0.73308  0.75406  0.97599  1.0000
  C   C4841     1.0  0.73833  0.69723  0.84110  1.0000
  Fe  Fe792     1.0  0.73942  0.70553  0.93656  1.0000
  C   C4842     1.0  0.73880  0.55158  0.81444  1.0000
  Fe  Fe793     1.0  0.73884  0.86561  0.78790  1.0000
  C   C4843     1.0  0.73883  0.54228  0.80128  1.0000
  H   H4829     1.0  0.74026  0.73595  0.95328  1.0000
  C   C4844     1.0  0.74047  0.74584  0.92720  1.0000
  C   C4845     1.0  0.71160  0.55989  0.77680  1.0000
  H   H4830     1.0  0.59585  0.70949  0.77675  1.0000
  H   H4831     1.0  0.76409  0.16454  0.16953  1.0000
  H   H4832     1.0  0.83868  0.22515  0.12361  1.0000
  Fe  Fe794     1.0  0.90281  0.23645  0.15722  1.0000
  H   H4833     1.0  0.89694  0.26668  0.16445  1.0000
  S   S1594     1.0  0.91943  0.23903  0.15235  1.0000
  Fe  Fe795     1.0  0.88126  0.24037  0.15139  1.0000
  S   S1595     1.0  0.87421  0.23182  0.16749  1.0000
  S   S1596     1.0  0.87097  0.24862  0.13933  1.0000
  C   C4846     1.0  0.74184  0.25803  0.05802  1.0000
  H   H4834     1.0  0.76496  0.30141  0.05299  1.0000
  Fe  Fe796     1.0  0.88954  0.22002  0.16545  1.0000
  H   H4835     1.0  0.92284  0.21598  0.15508  1.0000
  S   S1597     1.0  0.88867  0.24983  0.15783  1.0000
  S   S1598     1.0  0.89617  0.22797  0.14904  1.0000
  H   H4836     1.0  0.84989  0.24165  0.03869  1.0000
  H   H4837     1.0  0.77180  0.42305  0.16396  1.0000
  Fe  Fe797     1.0  0.78880  0.19276  0.09815  1.0000
  S   S1599     1.0  0.78446  0.17861  0.09613  1.0000
  S   S1600     1.0  0.80358  0.19820  0.08898  1.0000
  Fe  Fe798     1.0  0.76844  0.19878  0.11338  1.0000
  S   S1601     1.0  0.76205  0.18524  0.11283  1.0000
  S   S1602     1.0  0.76011  0.21162  0.12220  1.0000
  Fe  Fe799     1.0  0.77840  0.17572  0.11367  1.0000
  S   S1603     1.0  0.78268  0.15978  0.12413  1.0000
  Fe  Fe800     1.0  0.76861  0.18932  0.09546  1.0000
  S   S1604     1.0  0.75933  0.18997  0.08375  1.0000
  S   S1605     1.0  0.78425  0.18894  0.11577  1.0000
  S   S1606     1.0  0.77348  0.20373  0.09592  1.0000
  Fe  Fe801     1.0  0.84065  0.23662  0.07810  1.0000
  S   S1607     1.0  0.82602  0.24897  0.08162  1.0000
  S   S1608     1.0  0.84626  0.23133  0.06254  1.0000
  Fe  Fe802     1.0  0.84714  0.23512  0.09900  1.0000
  S   S1609     1.0  0.83282  0.24702  0.10422  1.0000
  S   S1610     1.0  0.85930  0.22668  0.10904  1.0000
  Fe  Fe803     1.0  0.82424  0.23881  0.09788  1.0000
  S   S1611     1.0  0.80875  0.23480  0.10672  1.0000
  Fe  Fe804     1.0  0.83608  0.25598  0.08752  1.0000
  S   S1612     1.0  0.83668  0.27305  0.08409  1.0000
  S   S1613     1.0  0.83825  0.22594  0.09407  1.0000
  S   S1614     1.0  0.85106  0.24459  0.08257  1.0000
  C   C4847     1.0  0.79624  0.20293  0.98184  1.0000
  S   S1615     1.0  0.77493  0.29849  0.10061  1.0000
  H   H4838     1.0  0.80730  0.24715  0.04321  1.0000
  H   H4839     1.0  0.75188  0.30317  0.12787  1.0000
  S   S1616     1.0  0.77264  0.29039  0.08017  1.0000
  C   C4848     1.0  0.74331  0.29144  0.04658  1.0000
  Fe  Fe805     1.0  0.76643  0.28763  0.09766  1.0000
  C   C4849     1.0  0.77507  0.40273  0.16362  1.0000
  Fe  Fe806     1.0  0.77955  0.30257  0.08296  1.0000
  S   S1617     1.0  0.79532  0.30655  0.07516  1.0000
  S   S1618     1.0  0.81307  0.21819  0.99186  1.0000
  S   S1619     1.0  0.76546  0.31575  0.08066  1.0000
  Fe  Fe807     1.0  0.81895  0.21000  0.02992  1.0000
  S   S1620     1.0  0.80312  0.21340  0.04048  1.0000
  S   S1621     1.0  0.83340  0.20520  0.03704  1.0000
  Fe  Fe808     1.0  0.80984  0.21501  0.00983  1.0000
  S   S1622     1.0  0.79336  0.21922  0.01901  1.0000
  H   H4840     1.0  0.77997  0.38874  0.15709  1.0000
  Fe  Fe809     1.0  0.80010  0.22728  0.02739  1.0000
  S   S1623     1.0  0.79256  0.24306  0.03118  1.0000
  Fe  Fe810     1.0  0.79806  0.20488  0.03115  1.0000
  S   S1624     1.0  0.78704  0.19371  0.03756  1.0000
  S   S1625     1.0  0.81622  0.22449  0.01724  1.0000
  S   S1626     1.0  0.81431  0.20002  0.02155  1.0000
  H   H4841     1.0  0.79253  0.17504  0.07168  1.0000
  C   C4850     1.0  0.74158  0.29460  0.05615  1.0000
  C   C4851     1.0  0.79904  0.17788  0.06585  1.0000
  H   H4842     1.0  0.75046  0.25677  0.11702  1.0000
  H   H4843     1.0  0.74581  0.32318  0.03947  1.0000
  C   C4852     1.0  0.77390  0.12125  0.14622  1.0000
  C   C4853     1.0  0.77547  0.08060  0.17523  1.0000
  C   C4854     1.0  0.84379  0.23513  0.02917  1.0000
  C   C4855     1.0  0.93500  0.20399  0.16813  1.0000
  C   C4856     1.0  0.79317  0.11778  0.14256  1.0000
  C   C4857     1.0  0.74599  0.19198  0.14790  1.0000
  C   C4858     1.0  0.76737  0.22930  0.00367  1.0000
  C   C4859     1.0  0.75355  0.40574  0.14916  1.0000
  H   H4844     1.0  0.81197  0.25929  0.03894  1.0000
  S   S1627     1.0  0.74980  0.26964  0.01263  1.0000
  H   H4845     1.0  0.82713  0.19300  0.05864  1.0000
  N   N399      1.0  0.77440  0.40693  0.17202  1.0000
  H   H4846     1.0  0.85266  0.19588  0.10809  1.0000
  C   C4860     1.0  0.90541  0.28170  0.17576  1.0000
  S   S1628     1.0  0.77606  0.35487  0.15540  1.0000
  C   C4861     1.0  0.80098  0.35728  0.17552  1.0000
  C   C4862     1.0  0.80517  0.18329  0.06849  1.0000
  Fe  Fe811     1.0  0.75800  0.30312  0.07942  1.0000
  Fe  Fe812     1.0  0.76620  0.34608  0.15107  1.0000
  S   S1629     1.0  0.77387  0.33456  0.14004  1.0000
  H   H4847     1.0  0.82995  0.21828  0.13428  1.0000
  N   N400      1.0  0.82406  0.24551  0.03840  1.0000
  H   H4848     1.0  0.91153  0.21040  0.16138  1.0000
  C   C4863     1.0  0.74866  0.40202  0.17118  1.0000
  H   H4849     1.0  0.92266  0.20306  0.15362  1.0000
  H   H4850     1.0  0.81333  0.25079  0.05167  1.0000
  H   H4851     1.0  0.79075  0.19774  0.98536  1.0000
  N   N401      1.0  0.75571  0.18488  0.15053  1.0000
  H   H4852     1.0  0.81041  0.18006  0.03986  1.0000
  H   H4853     1.0  0.81672  0.21572  0.12033  1.0000
  H   H4854     1.0  0.79603  0.17285  0.05324  1.0000
  H   H4855     1.0  0.74593  0.33926  0.12074  1.0000
  C   C4864     1.0  0.82597  0.20380  0.11180  1.0000
  H   H4856     1.0  0.79992  0.11820  0.13570  1.0000
  H   H4857     1.0  0.83532  0.22941  0.02115  1.0000
  C   C4865     1.0  0.78653  0.09311  0.17219  1.0000
  N   N402      1.0  0.92490  0.20346  0.16847  1.0000
  C   C4866     1.0  0.75628  0.39549  0.15494  1.0000
  H   H4858     1.0  0.74751  0.19985  0.14339  1.0000
  Fe  Fe813     1.0  0.74645  0.35489  0.16570  1.0000
  N   N403      1.0  0.83315  0.21345  0.11982  1.0000
  C   C4867     1.0  0.80769  0.21314  0.98398  1.0000
  H   H4859     1.0  0.75308  0.21197  0.08108  1.0000
  H   H4860     1.0  0.82125  0.18932  0.04495  1.0000
  C   C4868     1.0  0.82462  0.21136  0.11769  1.0000
  S   S1630     1.0  0.89230  0.20249  0.17034  1.0000
  N   N404      1.0  0.81316  0.18718  0.06107  1.0000
  C   C4869     1.0  0.75532  0.17758  0.15985  1.0000
  H   H4861     1.0  0.79956  0.24005  0.99885  1.0000
  C   C4870     1.0  0.75269  0.29228  0.03909  1.0000
  C   C4871     1.0  0.84472  0.20012  0.11082  1.0000
  H   H4862     1.0  0.74755  0.16441  0.14736  1.0000
  S   S1631     1.0  0.76341  0.38555  0.14792  1.0000
  H   H4863     1.0  0.76786  0.29631  0.03585  1.0000
  C   C4872     1.0  0.83294  0.24646  0.04088  1.0000
  C   C4873     1.0  0.77406  0.17078  0.15501  1.0000
  C   C4874     1.0  0.77959  0.39207  0.16372  1.0000
  C   C4875     1.0  0.75772  0.33698  0.12975  1.0000
  S   S1632     1.0  0.75441  0.36411  0.17149  1.0000
  H   H4864     1.0  0.81486  0.20154  0.06333  1.0000
  C   C4876     1.0  0.81918  0.19320  0.06391  1.0000
  H   H4865     1.0  0.77017  0.09744  0.17112  1.0000
  C   C4877     1.0  0.80102  0.17661  0.05552  1.0000
  C   C4878     1.0  0.82485  0.23974  0.03117  1.0000
  H   H4866     1.0  0.85145  0.23071  0.02591  1.0000
  C   C4879     1.0  0.77905  0.24341  0.03398  1.0000
  C   C4880     1.0  0.77190  0.25307  0.03266  1.0000
  C   C4881     1.0  0.76131  0.25331  0.03322  1.0000
  C   C4882     1.0  0.75787  0.24392  0.03511  1.0000
  C   C4883     1.0  0.76487  0.23424  0.03714  1.0000
  C   C4884     1.0  0.77547  0.23399  0.03657  1.0000
  H   H4867     1.0  0.77463  0.26037  0.03069  1.0000
  H   H4868     1.0  0.75589  0.26081  0.03196  1.0000
  H   H4869     1.0  0.76224  0.22695  0.03868  1.0000
  H   H4870     1.0  0.78092  0.22648  0.03789  1.0000
  C   C4885     1.0  0.76057  0.29565  0.04158  1.0000
  H   H4871     1.0  0.75599  0.38574  0.17055  1.0000
  H   H4872     1.0  0.79816  0.20420  0.99689  1.0000
  H   H4873     1.0  0.79090  0.25255  0.99484  1.0000
  C   C4886     1.0  0.84292  0.24129  0.03630  1.0000
  C   C4887     1.0  0.76796  0.31968  0.12029  1.0000
  C   C4888     1.0  0.77238  0.32224  0.12741  1.0000
  C   C4889     1.0  0.76737  0.33098  0.13208  1.0000
  C   C4890     1.0  0.83472  0.23438  0.02652  1.0000
  C   C4891     1.0  0.76413  0.12682  0.14384  1.0000
  H   H4874     1.0  0.77201  0.31306  0.11662  1.0000
  H   H4875     1.0  0.77984  0.31753  0.12918  1.0000
  H   H4876     1.0  0.75551  0.40729  0.14064  1.0000
  H   H4877     1.0  0.93945  0.20840  0.16119  1.0000
  C   C4892     1.0  0.84308  0.20773  0.11674  1.0000
  H   H4878     1.0  0.77412  0.11539  0.15352  1.0000
  H   H4879     1.0  0.80342  0.18447  0.07647  1.0000
  H   H4880     1.0  0.82489  0.22825  0.12373  1.0000
  C   C4893     1.0  0.75376  0.39360  0.16600  1.0000
  C   C4894     1.0  0.75845  0.32587  0.11774  1.0000
  H   H4881     1.0  0.83234  0.25092  0.04670  1.0000
  C   C4895     1.0  0.82493  0.28201  0.08180  1.0000
  C   C4896     1.0  0.81517  0.27898  0.08487  1.0000
  C   C4897     1.0  0.80593  0.28647  0.08298  1.0000
  C   C4898     1.0  0.80653  0.29689  0.07784  1.0000
  C   C4899     1.0  0.81629  0.29984  0.07478  1.0000
  C   C4900     1.0  0.82543  0.29246  0.07685  1.0000
  H   H4882     1.0  0.81474  0.27092  0.08878  1.0000
  H   H4883     1.0  0.79838  0.28417  0.08538  1.0000
  H   H4884     1.0  0.81680  0.30786  0.07077  1.0000
  H   H4885     1.0  0.83294  0.29483  0.07445  1.0000
  C   C4901     1.0  0.84172  0.22275  0.05766  1.0000
  C   C4902     1.0  0.83103  0.22387  0.05758  1.0000
  C   C4903     1.0  0.82820  0.21851  0.05136  1.0000
  C   C4904     1.0  0.83604  0.21184  0.04545  1.0000
  C   C4905     1.0  0.84656  0.21037  0.04606  1.0000
  C   C4906     1.0  0.84938  0.21591  0.05193  1.0000
  H   H4886     1.0  0.82505  0.22927  0.06184  1.0000
  H   H4887     1.0  0.82002  0.21966  0.05101  1.0000
  H   H4888     1.0  0.85266  0.20521  0.04160  1.0000
  H   H4889     1.0  0.85764  0.21509  0.05179  1.0000
  C   C4907     1.0  0.77345  0.15706  0.13592  1.0000
  C   C4908     1.0  0.77666  0.14912  0.14426  1.0000
  C   C4909     1.0  0.76938  0.14665  0.15368  1.0000
  C   C4910     1.0  0.75891  0.15224  0.15485  1.0000
  C   C4911     1.0  0.75005  0.27607  0.09483  1.0000
  C   C4912     1.0  0.76293  0.16250  0.13702  1.0000
  H   H4890     1.0  0.78481  0.14491  0.14346  1.0000
  H   H4891     1.0  0.77194  0.14056  0.16009  1.0000
  H   H4892     1.0  0.75504  0.28452  0.12613  1.0000
  H   H4893     1.0  0.76033  0.16847  0.13057  1.0000
  H   H4894     1.0  0.74533  0.23160  0.12036  1.0000
  C   C4913     1.0  0.88722  0.27557  0.17608  1.0000
  H   H4895     1.0  0.78167  0.17814  0.13960  1.0000
  C   C4914     1.0  0.77892  0.19387  0.05014  1.0000
  C   C4915     1.0  0.77025  0.18908  0.05304  1.0000
  C   C4916     1.0  0.76408  0.18823  0.06328  1.0000
  C   C4917     1.0  0.76676  0.19184  0.07079  1.0000
  C   C4918     1.0  0.77537  0.19677  0.06792  1.0000
  C   C4919     1.0  0.78134  0.19795  0.05752  1.0000
  H   H4896     1.0  0.76835  0.18590  0.04737  1.0000
  H   H4897     1.0  0.75743  0.18444  0.06546  1.0000
  H   H4898     1.0  0.77746  0.19961  0.07369  1.0000
  H   H4899     1.0  0.78806  0.20159  0.05537  1.0000
  C   C4920     1.0  0.80461  0.20878  0.09356  1.0000
  C   C4921     1.0  0.81241  0.21452  0.08813  1.0000
  C   C4922     1.0  0.81345  0.22279  0.09197  1.0000
  C   C4923     1.0  0.80686  0.22516  0.10138  1.0000
  C   C4924     1.0  0.79896  0.21955  0.10671  1.0000
  C   C4925     1.0  0.79775  0.21147  0.10272  1.0000
  H   H4900     1.0  0.81766  0.21257  0.08096  1.0000
  H   H4901     1.0  0.81937  0.22728  0.08764  1.0000
  H   H4902     1.0  0.79377  0.22144  0.11392  1.0000
  H   H4903     1.0  0.79154  0.20730  0.10680  1.0000
  C   C4926     1.0  0.86668  0.24162  0.13242  1.0000
  C   C4927     1.0  0.85830  0.24679  0.12728  1.0000
  C   C4928     1.0  0.85571  0.24216  0.12036  1.0000
  C   C4929     1.0  0.86148  0.23227  0.11855  1.0000
  C   C4930     1.0  0.86951  0.22686  0.12410  1.0000
  C   C4931     1.0  0.87211  0.23151  0.13101  1.0000
  H   H4904     1.0  0.85398  0.25457  0.12841  1.0000
  H   H4905     1.0  0.84947  0.24640  0.11621  1.0000
  H   H4906     1.0  0.87397  0.21917  0.12282  1.0000
  H   H4907     1.0  0.87857  0.22743  0.13493  1.0000
  C   C4932     1.0  0.74657  0.21636  0.07730  1.0000
  C   C4933     1.0  0.74158  0.27010  0.06812  1.0000
  C   C4934     1.0  0.92582  0.23028  0.17157  1.0000
  C   C4935     1.0  0.92869  0.23334  0.16053  1.0000
  C   C4936     1.0  0.93938  0.23180  0.15564  1.0000
  C   C4937     1.0  0.94715  0.22696  0.16155  1.0000
  C   C4938     1.0  0.77714  0.22687  0.99694  1.0000
  C   C4939     1.0  0.77675  0.09103  0.17272  1.0000
  H   H4908     1.0  0.94168  0.23417  0.14716  1.0000
  H   H4909     1.0  0.95537  0.22556  0.15756  1.0000
  C   C4940     1.0  0.80908  0.18071  0.04799  1.0000
  Fe  Fe814     1.0  0.76049  0.31109  0.09828  1.0000
  C   C4941     1.0  0.92028  0.20846  0.15918  1.0000
  H   H4910     1.0  0.76063  0.27067  0.05755  1.0000
  H   H4911     1.0  0.81781  0.23907  0.02916  1.0000
  C   C4942     1.0  0.83158  0.22166  0.12569  1.0000
  C   C4943     1.0  0.81510  0.18602  0.05091  1.0000
  C   C4944     1.0  0.74840  0.21895  0.06628  1.0000
  H   H4912     1.0  0.74537  0.19895  0.12377  1.0000
  H   H4913     1.0  0.82038  0.18993  0.07210  1.0000
  C   C4945     1.0  0.83611  0.19823  0.10826  1.0000
  H   H4914     1.0  0.88291  0.23827  0.10681  1.0000
  C   C4946     1.0  0.81365  0.25097  0.04329  1.0000
  N   N405      1.0  0.74671  0.26451  0.06043  1.0000
  C   C4947     1.0  0.76382  0.13450  0.13456  1.0000
  H   H4915     1.0  0.78978  0.35370  0.16891  1.0000
  H   H4916     1.0  0.75631  0.13908  0.13277  1.0000
  H   H4917     1.0  0.84983  0.20922  0.11862  1.0000
  S   S1633     1.0  0.89745  0.22736  0.17332  1.0000
  C   C4948     1.0  0.75330  0.33443  0.12263  1.0000
  N   N406      1.0  0.79046  0.32433  0.09776  1.0000
  C   C4949     1.0  0.78262  0.32706  0.09222  1.0000
  C   C4950     1.0  0.79021  0.32998  0.10491  1.0000
  C   C4951     1.0  0.77417  0.33555  0.09389  1.0000
  C   C4952     1.0  0.78192  0.33859  0.10671  1.0000
  C   C4953     1.0  0.77383  0.34133  0.10119  1.0000
  C   C4954     1.0  0.79912  0.31528  0.09591  1.0000
  H   H4918     1.0  0.78283  0.32257  0.08657  1.0000
  H   H4919     1.0  0.79631  0.32776  0.10945  1.0000
  H   H4920     1.0  0.76775  0.33742  0.08979  1.0000
  H   H4921     1.0  0.78153  0.34281  0.11268  1.0000
  H   H4922     1.0  0.76713  0.34770  0.10283  1.0000
  H   H4923     1.0  0.79592  0.30815  0.09709  1.0000
  H   H4924     1.0  0.80367  0.31690  0.08766  1.0000
  H   H4925     1.0  0.80463  0.31343  0.10130  1.0000
  H   H4926     1.0  0.75704  0.26953  0.04609  1.0000
  H   H4927     1.0  0.76061  0.41902  0.17351  1.0000
  H   H4928     1.0  0.74129  0.38165  0.15840  1.0000
  S   S1634     1.0  0.74506  0.24434  0.03415  1.0000
  H   H4929     1.0  0.74602  0.42190  0.14968  1.0000
  C   C4955     1.0  0.74664  0.21496  0.12203  1.0000
  N   N407      1.0  0.78400  0.24691  0.09909  1.0000
  C   C4956     1.0  0.78645  0.24124  0.09141  1.0000
  C   C4957     1.0  0.77628  0.24488  0.10787  1.0000
  C   C4958     1.0  0.78126  0.23317  0.09249  1.0000
  C   C4959     1.0  0.77094  0.23686  0.10922  1.0000
  C   C4960     1.0  0.77347  0.23098  0.10148  1.0000
  C   C4961     1.0  0.78931  0.25554  0.09766  1.0000
  H   H4930     1.0  0.79264  0.24278  0.08451  1.0000
  H   H4931     1.0  0.77423  0.24948  0.11389  1.0000
  H   H4932     1.0  0.78346  0.22845  0.08656  1.0000
  H   H4933     1.0  0.76492  0.23516  0.11624  1.0000
  H   H4934     1.0  0.76946  0.22466  0.10253  1.0000
  H   H4935     1.0  0.78497  0.26297  0.09337  1.0000
  H   H4936     1.0  0.78966  0.25677  0.10538  1.0000
  H   H4937     1.0  0.79761  0.25375  0.09324  1.0000
  N   N408      1.0  0.87438  0.25422  0.10480  1.0000
  C   C4962     1.0  0.86953  0.25361  0.09733  1.0000
  C   C4963     1.0  0.87081  0.26251  0.10981  1.0000
  C   C4964     1.0  0.86078  0.26136  0.09480  1.0000
  C   C4965     1.0  0.86197  0.27031  0.10757  1.0000
  C   C4966     1.0  0.85694  0.26971  0.10001  1.0000
  C   C4967     1.0  0.88372  0.24617  0.10713  1.0000
  H   H4938     1.0  0.87230  0.24701  0.09341  1.0000
  H   H4939     1.0  0.87455  0.26290  0.11586  1.0000
  H   H4940     1.0  0.85691  0.26090  0.08889  1.0000
  H   H4941     1.0  0.85899  0.27670  0.11176  1.0000
  H   H4942     1.0  0.85003  0.27564  0.09818  1.0000
  H   H4943     1.0  0.89089  0.24815  0.10137  1.0000
  H   H4944     1.0  0.88473  0.24554  0.11523  1.0000
  S   S1635     1.0  0.75445  0.29007  0.02628  1.0000
  H   H4945     1.0  0.77192  0.40758  0.15684  1.0000
  Fe  Fe815     1.0  0.76760  0.34990  0.17209  1.0000
  C   C4968     1.0  0.76450  0.17053  0.16228  1.0000
  S   S1636     1.0  0.75001  0.15004  0.16696  1.0000
  H   H4946     1.0  0.83727  0.19251  0.10350  1.0000
  H   H4947     1.0  0.79252  0.23040  0.99074  1.0000
  S   S1637     1.0  0.74612  0.30365  0.06988  1.0000
  H   H4948     1.0  0.76279  0.25784  0.05468  1.0000
  C   C4969     1.0  0.90581  0.27506  0.16924  1.0000
  N   N409      1.0  0.78322  0.23975  0.00182  1.0000
  C   C4970     1.0  0.77358  0.24238  0.00822  1.0000
  H   H4949     1.0  0.81921  0.20242  0.10983  1.0000
  H   H4950     1.0  0.75684  0.12535  0.14926  1.0000
  S   S1638     1.0  0.78785  0.10618  0.16987  1.0000
  C   C4971     1.0  0.79163  0.24515  0.00095  1.0000
  C   C4972     1.0  0.77324  0.13647  0.12775  1.0000
  H   H4951     1.0  0.91759  0.23157  0.17544  1.0000
  H   H4952     1.0  0.77871  0.22073  0.99255  1.0000
  H   H4953     1.0  0.79011  0.13282  0.12531  1.0000
  C   C4973     1.0  0.75567  0.16012  0.14649  1.0000
  N   N410      1.0  0.78309  0.12329  0.13953  1.0000
  H   H4954     1.0  0.74582  0.25365  0.05190  1.0000
  Fe  Fe816     1.0  0.76220  0.36858  0.15465  1.0000
  C   C4974     1.0  0.77435  0.17812  0.14546  1.0000
  C   C4975     1.0  0.94441  0.22385  0.17251  1.0000
  C   C4976     1.0  0.78497  0.23231  0.99600  1.0000
  C   C4977     1.0  0.75732  0.26568  0.05445  1.0000
  S   S1639     1.0  0.76461  0.27133  0.10687  1.0000
  S   S1640     1.0  0.75755  0.11961  0.17244  1.0000
  H   H4955     1.0  0.74786  0.17695  0.16534  1.0000
  H   H4956     1.0  0.79121  0.24707  0.00861  1.0000
  C   C4978     1.0  0.74583  0.41227  0.16528  1.0000
  C   C4979     1.0  0.76552  0.23718  0.00927  1.0000
  H   H4957     1.0  0.77210  0.24844  0.01265  1.0000
  C   C4980     1.0  0.74933  0.29827  0.05852  1.0000
  C   C4981     1.0  0.76504  0.18516  0.14334  1.0000
  C   C4982     1.0  0.78286  0.13084  0.13043  1.0000
  H   H4958     1.0  0.77310  0.14268  0.12069  1.0000
  S   S1641     1.0  0.75877  0.34001  0.16804  1.0000
  H   H4959     1.0  0.75792  0.23919  0.01446  1.0000
  H   H4960     1.0  0.91324  0.27211  0.16426  1.0000
  H   H4961     1.0  0.76528  0.19074  0.13583  1.0000
  H   H4962     1.0  0.79441  0.12131  0.14858  1.0000
  C   C4983     1.0  0.74119  0.22548  0.12112  1.0000
  S   S1642     1.0  0.75150  0.29990  0.09690  1.0000
  H   H4963     1.0  0.76123  0.22510  0.00456  1.0000
  C   C4984     1.0  0.75370  0.26925  0.10352  1.0000
  H   H4964     1.0  0.74541  0.27521  0.07013  1.0000
  H   H4965     1.0  0.75475  0.28135  0.08936  1.0000
  C   C4985     1.0  0.74768  0.26209  0.11028  1.0000
  C   C4986     1.0  0.80045  0.20657  0.98841  1.0000
  S   S1643     1.0  0.75320  0.36044  0.14860  1.0000
  H   H4966     1.0  0.79316  0.10930  0.14605  1.0000
  H   H4967     1.0  0.75620  0.21644  0.06162  1.0000
  S   S1644     1.0  0.75296  0.32354  0.10820  1.0000
  H   H4968     1.0  0.76796  0.07901  0.17541  1.0000
  C   C4987     1.0  0.74784  0.29008  0.12459  1.0000
  C   C4988     1.0  0.78340  0.38569  0.17250  1.0000
  H   H4969     1.0  0.75378  0.34373  0.13327  1.0000
  H   H4970     1.0  0.80622  0.35918  0.16796  1.0000
  C   C4989     1.0  0.75895  0.29852  0.05130  1.0000
  H   H4971     1.0  0.78115  0.16507  0.15662  1.0000
  C   C4990     1.0  0.89665  0.27203  0.16932  1.0000
  C   C4991     1.0  0.74823  0.41403  0.15429  1.0000
  H   H4972     1.0  0.74281  0.18858  0.14305  1.0000
  C   C4992     1.0  0.79163  0.35423  0.17604  1.0000
  H   H4973     1.0  0.91251  0.28397  0.17590  1.0000
  C   C4993     1.0  0.76932  0.41805  0.17182  1.0000
  Fe  Fe817     1.0  0.88291  0.24018  0.17364  1.0000
  H   H4974     1.0  0.80266  0.08633  0.17358  1.0000
  Fe  Fe818     1.0  0.74350  0.28237  0.02202  1.0000
  C   C4994     1.0  0.74608  0.30050  0.12554  1.0000
  C   C4995     1.0  0.74125  0.20708  0.12300  1.0000
  H   H4975     1.0  0.78688  0.37740  0.17269  1.0000
  H   H4976     1.0  0.74191  0.27888  0.12035  1.0000
  H   H4977     1.0  0.80254  0.98590  0.17285  1.0000
  H   H4978     1.0  0.74138  0.22670  0.05280  1.0000
  H   H4979     1.0  0.74727  0.31637  0.02359  1.0000
  C   C4996     1.0  0.79504  0.08475  0.17416  1.0000
  Fe  Fe819     1.0  0.89524  0.22482  0.26979  1.0000
  S   S1645     1.0  0.91091  0.21478  0.26467  1.0000
  S   S1646     1.0  0.88571  0.23264  0.25739  1.0000
  Fe  Fe820     1.0  0.89800  0.22072  0.29215  1.0000
  S   S1647     1.0  0.91431  0.21037  0.28876  1.0000
  S   S1648     1.0  0.88906  0.22584  0.30743  1.0000
  Fe  Fe821     1.0  0.91717  0.22263  0.27371  1.0000
  S   S1649     1.0  0.93099  0.22924  0.26267  1.0000
  Fe  Fe822     1.0  0.90681  0.20355  0.27977  1.0000
  S   S1650     1.0  0.90932  0.18650  0.27933  1.0000
  S   S1651     1.0  0.90156  0.23352  0.27786  1.0000
  S   S1652     1.0  0.89048  0.21291  0.28426  1.0000
  Fe  Fe823     1.0  0.89961  0.28336  0.22716  1.0000
  S   S1653     1.0  0.91557  0.27459  0.22044  1.0000
  S   S1654     1.0  0.89245  0.27929  0.24429  1.0000
  Fe  Fe824     1.0  0.89632  0.29794  0.20648  1.0000
  S   S1655     1.0  0.91225  0.29062  0.19787  1.0000
  S   S1656     1.0  0.88330  0.30807  0.19822  1.0000
  Fe  Fe825     1.0  0.90839  0.27517  0.20707  1.0000
  Fe  Fe826     1.0  0.91829  0.29064  0.21191  1.0000
  S   S1657     1.0  0.93498  0.29259  0.20935  1.0000
  S   S1658     1.0  0.89209  0.28234  0.21466  1.0000
  S   S1659     1.0  0.90268  0.29956  0.21969  1.0000
  Fe  Fe827     1.0  0.88046  0.16848  0.24768  1.0000
  S   S1660     1.0  0.89328  0.15498  0.24276  1.0000
  S   S1661     1.0  0.87647  0.17125  0.26417  1.0000
  Fe  Fe828     1.0  0.87511  0.17645  0.22619  1.0000
  S   S1662     1.0  0.88743  0.16367  0.21967  1.0000
  Fe  Fe829     1.0  0.88158  0.15279  0.23462  1.0000
  S   S1663     1.0  0.88018  0.13753  0.23143  1.0000
  Fe  Fe830     1.0  0.89772  0.16719  0.22828  1.0000
  S   S1664     1.0  0.91406  0.16938  0.21947  1.0000
  S   S1665     1.0  0.86841  0.16543  0.24062  1.0000
  S   S1666     1.0  0.88574  0.18077  0.23379  1.0000
  Fe  Fe831     1.0  0.97952  0.25065  0.25875  1.0000
  S   S1667     1.0  0.97184  0.25793  0.24509  1.0000
  S   S1668     1.0  0.97228  0.23761  0.27065  1.0000
  C   C4997     1.0  0.98134  0.22021  0.25165  1.0000
  H   H4980     1.0  0.74443  0.09927  0.22963  1.0000
  Fe  Fe832     1.0  0.97230  0.27332  0.24785  1.0000
  S   S1669     1.0  0.95629  0.28439  0.24841  1.0000
  H   H4981     1.0  0.81035  0.99218  0.18292  1.0000
  S   S1670     1.0  0.74429  0.42509  0.21388  1.0000
  S   S1671     1.0  0.97938  0.26617  0.26223  1.0000
  S   S1672     1.0  0.81425  0.22916  0.36933  1.0000
  S   S1673     1.0  0.93340  0.20154  0.23108  1.0000
  S   S1674     1.0  0.95005  0.24534  0.21495  1.0000
  Fe  Fe833     1.0  0.83478  0.09508  0.22085  1.0000
  S   S1675     1.0  0.81766  0.09934  0.22083  1.0000
  S   S1676     1.0  0.84451  0.08264  0.21181  1.0000
  Fe  Fe834     1.0  0.83297  0.11064  0.23452  1.0000
  S   S1677     1.0  0.81536  0.11560  0.23579  1.0000
  S   S1678     1.0  0.83800  0.12000  0.24339  1.0000
  Fe  Fe835     1.0  0.81559  0.09850  0.23801  1.0000
  S   S1679     1.0  0.80323  0.08946  0.24772  1.0000
  Fe  Fe836     1.0  0.81923  0.11590  0.21859  1.0000
  S   S1680     1.0  0.81127  0.12872  0.20714  1.0000
  S   S1681     1.0  0.83279  0.09323  0.23832  1.0000
  S   S1682     1.0  0.83675  0.11192  0.21697  1.0000
  Fe  Fe837     1.0  0.77253  0.09573  0.29724  1.0000
  S   S1683     1.0  0.75948  0.09248  0.31133  1.0000
  S   S1684     1.0  0.78998  0.09009  0.29590  1.0000
  C   C4998     1.0  0.86174  0.21540  0.36446  1.0000
  C   C4999     1.0  0.79085  0.00695  0.19492  1.0000
  H   H4982     1.0  0.87210  0.32036  0.24513  1.0000
  C   C5000     1.0  0.76386  0.07345  0.22491  1.0000
  S   S1685     1.0  0.76420  0.09382  0.28572  1.0000
  S   S1686     1.0  0.76748  0.11333  0.29443  1.0000
  Fe  Fe838     1.0  0.81206  0.04560  0.20118  1.0000
  S   S1687     1.0  0.79699  0.05763  0.20332  1.0000
  S   S1688     1.0  0.82812  0.04944  0.19791  1.0000
  Fe  Fe839     1.0  0.80092  0.02731  0.20452  1.0000
  S   S1689     1.0  0.78497  0.03798  0.20705  1.0000
  H   H4983     1.0  0.88933  0.24660  0.23713  1.0000
  Fe  Fe840     1.0  0.79128  0.04513  0.21664  1.0000
  S   S1690     1.0  0.78237  0.04939  0.23208  1.0000
  S   S1691     1.0  0.80675  0.03355  0.21539  1.0000
  H   H4984     1.0  0.78259  0.34967  0.20258  1.0000
  Fe  Fe841     1.0  0.83597  0.21778  0.34723  1.0000
  S   S1692     1.0  0.82904  0.20746  0.36228  1.0000
  S   S1693     1.0  0.84800  0.20946  0.33507  1.0000
  Fe  Fe842     1.0  0.82232  0.23771  0.35393  1.0000
  H   H4985     1.0  0.83369  0.09863  0.19640  1.0000
  S   S1694     1.0  0.81777  0.25525  0.35182  1.0000
  C   C5001     1.0  0.86924  0.21989  0.35643  1.0000
  C   C5002     1.0  0.76546  0.13832  0.32961  1.0000
  Fe  Fe843     1.0  0.81348  0.21805  0.35992  1.0000
  S   S1695     1.0  0.79790  0.21320  0.36342  1.0000
  S   S1696     1.0  0.83867  0.22888  0.35554  1.0000
  S   S1697     1.0  0.82016  0.22750  0.34430  1.0000
  H   H4986     1.0  0.78425  0.10616  0.24449  1.0000
  H   H4987     1.0  0.74656  0.12694  0.23209  1.0000
  C   C5003     1.0  0.81311  0.41172  0.19684  1.0000
  S   S1698     1.0  0.96674  0.22352  0.19875  1.0000
  S   S1699     1.0  0.79448  0.17927  0.34060  1.0000
  H   H4988     1.0  0.77257  0.11668  0.24606  1.0000
  Fe  Fe844     1.0  0.83830  0.35571  0.21081  1.0000
  S   S1700     1.0  0.83094  0.37010  0.19993  1.0000
  S   S1701     1.0  0.85557  0.35049  0.21173  1.0000
  Fe  Fe845     1.0  0.81736  0.35011  0.22219  1.0000
  S   S1702     1.0  0.80825  0.36394  0.21259  1.0000
  S   S1703     1.0  0.80986  0.33799  0.23472  1.0000
  Fe  Fe846     1.0  0.82079  0.35972  0.19891  1.0000
  Fe  Fe847     1.0  0.98807  0.25790  0.23545  1.0000
  Fe  Fe848     1.0  0.81882  0.37331  0.21449  1.0000
  S   S1704     1.0  0.80895  0.38941  0.21650  1.0000
  S   S1705     1.0  0.82930  0.34509  0.20838  1.0000
  S   S1706     1.0  0.82683  0.35976  0.22551  1.0000
  C   C5004     1.0  0.93370  0.22565  0.17758  1.0000
  C   C5005     1.0  0.87275  0.19278  0.20317  1.0000
  Fe  Fe849     1.0  0.77883  0.17461  0.34364  1.0000
  Fe  Fe850     1.0  0.94621  0.20861  0.21889  1.0000
  H   H4989     1.0  0.76306  0.22002  0.34186  1.0000
  H   H4990     1.0  0.75328  0.41699  0.28130  1.0000
  C   C5006     1.0  0.74926  0.32280  0.33031  1.0000
  H   H4991     1.0  0.95837  0.27160  0.19954  1.0000
  C   C5007     1.0  0.75312  0.31551  0.32379  1.0000
  C   C5008     1.0  0.77458  0.01676  0.22317  1.0000
  H   H4992     1.0  0.77735  0.40399  0.18745  1.0000
  Fe  Fe851     1.0  0.77810  0.44053  0.25732  1.0000
  S   S1707     1.0  0.78313  0.43459  0.24250  1.0000
  S   S1708     1.0  0.76743  0.43113  0.27028  1.0000
  Fe  Fe852     1.0  0.79063  0.45828  0.24824  1.0000
  S   S1709     1.0  0.79713  0.45273  0.23291  1.0000
  H   H4993     1.0  0.76790  0.47960  0.21351  1.0000
  Fe  Fe853     1.0  0.78064  0.45145  0.23424  1.0000
  S   S1710     1.0  0.77308  0.45751  0.22026  1.0000
  Fe  Fe854     1.0  0.79921  0.43619  0.24252  1.0000
  S   S1711     1.0  0.81338  0.42289  0.23935  1.0000
  S   S1712     1.0  0.77386  0.45763  0.24904  1.0000
  S   S1713     1.0  0.79439  0.44159  0.25786  1.0000
  H   H4994     1.0  0.97157  0.23385  0.21053  1.0000
  S   S1714     1.0  0.77338  0.42028  0.20003  1.0000
  C   C5009     1.0  0.77396  0.44745  0.21389  1.0000
  Fe  Fe855     1.0  0.75379  0.11012  0.30768  1.0000
  C   C5010     1.0  0.74545  0.34848  0.23099  1.0000
  C   C5011     1.0  0.77395  0.43088  0.20495  1.0000
  C   C5012     1.0  0.78080  0.42941  0.21162  1.0000
  C   C5013     1.0  0.78083  0.43769  0.21607  1.0000
  C   C5014     1.0  0.94169  0.25271  0.18842  1.0000
  C   C5015     1.0  0.86810  0.20079  0.19571  1.0000
  H   H4995     1.0  0.78593  0.42183  0.21350  1.0000
  H   H4996     1.0  0.78621  0.43653  0.22111  1.0000
  H   H4997     1.0  0.93768  0.18945  0.19247  1.0000
  S   S1715     1.0  0.74680  0.11905  0.32088  1.0000
  H   H4998     1.0  0.79014  0.41912  0.27773  1.0000
  S   S1716     1.0  0.74381  0.10955  0.29697  1.0000
  H   H4999     1.0  0.82433  0.98768  0.17845  1.0000
  H   H5000     1.0  0.86944  0.21579  0.20820  1.0000
  H   H5001     1.0  0.78966  0.01539  0.19193  1.0000
  Fe  Fe856     1.0  0.75014  0.11368  0.18925  1.0000
  H   H5002     1.0  0.81316  0.33179  0.21521  1.0000
  N   N411      1.0  0.97870  0.21838  0.24327  1.0000
  H   H5003     1.0  0.76228  0.45666  0.20494  1.0000
  H   H5004     1.0  0.78989  0.19902  0.30877  1.0000
  C   C5016     1.0  0.77541  0.41301  0.26227  1.0000
  C   C5017     1.0  0.76733  0.41832  0.26915  1.0000
  C   C5018     1.0  0.75957  0.41299  0.27590  1.0000
  C   C5019     1.0  0.75192  0.33705  0.31484  1.0000
  C   C5020     1.0  0.96036  0.25720  0.18927  1.0000
  H   H5005     1.0  0.78168  0.41674  0.25734  1.0000
  H   H5006     1.0  0.75739  0.07112  0.19279  1.0000
  H   H5007     1.0  0.81019  0.08134  0.19090  1.0000
  H   H5008     1.0  0.74648  0.44705  0.22048  1.0000
  Fe  Fe857     1.0  0.95323  0.22944  0.21112  1.0000
  H   H5009     1.0  0.79912  0.35494  0.20162  1.0000
  C   C5021     1.0  0.81015  0.39759  0.22415  1.0000
  C   C5022     1.0  0.81930  0.39640  0.22778  1.0000
  C   C5023     1.0  0.82019  0.40409  0.23265  1.0000
  C   C5024     1.0  0.81193  0.41293  0.23392  1.0000
  C   C5025     1.0  0.80275  0.41388  0.23049  1.0000
  C   C5026     1.0  0.80185  0.40624  0.22570  1.0000
  H   H5010     1.0  0.82579  0.38977  0.22654  1.0000
  H   H5011     1.0  0.82736  0.40329  0.23525  1.0000
  H   H5012     1.0  0.79642  0.42064  0.23121  1.0000
  H   H5013     1.0  0.79477  0.40715  0.22296  1.0000
  C   C5027     1.0  0.77428  0.34998  0.24193  1.0000
  C   C5028     1.0  0.78000  0.35204  0.23156  1.0000
  C   C5029     1.0  0.79090  0.34805  0.22926  1.0000
  C   C5030     1.0  0.79610  0.34207  0.23732  1.0000
  C   C5031     1.0  0.79029  0.33955  0.24759  1.0000
  C   C5032     1.0  0.77938  0.34354  0.24990  1.0000
  H   H5014     1.0  0.77610  0.35700  0.22535  1.0000
  H   H5015     1.0  0.79527  0.34960  0.22125  1.0000
  H   H5016     1.0  0.79427  0.33478  0.25383  1.0000
  H   H5017     1.0  0.77494  0.34164  0.25787  1.0000
  S   S1717     1.0  0.76550  0.10745  0.19445  1.0000
  H   H5018     1.0  0.89748  0.18693  0.18831  1.0000
  C   C5033     1.0  0.75378  0.12716  0.32356  1.0000
  C   C5034     1.0  0.80554  0.42112  0.19656  1.0000
  H   H5019     1.0  0.88725  0.18227  0.20629  1.0000
  C   C5035     1.0  0.79701  0.20408  0.35670  1.0000
  C   C5036     1.0  0.80575  0.19964  0.34973  1.0000
  C   C5037     1.0  0.80489  0.19200  0.34485  1.0000
  C   C5038     1.0  0.79532  0.18878  0.34691  1.0000
  C   C5039     1.0  0.78658  0.19331  0.35380  1.0000
  C   C5040     1.0  0.78741  0.20098  0.35864  1.0000
  H   H5020     1.0  0.81319  0.20201  0.34820  1.0000
  C   C5041     1.0  0.75510  0.05558  0.29043  1.0000
  H   H5021     1.0  0.77919  0.19089  0.35546  1.0000
  H   H5022     1.0  0.78064  0.20441  0.36401  1.0000
  H   H5023     1.0  0.79936  0.12857  0.26643  1.0000
  C   C5042     1.0  0.80610  0.26012  0.34710  1.0000
  C   C5043     1.0  0.80401  0.25549  0.33997  1.0000
  C   C5044     1.0  0.79462  0.25949  0.33624  1.0000
  C   C5045     1.0  0.78721  0.26792  0.33989  1.0000
  C   C5046     1.0  0.78925  0.27241  0.34715  1.0000
  C   C5047     1.0  0.79876  0.26864  0.35062  1.0000
  H   H5024     1.0  0.80975  0.24903  0.33708  1.0000
  H   H5025     1.0  0.79310  0.25601  0.33059  1.0000
  H   H5026     1.0  0.78364  0.27893  0.34998  1.0000
  H   H5027     1.0  0.80039  0.27229  0.35609  1.0000
  C   C5048     1.0  0.76931  0.04796  0.23463  1.0000
  C   C5049     1.0  0.76465  0.04831  0.22639  1.0000
  H   H5028     1.0  0.94371  0.26885  0.26727  1.0000
  H   H5029     1.0  0.81748  0.33763  0.17852  1.0000
  C   C5050     1.0  0.79831  0.99117  0.20638  1.0000
  C   C5051     1.0  0.76352  0.04637  0.24499  1.0000
  H   H5030     1.0  0.76880  0.05023  0.21834  1.0000
  H   H5031     1.0  0.81240  0.40552  0.19350  1.0000
  S   S1718     1.0  0.91321  0.26176  0.19866  1.0000
  H   H5032     1.0  0.76704  0.04620  0.25140  1.0000
  H   H5033     1.0  0.87020  0.28361  0.18825  1.0000
  C   C5052     1.0  0.79280  0.17178  0.37420  1.0000
  C   C5053     1.0  0.76383  0.12831  0.31764  1.0000
  C   C5054     1.0  0.76965  0.13383  0.32069  1.0000
  H   H5034     1.0  0.78964  0.11484  0.27797  1.0000
  C   C5055     1.0  0.79186  0.13397  0.20225  1.0000
  H   H5035     1.0  0.76726  0.12468  0.31092  1.0000
  H   H5036     1.0  0.77757  0.13435  0.31631  1.0000
  H   H5037     1.0  0.79892  0.42236  0.19289  1.0000
  H   H5038     1.0  0.75099  0.04646  0.22217  1.0000
  S   S1719     1.0  0.94125  0.22325  0.20712  1.0000
  H   H5039     1.0  0.94790  0.26615  0.24529  1.0000
  H   H5040     1.0  0.80042  0.43606  0.20118  1.0000
  H   H5041     1.0  0.76752  0.07273  0.27615  1.0000
  C   C5056     1.0  0.80078  0.08855  0.26131  1.0000
  C   C5057     1.0  0.79290  0.08337  0.26781  1.0000
  C   C5058     1.0  0.79010  0.08325  0.27860  1.0000
  C   C5059     1.0  0.79513  0.08835  0.28294  1.0000
  C   C5060     1.0  0.80341  0.09309  0.27654  1.0000
  C   C5061     1.0  0.80621  0.09325  0.26568  1.0000
  H   H5042     1.0  0.78884  0.07957  0.26447  1.0000
  H   H5043     1.0  0.78398  0.07924  0.28359  1.0000
  H   H5044     1.0  0.80735  0.09703  0.27987  1.0000
  H   H5045     1.0  0.81236  0.09722  0.26067  1.0000
  C   C5062     1.0  0.79803  0.12796  0.20952  1.0000
  C   C5063     1.0  0.79377  0.12094  0.21834  1.0000
  C   C5064     1.0  0.78337  0.11986  0.21982  1.0000
  H   H5046     1.0  0.79851  0.11624  0.22396  1.0000
  H   H5047     1.0  0.78014  0.11427  0.22649  1.0000
  C   C5065     1.0  0.83908  0.07409  0.20787  1.0000
  C   C5066     1.0  0.84606  0.06706  0.20192  1.0000
  C   C5067     1.0  0.84244  0.05975  0.19888  1.0000
  C   C5068     1.0  0.83176  0.05933  0.20169  1.0000
  C   C5069     1.0  0.82460  0.06647  0.20752  1.0000
  C   C5070     1.0  0.82828  0.07382  0.21067  1.0000
  H   H5048     1.0  0.85439  0.06717  0.19972  1.0000
  H   H5049     1.0  0.84802  0.05430  0.19436  1.0000
  H   H5050     1.0  0.81633  0.06618  0.20975  1.0000
  H   H5051     1.0  0.82281  0.07912  0.21536  1.0000
  H   H5052     1.0  0.93542  0.26694  0.23445  1.0000
  C   C5071     1.0  0.79699  0.35495  0.19446  1.0000
  H   H5053     1.0  0.78553  0.31021  0.30094  1.0000
  H   H5054     1.0  0.85988  0.20460  0.19774  1.0000
  C   C5072     1.0  0.98090  0.25119  0.21770  1.0000
  C   C5073     1.0  0.97140  0.25826  0.22040  1.0000
  C   C5074     1.0  0.96188  0.25653  0.21951  1.0000
  C   C5075     1.0  0.96190  0.24769  0.21595  1.0000
  H   H5055     1.0  0.97140  0.26505  0.22321  1.0000
  H   H5056     1.0  0.95455  0.26196  0.22173  1.0000
  C   C5076     1.0  0.84982  0.12473  0.23993  1.0000
  C   C5077     1.0  0.85041  0.13257  0.24472  1.0000
  C   C5078     1.0  0.85962  0.13663  0.24216  1.0000
  C   C5079     1.0  0.86844  0.13265  0.23499  1.0000
  C   C5080     1.0  0.86792  0.12469  0.23031  1.0000
  C   C5081     1.0  0.85861  0.12084  0.23265  1.0000
  H   H5057     1.0  0.84368  0.13556  0.25042  1.0000
  H   H5058     1.0  0.85994  0.14270  0.24586  1.0000
  H   H5059     1.0  0.87475  0.12150  0.22483  1.0000
  H   H5060     1.0  0.85830  0.11472  0.22901  1.0000
  C   C5082     1.0  0.91892  0.17892  0.22233  1.0000
  C   C5083     1.0  0.91373  0.18362  0.23093  1.0000
  C   C5084     1.0  0.91812  0.19076  0.23340  1.0000
  C   C5085     1.0  0.92765  0.19331  0.22724  1.0000
  C   C5086     1.0  0.93271  0.18882  0.21849  1.0000
  C   C5087     1.0  0.92839  0.18156  0.21611  1.0000
  H   H5061     1.0  0.90658  0.18143  0.23594  1.0000
  H   H5062     1.0  0.91424  0.19410  0.24026  1.0000
  H   H5063     1.0  0.94013  0.19065  0.21379  1.0000
  H   H5064     1.0  0.93252  0.17776  0.20959  1.0000
  C   C5088     1.0  0.87581  0.31995  0.20191  1.0000
  C   C5089     1.0  0.86599  0.32435  0.19908  1.0000
  C   C5090     1.0  0.85973  0.33372  0.20200  1.0000
  C   C5091     1.0  0.86334  0.33888  0.20763  1.0000
  C   C5092     1.0  0.87324  0.33456  0.21033  1.0000
  C   C5093     1.0  0.87940  0.32505  0.20760  1.0000
  H   H5065     1.0  0.86321  0.32049  0.19460  1.0000
  H   H5066     1.0  0.85221  0.33705  0.19974  1.0000
  H   H5067     1.0  0.87615  0.33856  0.21457  1.0000
  H   H5068     1.0  0.88700  0.32178  0.20974  1.0000
  C   C5094     1.0  0.94071  0.28990  0.22040  1.0000
  C   C5095     1.0  0.95173  0.28689  0.21912  1.0000
  C   C5096     1.0  0.95655  0.28506  0.22769  1.0000
  C   C5097     1.0  0.95041  0.28652  0.23755  1.0000
  C   C5098     1.0  0.93938  0.28951  0.23885  1.0000
  C   C5099     1.0  0.93453  0.29104  0.23035  1.0000
  H   H5069     1.0  0.95659  0.28605  0.21145  1.0000
  H   H5070     1.0  0.96506  0.28284  0.22659  1.0000
  H   H5071     1.0  0.93457  0.29064  0.24646  1.0000
  H   H5072     1.0  0.92603  0.29342  0.23141  1.0000
  C   C5100     1.0  0.87743  0.22145  0.31468  1.0000
  C   C5101     1.0  0.87558  0.21194  0.31402  1.0000
  C   C5102     1.0  0.86645  0.20844  0.32024  1.0000
  C   C5103     1.0  0.85904  0.21447  0.32705  1.0000
  C   C5104     1.0  0.86082  0.22403  0.32763  1.0000
  C   C5105     1.0  0.87004  0.22745  0.32153  1.0000
  H   H5073     1.0  0.88132  0.20716  0.30891  1.0000
  H   H5074     1.0  0.86520  0.20094  0.31990  1.0000
  H   H5075     1.0  0.85519  0.22872  0.33287  1.0000
  H   H5076     1.0  0.87143  0.23481  0.32209  1.0000
  C   C5106     1.0  0.89925  0.18372  0.27514  1.0000
  C   C5107     1.0  0.89274  0.17728  0.28226  1.0000
  C   C5108     1.0  0.88567  0.17369  0.27879  1.0000
  C   C5109     1.0  0.88535  0.17615  0.26810  1.0000
  C   C5110     1.0  0.89184  0.18264  0.26092  1.0000
  C   C5111     1.0  0.89866  0.18657  0.26447  1.0000
  H   H5077     1.0  0.89329  0.17490  0.29046  1.0000
  H   H5078     1.0  0.88067  0.16870  0.28438  1.0000
  H   H5079     1.0  0.89154  0.18468  0.25267  1.0000
  H   H5080     1.0  0.90378  0.19145  0.25892  1.0000
  C   C5112     1.0  0.94238  0.23120  0.26537  1.0000
  C   C5113     1.0  0.94987  0.23515  0.25682  1.0000
  C   C5114     1.0  0.95902  0.23704  0.25840  1.0000
  C   C5115     1.0  0.96077  0.23515  0.26857  1.0000
  C   C5116     1.0  0.95335  0.23103  0.27716  1.0000
  C   C5117     1.0  0.94413  0.22910  0.27557  1.0000
  H   H5081     1.0  0.94861  0.23677  0.24889  1.0000
  H   H5082     1.0  0.96483  0.23969  0.25167  1.0000
  H   H5083     1.0  0.95468  0.22941  0.28506  1.0000
  H   H5084     1.0  0.93842  0.22601  0.28223  1.0000
  C   C5118     1.0  0.88672  0.24588  0.25373  1.0000
  C   C5119     1.0  0.88593  0.25138  0.26144  1.0000
  C   C5120     1.0  0.88755  0.26172  0.25850  1.0000
  C   C5121     1.0  0.89010  0.26650  0.24784  1.0000
  C   C5122     1.0  0.89079  0.26102  0.24013  1.0000
  C   C5123     1.0  0.88890  0.25078  0.24308  1.0000
  H   H5085     1.0  0.88398  0.24772  0.26969  1.0000
  H   H5086     1.0  0.88695  0.26595  0.26449  1.0000
  H   H5087     1.0  0.89277  0.26465  0.23190  1.0000
  Fe  Fe858     1.0  0.79198  0.04961  0.19348  1.0000
  H   H5088     1.0  0.86270  0.19150  0.34595  1.0000
  H   H5089     1.0  0.80718  0.43638  0.21794  1.0000
  H   H5090     1.0  0.87665  0.25820  0.20384  1.0000
  Fe  Fe859     1.0  0.75061  0.09215  0.29942  1.0000
  C   C5124     1.0  0.74943  0.13200  0.33223  1.0000
  Fe  Fe860     1.0  0.75697  0.35887  0.26147  1.0000
  S   S1720     1.0  0.77299  0.17229  0.33052  1.0000
  C   C5125     1.0  0.78661  0.11155  0.32821  1.0000
  H   H5091     1.0  0.75195  0.14091  0.34218  1.0000
  H   H5092     1.0  0.79039  0.29148  0.30532  1.0000
  Fe  Fe861     1.0  0.75646  0.42257  0.19934  1.0000
  H   H5093     1.0  0.75898  0.35545  0.22370  1.0000
  H   H5094     1.0  0.93432  0.25093  0.18833  1.0000
  S   S1721     1.0  0.77554  0.27292  0.33515  1.0000
  H   H5095     1.0  0.94747  0.27936  0.19355  1.0000
  H   H5096     1.0  0.79815  0.09601  0.31184  1.0000
  N   N412      1.0  0.86447  0.21773  0.28767  1.0000
  C   C5126     1.0  0.86529  0.20724  0.29224  1.0000
  C   C5127     1.0  0.86686  0.22094  0.27694  1.0000
  C   C5128     1.0  0.86845  0.19966  0.28601  1.0000
  C   C5129     1.0  0.87005  0.21359  0.27049  1.0000
  C   C5130     1.0  0.87081  0.20289  0.27507  1.0000
  C   C5131     1.0  0.86185  0.22553  0.29426  1.0000
  H   H5097     1.0  0.86368  0.20465  0.30074  1.0000
  H   H5098     1.0  0.86663  0.22922  0.27330  1.0000
  H   H5099     1.0  0.86925  0.19133  0.28963  1.0000
  H   H5100     1.0  0.87218  0.21618  0.26199  1.0000
  H   H5101     1.0  0.87337  0.19708  0.27016  1.0000
  H   H5102     1.0  0.85694  0.23303  0.29073  1.0000
  H   H5103     1.0  0.85732  0.22268  0.30228  1.0000
  H   H5104     1.0  0.86923  0.22721  0.29505  1.0000
  N   N413      1.0  0.86217  0.15317  0.21420  1.0000
  C   C5132     1.0  0.85424  0.14768  0.21779  1.0000
  C   C5133     1.0  0.86069  0.16288  0.21636  1.0000
  C   C5134     1.0  0.84474  0.15165  0.22419  1.0000
  C   C5135     1.0  0.85128  0.16711  0.22272  1.0000
  C   C5136     1.0  0.84330  0.16138  0.22674  1.0000
  C   C5137     1.0  0.87216  0.14881  0.20765  1.0000
  H   H5105     1.0  0.85536  0.14002  0.21601  1.0000
  H   H5106     1.0  0.86683  0.16740  0.21326  1.0000
  H   H5107     1.0  0.78920  0.23718  0.36248  1.0000
  H   H5108     1.0  0.85026  0.17473  0.22458  1.0000
  C   C5138     1.0  0.80029  0.09668  0.19214  1.0000
  H   H5109     1.0  0.87388  0.14004  0.20965  1.0000
  H   H5110     1.0  0.87187  0.15166  0.19920  1.0000
  N   N414      1.0  0.74839  0.45440  0.23184  1.0000
  C   C5139     1.0  0.92181  0.25691  0.25863  1.0000
  C   C5140     1.0  0.92407  0.26068  0.24775  1.0000
  H   H5111     1.0  0.91456  0.25414  0.26244  1.0000
  H   H5112     1.0  0.91842  0.26111  0.24315  1.0000
  C   C5141     1.0  0.77666  0.31099  0.33044  1.0000
  H   H5113     1.0  0.78266  0.39826  0.25747  1.0000
  C   C5142     1.0  0.75702  0.01861  0.23946  1.0000
  H   H5114     1.0  0.79415  0.32632  0.19108  1.0000
  H   H5115     1.0  0.96770  0.25869  0.18982  1.0000
  H   H5116     1.0  0.76267  0.09933  0.33195  1.0000
  S   S1722     1.0  0.98805  0.27402  0.23684  1.0000
  C   C5143     1.0  0.76607  0.07624  0.26808  1.0000
  Fe  Fe862     1.0  0.75808  0.11114  0.28410  1.0000
  C   C5144     1.0  0.90305  0.25756  0.19611  1.0000
  C   C5145     1.0  0.76454  0.20931  0.33196  1.0000
  H   H5117     1.0  0.87973  0.21879  0.34134  1.0000
  C   C5146     1.0  0.76744  0.44906  0.20685  1.0000
  S   S1723     1.0  0.77173  0.38298  0.27166  1.0000
  C   C5147     1.0  0.75089  0.45298  0.24138  1.0000
  N   N415      1.0  0.88598  0.21569  0.20513  1.0000
  C   C5148     1.0  0.88815  0.20560  0.21083  1.0000
  C   C5149     1.0  0.89383  0.22122  0.20074  1.0000
  C   C5150     1.0  0.89846  0.20071  0.21205  1.0000
  C   C5151     1.0  0.90420  0.21664  0.20194  1.0000
  C   C5152     1.0  0.90651  0.20630  0.20765  1.0000
  C   C5153     1.0  0.87530  0.22060  0.20335  1.0000
  H   H5118     1.0  0.88193  0.20122  0.21442  1.0000
  N   N416      1.0  0.77636  0.24104  0.37522  1.0000
  H   H5119     1.0  0.90016  0.19262  0.21636  1.0000
  H   H5120     1.0  0.91038  0.22109  0.19842  1.0000
  H   H5121     1.0  0.91450  0.20262  0.20866  1.0000
  H   H5122     1.0  0.77736  0.47496  0.22753  1.0000
  H   H5123     1.0  0.78677  0.18746  0.31852  1.0000
  C   C5154     1.0  0.77814  0.11295  0.33675  1.0000
  N   N417      1.0  0.77525  0.38169  0.23644  1.0000
  C   C5155     1.0  0.78151  0.38807  0.22942  1.0000
  C   C5156     1.0  0.76495  0.38305  0.23586  1.0000
  C   C5157     1.0  0.77753  0.39602  0.22150  1.0000
  C   C5158     1.0  0.76068  0.39095  0.22809  1.0000
  C   C5159     1.0  0.76703  0.39748  0.22088  1.0000
  C   C5160     1.0  0.77967  0.37353  0.24470  1.0000
  H   H5124     1.0  0.78965  0.38699  0.22994  1.0000
  H   H5125     1.0  0.75995  0.37803  0.24141  1.0000
  H   H5126     1.0  0.75883  0.06796  0.29532  1.0000
  S   S1724     1.0  0.74914  0.36544  0.28933  1.0000
  Fe  Fe863     1.0  0.77267  0.11494  0.17814  1.0000
  H   H5127     1.0  0.78157  0.37724  0.25022  1.0000
  H   H5128     1.0  0.77405  0.36844  0.24939  1.0000
  H   H5129     1.0  0.78693  0.36832  0.24117  1.0000
  H   H5130     1.0  0.74542  0.34909  0.23887  1.0000
  C   C5161     1.0  0.95050  0.27159  0.19839  1.0000
  H   H5131     1.0  0.85797  0.21889  0.37129  1.0000
  C   C5162     1.0  0.89741  0.24905  0.18545  1.0000
  C   C5163     1.0  0.78331  0.31032  0.30927  1.0000
  C   C5164     1.0  0.78614  0.20745  0.32855  1.0000
  C   C5165     1.0  0.93406  0.19334  0.18575  1.0000
  S   S1725     1.0  0.80761  0.03845  0.19002  1.0000
  C   C5166     1.0  0.75264  0.06500  0.29407  1.0000
  S   S1726     1.0  0.74702  0.28947  0.34279  1.0000
  C   C5167     1.0  0.78151  0.13280  0.20367  1.0000
  N   N418      1.0  0.95088  0.26304  0.19340  1.0000
  C   C5168     1.0  0.94162  0.26095  0.19296  1.0000
  H   H5132     1.0  0.74691  0.45972  0.19355  1.0000
  N   N419      1.0  0.92761  0.17141  0.25432  1.0000
  C   C5169     1.0  0.91937  0.16692  0.26037  1.0000
  C   C5170     1.0  0.93258  0.16902  0.24471  1.0000
  C   C5171     1.0  0.91565  0.16012  0.25669  1.0000
  C   C5172     1.0  0.92926  0.16201  0.24092  1.0000
  C   C5173     1.0  0.92063  0.15769  0.24688  1.0000
  C   C5174     1.0  0.93059  0.17938  0.25787  1.0000
  H   H5133     1.0  0.91552  0.16871  0.26803  1.0000
  H   H5134     1.0  0.93893  0.17279  0.23977  1.0000
  H   H5135     1.0  0.90884  0.15691  0.26137  1.0000
  H   H5136     1.0  0.93303  0.16032  0.23319  1.0000
  H   H5137     1.0  0.91771  0.15260  0.24381  1.0000
  H   H5138     1.0  0.93039  0.17705  0.26647  1.0000
  H   H5139     1.0  0.93865  0.18057  0.25373  1.0000
  H   H5140     1.0  0.92494  0.18705  0.25632  1.0000
  H   H5141     1.0  0.78204  0.00454  0.18481  1.0000
  H   H5142     1.0  0.77845  0.28829  0.31427  1.0000
  H   H5143     1.0  0.84970  0.33498  0.23183  1.0000
  Fe  Fe864     1.0  0.76261  0.12342  0.19797  1.0000
  H   H5144     1.0  0.78081  0.22456  0.37530  1.0000
  N   N420      1.0  0.78908  0.40308  0.28012  1.0000
  C   C5175     1.0  0.79308  0.39379  0.27675  1.0000
  C   C5176     1.0  0.74860  0.33359  0.32579  1.0000
  C   C5177     1.0  0.78033  0.40369  0.28931  1.0000
  H   H5145     1.0  0.78956  0.38698  0.28059  1.0000
  C   C5178     1.0  0.75647  0.31895  0.31288  1.0000
  C   C5179     1.0  0.76845  0.21498  0.33678  1.0000
  H   H5146     1.0  0.77534  0.41180  0.28871  1.0000
  N   N421      1.0  0.81903  0.06143  0.23695  1.0000
  C   C5180     1.0  0.82556  0.06689  0.23841  1.0000
  C   C5181     1.0  0.82310  0.05322  0.23185  1.0000
  C   C5182     1.0  0.83649  0.06416  0.23478  1.0000
  C   C5183     1.0  0.83399  0.05027  0.22812  1.0000
  C   C5184     1.0  0.84070  0.05580  0.22959  1.0000
  C   C5185     1.0  0.80759  0.06485  0.24037  1.0000
  H   H5147     1.0  0.82232  0.07355  0.24224  1.0000
  H   H5148     1.0  0.81793  0.04910  0.23034  1.0000
  H   H5149     1.0  0.84162  0.06874  0.23560  1.0000
  H   H5150     1.0  0.83715  0.04403  0.22372  1.0000
  H   H5151     1.0  0.84912  0.05390  0.22635  1.0000
  H   H5152     1.0  0.80325  0.05897  0.24017  1.0000
  H   H5153     1.0  0.80560  0.06606  0.24858  1.0000
  H   H5154     1.0  0.80475  0.07246  0.23518  1.0000
  N   N422      1.0  0.91548  0.22761  0.23507  1.0000
  C   C5186     1.0  0.92437  0.22681  0.23858  1.0000
  C   C5187     1.0  0.91150  0.23668  0.22858  1.0000
  C   C5188     1.0  0.92945  0.23527  0.23565  1.0000
  C   C5189     1.0  0.91635  0.24530  0.22554  1.0000
  C   C5190     1.0  0.92538  0.24457  0.22911  1.0000
  C   C5191     1.0  0.91009  0.21879  0.23814  1.0000
  H   H5155     1.0  0.92762  0.21962  0.24368  1.0000
  H   H5156     1.0  0.90449  0.23729  0.22575  1.0000
  H   H5157     1.0  0.93652  0.23461  0.23842  1.0000
  H   H5158     1.0  0.91316  0.25246  0.22041  1.0000
  H   H5159     1.0  0.92929  0.25116  0.22672  1.0000
  H   H5160     1.0  0.91006  0.21613  0.23105  1.0000
  H   H5161     1.0  0.91413  0.21191  0.24335  1.0000
  H   H5162     1.0  0.90188  0.22122  0.24249  1.0000
  H   H5163     1.0  0.80007  0.06788  0.17909  1.0000
  S   S1727     1.0  0.76097  0.35613  0.24501  1.0000
  H   H5164     1.0  0.81216  0.40151  0.25588  1.0000
  H   H5165     1.0  0.75617  0.44177  0.25466  1.0000
  C   C5192     1.0  0.85653  0.33221  0.23578  1.0000
  S   S1728     1.0  0.81630  0.35979  0.18389  1.0000
  H   H5166     1.0  0.77931  0.07344  0.21491  1.0000
  N   N423      1.0  0.78225  0.20175  0.32404  1.0000
  H   H5167     1.0  0.76734  0.08444  0.26576  1.0000
  H   H5168     1.0  0.77805  0.09670  0.31718  1.0000
  H   H5169     1.0  0.74776  0.10564  0.21033  1.0000
  H   H5170     1.0  0.80435  0.38580  0.26513  1.0000
  H   H5171     1.0  0.76268  0.10993  0.34444  1.0000
  C   C5193     1.0  0.76952  0.10846  0.33815  1.0000
  C   C5194     1.0  0.87395  0.21532  0.34770  1.0000
  N   N424      1.0  0.81438  0.42704  0.20649  1.0000
  C   C5195     1.0  0.80637  0.42879  0.20137  1.0000
  C   C5196     1.0  0.82195  0.41792  0.20664  1.0000
  C   C5197     1.0  0.82146  0.41016  0.20177  1.0000
  C   C5198     1.0  0.81464  0.43498  0.21197  1.0000
  H   H5172     1.0  0.82822  0.41642  0.21084  1.0000
  H   H5173     1.0  0.75775  0.42623  0.24735  1.0000
  H   H5174     1.0  0.81560  0.44250  0.20628  1.0000
  H   H5175     1.0  0.79501  0.16773  0.36772  1.0000
  H   H5176     1.0  0.82118  0.43237  0.21631  1.0000
  C   C5199     1.0  0.88930  0.19084  0.19034  1.0000
  C   C5200     1.0  0.75225  0.43564  0.23337  1.0000
  H   H5177     1.0  0.82660  0.11188  0.19650  1.0000
  C   C5201     1.0  0.76865  0.39689  0.26959  1.0000
  H   H5178     1.0  0.78050  0.47838  0.26553  1.0000
  N   N425      1.0  0.86234  0.32157  0.23454  1.0000
  H   H5179     1.0  0.89082  0.26383  0.20820  1.0000
  H   H5180     1.0  0.77405  0.10507  0.25625  1.0000
  H   H5181     1.0  0.76322  0.05136  0.28880  1.0000
  C   C5202     1.0  0.75328  0.07396  0.22531  1.0000
  C   C5203     1.0  0.77604  0.40240  0.26246  1.0000
  C   C5204     1.0  0.79339  0.41172  0.27514  1.0000
  C   C5205     1.0  0.97144  0.24078  0.21306  1.0000
  N   N426      1.0  0.78389  0.11573  0.25477  1.0000
  C   C5206     1.0  0.78908  0.12335  0.24840  1.0000
  C   C5207     1.0  0.78399  0.11275  0.26529  1.0000
  C   C5208     1.0  0.79466  0.12813  0.25250  1.0000
  C   C5209     1.0  0.78947  0.11738  0.26966  1.0000
  C   C5210     1.0  0.79490  0.12506  0.26319  1.0000
  C   C5211     1.0  0.77843  0.11064  0.25015  1.0000
  H   H5182     1.0  0.78903  0.12567  0.24005  1.0000
  H   H5183     1.0  0.77991  0.10670  0.27035  1.0000
  H   H5184     1.0  0.79894  0.13403  0.24737  1.0000
  S   S1729     1.0  0.86535  0.18910  0.21592  1.0000
  S   S1730     1.0  0.76465  0.12365  0.21382  1.0000
  C   C5212     1.0  0.77729  0.12570  0.21242  1.0000
  S   S1731     1.0  0.80280  0.00941  0.20774  1.0000
  H   H5185     1.0  0.78345  0.40144  0.29662  1.0000
  C   C5213     1.0  0.74711  0.08401  0.27079  1.0000
  C   C5214     1.0  0.98095  0.24268  0.21365  1.0000
  C   C5215     1.0  0.93356  0.26394  0.24291  1.0000
  H   H5186     1.0  0.91146  0.19713  0.17733  1.0000
  C   C5216     1.0  0.92897  0.25671  0.26457  1.0000
  H   H5187     1.0  0.92714  0.25378  0.27302  1.0000
  C   C5217     1.0  0.79683  0.00215  0.20264  1.0000
  S   S1732     1.0  0.95687  0.21558  0.22399  1.0000
  H   H5188     1.0  0.79312  0.09453  0.19199  1.0000
  H   H5189     1.0  0.74561  0.33927  0.33080  1.0000
  S   S1733     1.0  0.75657  0.12013  0.26789  1.0000
  C   C5218     1.0  0.77159  0.20271  0.32556  1.0000
  N   N427      1.0  0.93819  0.26006  0.25977  1.0000
  C   C5219     1.0  0.94058  0.26353  0.24908  1.0000
  C   C5220     1.0  0.80142  0.39308  0.26798  1.0000
  C   C5221     1.0  0.89581  0.28522  0.18230  1.0000
  S   S1734     1.0  0.77391  0.14296  0.33455  1.0000
  H   H5190     1.0  0.78138  0.01608  0.21672  1.0000
  C   C5222     1.0  0.76731  0.44074  0.20252  1.0000
  C   C5223     1.0  0.75330  0.04458  0.24715  1.0000
  H   H5191     1.0  0.75371  0.47617  0.18887  1.0000
  C   C5224     1.0  0.80381  0.35742  0.18475  1.0000
  C   C5225     1.0  0.80178  0.41125  0.26639  1.0000
  C   C5226     1.0  0.94521  0.26065  0.26614  1.0000
  C   C5227     1.0  0.75303  0.35122  0.21233  1.0000
  H   H5192     1.0  0.95361  0.25848  0.26218  1.0000
  C   C5228     1.0  0.78505  0.35129  0.18580  1.0000
  C   C5229     1.0  0.78763  0.35192  0.19499  1.0000
  H   H5193     1.0  0.74503  0.11038  0.25949  1.0000
  H   H5194     1.0  0.94418  0.25512  0.27393  1.0000
  H   H5195     1.0  0.78614  0.32421  0.21010  1.0000
  S   S1735     1.0  0.87693  0.24752  0.18787  1.0000
  C   C5230     1.0  0.78578  0.29099  0.31354  1.0000
  Fe  Fe865     1.0  0.76016  0.37238  0.27474  1.0000
  N   N428      1.0  0.88689  0.28211  0.18242  1.0000
  C   C5231     1.0  0.88342  0.18801  0.20051  1.0000
  H   H5196     1.0  0.85344  0.33242  0.24424  1.0000
  N   N429      1.0  0.75699  0.07625  0.20648  1.0000
  H   H5197     1.0  0.86422  0.30317  0.22090  1.0000
  C   C5232     1.0  0.75594  0.01753  0.22983  1.0000
  C   C5233     1.0  0.78578  0.01865  0.23395  1.0000
  S   S1736     1.0  0.95946  0.20082  0.20747  1.0000
  H   H5198     1.0  0.94521  0.27067  0.20632  1.0000
  C   C5234     1.0  0.81277  0.33138  0.18122  1.0000
  C   C5235     1.0  0.75599  0.32970  0.30838  1.0000
  Fe  Fe866     1.0  0.96992  0.20919  0.21151  1.0000
  Fe  Fe867     1.0  0.76864  0.15761  0.34163  1.0000
  H   H5199     1.0  0.87888  0.15110  0.20917  1.0000
  Fe  Fe868     1.0  0.95504  0.21599  0.19591  1.0000
  N   N430      1.0  0.77555  0.01793  0.23262  1.0000
  C   C5236     1.0  0.89267  0.25976  0.20183  1.0000
  H   H5200     1.0  0.79064  0.28490  0.31874  1.0000
  H   H5201     1.0  0.83605  0.16446  0.23186  1.0000
  H   H5202     1.0  0.76848  0.19829  0.32189  1.0000
  N   N431      1.0  0.78306  0.30114  0.31672  1.0000
  S   S1737     1.0  0.76479  0.29291  0.35419  1.0000
  C   C5237     1.0  0.78947  0.19492  0.31715  1.0000
  H   H5203     1.0  0.76757  0.02028  0.24806  1.0000
  C   C5238     1.0  0.76690  0.01899  0.24067  1.0000
  C   C5239     1.0  0.75445  0.04646  0.22855  1.0000
  C   C5240     1.0  0.81903  0.09233  0.19150  1.0000
  H   H5204     1.0  0.87802  0.29366  0.23124  1.0000
  H   H5205     1.0  0.78689  0.01488  0.24210  1.0000
  C   C5241     1.0  0.77932  0.21409  0.33504  1.0000
  C   C5242     1.0  0.77973  0.30138  0.32718  1.0000
  C   C5243     1.0  0.86577  0.30677  0.22646  1.0000
  C   C5244     1.0  0.87363  0.30150  0.23213  1.0000
  Fe  Fe869     1.0  0.75647  0.28395  0.36934  1.0000
  H   H5206     1.0  0.77930  0.29411  0.33304  1.0000
  H   H5207     1.0  0.88212  0.30235  0.24321  1.0000
  C   C5245     1.0  0.87591  0.30640  0.23889  1.0000
  C   C5246     1.0  0.86012  0.31685  0.22781  1.0000
  H   H5208     1.0  0.85414  0.32096  0.22325  1.0000
  H   H5209     1.0  0.77302  0.07603  0.19853  1.0000
  H   H5210     1.0  0.76405  0.01582  0.21404  1.0000
  Fe  Fe870     1.0  0.75716  0.18052  0.33820  1.0000
  C   C5247     1.0  0.99021  0.22437  0.25018  1.0000
  S   S1738     1.0  0.77581  0.15931  0.35430  1.0000
  C   C5248     1.0  0.81333  0.33171  0.19914  1.0000
  C   C5249     1.0  0.87019  0.31654  0.23996  1.0000
  C   C5250     1.0  0.87101  0.20634  0.34709  1.0000
  Fe  Fe871     1.0  0.83036  0.21951  0.37035  1.0000
  N   N432      1.0  0.86344  0.20215  0.35487  1.0000
  C   C5251     1.0  0.88467  0.19881  0.18288  1.0000
  N   N433      1.0  0.74551  0.34700  0.21079  1.0000
  C   C5252     1.0  0.75346  0.07790  0.19667  1.0000
  C   C5253     1.0  0.98474  0.22056  0.23336  1.0000
  H   H5211     1.0  0.81168  0.18854  0.33950  1.0000
  C   C5254     1.0  0.90544  0.25202  0.18806  1.0000
  H   H5212     1.0  0.75454  0.39809  0.28176  1.0000
  H   H5213     1.0  0.78771  0.24981  0.36531  1.0000
  H   H5214     1.0  0.87269  0.22853  0.20533  1.0000
  S   S1739     1.0  0.98560  0.20167  0.21674  1.0000
  C   C5255     1.0  0.80576  0.40189  0.26277  1.0000
  S   S1740     1.0  0.75575  0.27120  0.36189  1.0000
  H   H5215     1.0  0.79244  0.01462  0.22850  1.0000
  H   H5216     1.0  0.77372  0.31120  0.33872  1.0000
  H   H5217     1.0  0.89930  0.24524  0.17890  1.0000
  C   C5256     1.0  0.80900  0.33051  0.20995  1.0000
  H   H5218     1.0  0.76659  0.07217  0.23212  1.0000
  H   H5219     1.0  0.79514  0.13943  0.19545  1.0000
  H   H5220     1.0  0.79753  0.19256  0.31885  1.0000
  C   C5257     1.0  0.75522  0.13758  0.33524  1.0000
  H   H5221     1.0  0.96582  0.21152  0.25320  1.0000
  S   S1741     1.0  0.79643  0.47328  0.24674  1.0000
  C   C5258     1.0  0.74491  0.46508  0.22595  1.0000
  C   C5259     1.0  0.79524  0.10448  0.31222  1.0000
  H   H5222     1.0  0.75044  0.45971  0.24456  1.0000
  H   H5223     1.0  0.98830  0.23733  0.21133  1.0000
  H   H5224     1.0  0.76209  0.44204  0.19726  1.0000
  H   H5225     1.0  0.81799  0.32381  0.17965  1.0000
  C   C5260     1.0  0.78041  0.32005  0.31225  1.0000
  S   S1742     1.0  0.74973  0.41028  0.19663  1.0000
  H   H5226     1.0  0.87136  0.22693  0.35695  1.0000
  C   C5261     1.0  0.76950  0.10253  0.33112  1.0000
  C   C5262     1.0  0.77701  0.32037  0.32291  1.0000
  H   H5227     1.0  0.78255  0.40102  0.21588  1.0000
  C   C5263     1.0  0.77815  0.10120  0.32272  1.0000
  S   S1743     1.0  0.76872  0.35645  0.27135  1.0000
  C   C5264     1.0  0.79845  0.32736  0.19636  1.0000
  H   H5228     1.0  0.77200  0.07169  0.26253  1.0000
  C   C5265     1.0  0.78376  0.07227  0.17783  1.0000
  C   C5266     1.0  0.77101  0.07416  0.21524  1.0000
  H   H5229     1.0  0.74171  0.07577  0.21634  1.0000
  H   H5230     1.0  0.79306  0.11544  0.32696  1.0000
  H   H5231     1.0  0.78031  0.32733  0.30631  1.0000
  H   H5232     1.0  0.77802  0.11797  0.34191  1.0000
  C   C5267     1.0  0.82834  0.10535  0.19229  1.0000
  H   H5233     1.0  0.75159  0.34535  0.31145  1.0000
  H   H5234     1.0  0.97647  0.21868  0.25950  1.0000
  C   C5268     1.0  0.88467  0.25654  0.19938  1.0000
  H   H5235     1.0  0.80202  0.10755  0.31251  1.0000
  H   H5236     1.0  0.75975  0.06114  0.26342  1.0000
  C   C5269     1.0  0.80002  0.10694  0.19270  1.0000
  C   C5270     1.0  0.79386  0.32618  0.20712  1.0000
  H   H5237     1.0  0.82647  0.08661  0.19082  1.0000
  Fe  Fe872     1.0  0.75682  0.34975  0.28491  1.0000
  H   H5238     1.0  0.96297  0.22109  0.24157  1.0000
  H   H5239     1.0  0.86181  0.33791  0.23214  1.0000
  S   S1744     1.0  0.76138  0.33340  0.29484  1.0000
  H   H5240     1.0  0.77613  0.16350  0.37523  1.0000
  H   H5241     1.0  0.89208  0.22920  0.19623  1.0000
  C   C5271     1.0  0.80985  0.08931  0.19150  1.0000
  H   H5242     1.0  0.77431  0.32788  0.32532  1.0000
  Fe  Fe873     1.0  0.76269  0.28084  0.34670  1.0000
  H   H5243     1.0  0.80508  0.41814  0.26232  1.0000
  H   H5244     1.0  0.77675  0.13749  0.19807  1.0000
  S   S1745     1.0  0.76339  0.18433  0.35017  1.0000
  H   H5245     1.0  0.79245  0.10878  0.30485  1.0000
  C   C5272     1.0  0.79825  0.17942  0.37383  1.0000
  C   C5273     1.0  0.80935  0.10967  0.19269  1.0000
  C   C5274     1.0  0.76477  0.01658  0.22161  1.0000
  H   H5246     1.0  0.77506  0.39838  0.28985  1.0000
  C   C5275     1.0  0.76021  0.40229  0.27612  1.0000
  N   N434      1.0  0.78654  0.10568  0.32136  1.0000
  C   C5276     1.0  0.76742  0.07556  0.20604  1.0000
  H   H5247     1.0  0.93412  0.26550  0.19638  1.0000
  H   H5248     1.0  0.87463  0.20291  0.34021  1.0000
  H   H5249     1.0  0.89552  0.29036  0.18738  1.0000
  H   H5250     1.0  0.82721  0.40273  0.20228  1.0000
  H   H5251     1.0  0.98251  0.21934  0.22669  1.0000
  C   C5277     1.0  0.74265  0.46620  0.19736  1.0000
  S   S1746     1.0  0.74732  0.19441  0.32927  1.0000
  H   H5252     1.0  0.83866  0.14703  0.22737  1.0000
  H   H5253     1.0  0.83253  0.10792  0.18406  1.0000
  C   C5278     1.0  0.96909  0.21455  0.24475  1.0000
  C   C5279     1.0  0.78655  0.00077  0.19088  1.0000
  H   H5254     1.0  0.75193  0.34919  0.19414  1.0000
  N   N435      1.0  0.81864  0.10233  0.19234  1.0000
  H   H5255     1.0  0.76380  0.40365  0.21483  1.0000
  H   H5256     1.0  0.87520  0.22155  0.19492  1.0000
  C   C5280     1.0  0.74873  0.44590  0.22794  1.0000
  C   C5281     1.0  0.87710  0.28556  0.18975  1.0000
  C   C5282     1.0  0.79917  0.32779  0.21394  1.0000
  S   S1747     1.0  0.74834  0.43607  0.18849  1.0000
  H   H5257     1.0  0.93152  0.22318  0.18605  1.0000
  C   C5283     1.0  0.86038  0.19275  0.35416  1.0000
  H   H5258     1.0  0.80912  0.11770  0.19291  1.0000
  S   S1748     1.0  0.78147  0.05946  0.18249  1.0000
  C   C5284     1.0  0.75420  0.44284  0.24712  1.0000
  H   H5259     1.0  0.91943  0.18811  0.19285  1.0000
  C   C5285     1.0  0.95131  0.24669  0.18421  1.0000
  H   H5260     1.0  0.74333  0.32799  0.29064  1.0000
  Fe  Fe874     1.0  0.75987  0.16899  0.36012  1.0000
  C   C5286     1.0  0.74996  0.07534  0.21596  1.0000
  H   H5261     1.0  0.75964  0.31321  0.30793  1.0000
  S   S1749     1.0  0.74524  0.31866  0.34408  1.0000
  H   H5262     1.0  0.78623  0.02706  0.23233  1.0000
  H   H5263     1.0  0.82086  0.33408  0.19606  1.0000
  S   S1750     1.0  0.77425  0.34580  0.18681  1.0000
  H   H5264     1.0  0.79265  0.11278  0.19304  1.0000
  S   S1751     1.0  0.74917  0.37519  0.26388  1.0000
  H   H5265     1.0  0.75250  0.39201  0.22768  1.0000
  H   H5266     1.0  0.75285  0.42894  0.23010  1.0000
  H   H5267     1.0  0.75016  0.01948  0.24583  1.0000
  H   H5268     1.0  0.75904  0.35395  0.20573  1.0000
  S   S1752     1.0  0.75231  0.16577  0.34857  1.0000
  C   C5287     1.0  0.92383  0.19267  0.18597  1.0000
  C   C5288     1.0  0.74887  0.04435  0.23896  1.0000
  H   H5269     1.0  0.74895  0.04321  0.25520  1.0000
  C   C5289     1.0  0.87411  0.20392  0.18560  1.0000
  N   N436      1.0  0.80800  0.33025  0.19249  1.0000
  H   H5270     1.0  0.76534  0.18414  0.37006  1.0000
  H   H5271     1.0  0.79569  0.32704  0.22230  1.0000
  S   S1753     1.0  0.74545  0.02312  0.26755  1.0000
  Fe  Fe875     1.0  0.74861  0.30110  0.35117  1.0000
  H   H5272     1.0  0.74787  0.46555  0.21735  1.0000
  H   H5273     1.0  0.75370  0.30719  0.32716  1.0000
  S   S1754     1.0  0.75067  0.03995  0.28386  1.0000
  H   H5274     1.0  0.97078  0.20801  0.24055  1.0000
  C   C5290     1.0  0.85891  0.20647  0.36354  1.0000
  S   S1755     1.0  0.74673  0.12920  0.19384  1.0000
  C   C5291     1.0  0.74712  0.05156  0.28891  1.0000
  H   H5275     1.0  0.96824  0.24424  0.18147  1.0000
  C   C5292     1.0  0.78327  0.24408  0.36497  1.0000
  H   H5276     1.0  0.87049  0.21007  0.17982  1.0000
  C   C5293     1.0  0.75308  0.35205  0.22245  1.0000
  H   H5277     1.0  0.91345  0.25032  0.18360  1.0000
  C   C5294     1.0  0.88701  0.25127  0.19111  1.0000
  H   H5278     1.0  0.85165  0.19371  0.35643  1.0000
  S   S1756     1.0  0.95468  0.21668  0.17911  1.0000
  C   C5295     1.0  0.96072  0.24897  0.18458  1.0000
  H   H5279     1.0  0.80438  0.25807  0.37256  1.0000
  H   H5280     1.0  0.75544  0.08527  0.19126  1.0000
  S   S1757     1.0  0.77143  0.13041  0.18207  1.0000
  H   H5281     1.0  0.95149  0.24018  0.18080  1.0000
  C   C5296     1.0  0.75501  0.43412  0.24302  1.0000
  C   C5297     1.0  0.74650  0.47555  0.19474  1.0000
  H   H5282     1.0  0.78248  0.21835  0.33885  1.0000
  H   H5283     1.0  0.85297  0.20311  0.36976  1.0000
  S   S1758     1.0  0.74582  0.35088  0.27458  1.0000
  H   H5284     1.0  0.80463  0.18119  0.36720  1.0000
  H   H5285     1.0  0.80292  0.98739  0.21236  1.0000
  H   H5286     1.0  0.74476  0.07887  0.19801  1.0000
  N   N437      1.0  0.75529  0.07607  0.26784  1.0000
  H   H5287     1.0  0.79459  0.20668  0.32738  1.0000
  H   H5288     1.0  0.77849  0.24781  0.35884  1.0000
  H   H5289     1.0  0.75610  0.20993  0.33323  1.0000
  C   C5298     1.0  0.77802  0.40071  0.18072  1.0000
  H   H5290     1.0  0.86410  0.18567  0.35941  1.0000
  C   C5299     1.0  0.79402  0.98501  0.20235  1.0000
  H   H5291     1.0  0.87550  0.29425  0.18901  1.0000
  C   C5300     1.0  0.78815  0.98976  0.19453  1.0000
  H   H5292     1.0  0.74812  0.47093  0.22791  1.0000
  H   H5293     1.0  0.78560  0.38508  0.18792  1.0000
  H   H5294     1.0  0.74669  0.40055  0.17969  1.0000
  H   H5295     1.0  0.74822  0.01760  0.22872  1.0000
  H   H5296     1.0  0.74595  0.33800  0.19989  1.0000
  H   H5297     1.0  0.82249  0.24801  0.37395  1.0000
  C   C5301     1.0  0.74216  0.07045  0.29629  1.0000
  C   C5302     1.0  0.75338  0.06773  0.26520  1.0000
  C   C5303     1.0  0.81703  0.98522  0.18348  1.0000
  C   C5304     1.0  0.74531  0.34632  0.20019  1.0000
  H   H5298     1.0  0.74767  0.07327  0.23281  1.0000
  C   C5305     1.0  0.78264  0.39001  0.18106  1.0000
  C   C5306     1.0  0.74118  0.10193  0.21421  1.0000
  H   H5299     1.0  0.87788  0.28164  0.19797  1.0000
  H   H5300     1.0  0.78835  0.48061  0.22627  1.0000
  C   C5307     1.0  0.91936  0.19778  0.17718  1.0000
  C   C5308     1.0  0.74308  0.12184  0.26872  1.0000
  C   C5309     1.0  0.74313  0.06741  0.26505  1.0000
  C   C5310     1.0  0.79358  0.07433  0.17726  1.0000
  H   H5301     1.0  0.77139  0.42109  0.17774  1.0000
  H   H5302     1.0  0.74165  0.13118  0.33685  1.0000
  H   H5303     1.0  0.81778  0.98287  0.19185  1.0000
  Fe  Fe876     1.0  0.75571  0.13467  0.17749  1.0000
  H   H5304     1.0  0.74852  0.09040  0.27335  1.0000
  H   H5305     1.0  0.74166  0.06072  0.26307  1.0000
  C   C5311     1.0  0.93972  0.19896  0.17676  1.0000
  H   H5306     1.0  0.88024  0.27280  0.17640  1.0000
  H   H5307     1.0  0.80661  0.33381  0.17643  1.0000
  H   H5308     1.0  0.94771  0.19949  0.17648  1.0000
  C   C5312     1.0  0.79511  0.18511  0.38181  1.0000
  H   H5309     1.0  0.84721  0.21469  0.40088  1.0000
  H   H5310     1.0  0.76902  0.21948  0.39245  1.0000
  H   H5311     1.0  0.76069  0.27737  0.51881  1.0000
  C   C5313     1.0  0.77440  0.21464  0.46449  1.0000
  C   C5314     1.0  0.75752  0.19210  0.39337  1.0000
  H   H5312     1.0  0.77943  0.29445  0.39871  1.0000
  H   H5313     1.0  0.78952  0.21838  0.46200  1.0000
  C   C5315     1.0  0.78723  0.29366  0.56819  1.0000
  H   H5314     1.0  0.78416  0.18733  0.39640  1.0000
  H   H5315     1.0  0.80832  0.27998  0.49073  1.0000
  C   C5316     1.0  0.81968  0.26172  0.48558  1.0000
  H   H5316     1.0  0.75802  0.29149  0.57401  1.0000
  C   C5317     1.0  0.74821  0.19566  0.56279  1.0000
  C   C5318     1.0  0.74338  0.19995  0.47286  1.0000
  H   H5317     1.0  0.81337  0.26645  0.48129  1.0000
  C   C5319     1.0  0.76836  0.22584  0.48040  1.0000
  H   H5318     1.0  0.77522  0.17333  0.39705  1.0000
  H   H5319     1.0  0.82793  0.27228  0.57188  1.0000
  C   C5320     1.0  0.81820  0.27259  0.51285  1.0000
  H   H5320     1.0  0.77428  0.21356  0.56370  1.0000
  H   H5321     1.0  0.74200  0.26154  0.44110  1.0000
  Fe  Fe877     1.0  0.78733  0.24995  0.54155  1.0000
  S   S1759     1.0  0.77582  0.26445  0.53596  1.0000
  S   S1760     1.0  0.78235  0.23446  0.54629  1.0000
  Fe  Fe878     1.0  0.80418  0.26182  0.53893  1.0000
  S   S1761     1.0  0.79414  0.27741  0.53273  1.0000
  S   S1762     1.0  0.82113  0.26064  0.53916  1.0000
  Fe  Fe879     1.0  0.78135  0.27187  0.54598  1.0000
  S   S1763     1.0  0.76907  0.28142  0.55681  1.0000
  Fe  Fe880     1.0  0.78958  0.26856  0.52315  1.0000
  S   S1764     1.0  0.78714  0.27601  0.50637  1.0000
  S   S1765     1.0  0.79168  0.25686  0.55278  1.0000
  S   S1766     1.0  0.80085  0.25350  0.52816  1.0000
  C   C5321     1.0  0.83634  0.25144  0.56795  1.0000
  H   H5322     1.0  0.77146  0.21396  0.52768  1.0000
  S   S1767     1.0  0.77300  0.22588  0.50635  1.0000
  C   C5322     1.0  0.74448  0.27681  0.41221  1.0000
  Fe  Fe881     1.0  0.78321  0.24569  0.44264  1.0000
  S   S1768     1.0  0.78094  0.26164  0.44589  1.0000
  S   S1769     1.0  0.76941  0.23793  0.44903  1.0000
  Fe  Fe882     1.0  0.80654  0.24427  0.43251  1.0000
  S   S1770     1.0  0.80601  0.26020  0.43515  1.0000
  S   S1771     1.0  0.82212  0.23472  0.42544  1.0000
  Fe  Fe883     1.0  0.79624  0.25523  0.45146  1.0000
  S   S1772     1.0  0.79931  0.25263  0.46804  1.0000
  Fe  Fe884     1.0  0.79074  0.26492  0.42937  1.0000
  S   S1773     1.0  0.78633  0.27943  0.41677  1.0000
  S   S1774     1.0  0.79787  0.23896  0.44898  1.0000
  S   S1775     1.0  0.79204  0.24919  0.42590  1.0000
  C   C5323     1.0  0.76172  0.23947  0.43991  1.0000
  H   H5323     1.0  0.82875  0.25782  0.51730  1.0000
  C   C5324     1.0  0.77734  0.28708  0.39923  1.0000
  H   H5324     1.0  0.80734  0.28633  0.50658  1.0000
  C   C5325     1.0  0.76377  0.24591  0.42987  1.0000
  C   C5326     1.0  0.81297  0.27513  0.49642  1.0000
  C   C5327     1.0  0.78684  0.18282  0.39024  1.0000
  H   H5325     1.0  0.77018  0.24997  0.42767  1.0000
  C   C5328     1.0  0.79006  0.26928  0.49593  1.0000
  C   C5329     1.0  0.78824  0.27503  0.48596  1.0000
  C   C5330     1.0  0.79069  0.27005  0.47739  1.0000
  C   C5331     1.0  0.79506  0.25923  0.47868  1.0000
  C   C5332     1.0  0.79672  0.25347  0.48870  1.0000
  C   C5333     1.0  0.79423  0.25845  0.49728  1.0000
  H   H5326     1.0  0.78500  0.28343  0.48483  1.0000
  H   H5327     1.0  0.78942  0.27460  0.46972  1.0000
  H   H5328     1.0  0.80008  0.24509  0.48981  1.0000
  H   H5329     1.0  0.79566  0.25391  0.50490  1.0000
  C   C5334     1.0  0.78032  0.23172  0.53506  1.0000
  C   C5335     1.0  0.78248  0.23848  0.52523  1.0000
  C   C5336     1.0  0.78091  0.23627  0.51626  1.0000
  C   C5337     1.0  0.77673  0.22755  0.51717  1.0000
  C   C5338     1.0  0.77460  0.22076  0.52698  1.0000
  C   C5339     1.0  0.77655  0.22275  0.53590  1.0000
  H   H5330     1.0  0.78527  0.24548  0.52450  1.0000
  H   H5331     1.0  0.78259  0.24153  0.50870  1.0000
  N   N438      1.0  0.81572  0.25751  0.39624  1.0000
  H   H5332     1.0  0.77508  0.21737  0.54341  1.0000
  C   C5340     1.0  0.75784  0.21853  0.56280  1.0000
  C   C5341     1.0  0.75750  0.25188  0.51330  1.0000
  H   H5333     1.0  0.75108  0.26512  0.53310  1.0000
  H   H5334     1.0  0.80281  0.18408  0.56250  1.0000
  C   C5342     1.0  0.77990  0.27838  0.40732  1.0000
  H   H5335     1.0  0.75901  0.21504  0.55611  1.0000
  C   C5343     1.0  0.74258  0.26607  0.43306  1.0000
  C   C5344     1.0  0.77186  0.28636  0.39194  1.0000
  H   H5336     1.0  0.75817  0.25216  0.39415  1.0000
  H   H5337     1.0  0.77673  0.21064  0.45798  1.0000
  C   C5345     1.0  0.76322  0.24605  0.39009  1.0000
  C   C5346     1.0  0.83251  0.22080  0.39574  1.0000
  C   C5347     1.0  0.82214  0.22668  0.39809  1.0000
  C   C5348     1.0  0.81861  0.23093  0.40730  1.0000
  C   C5349     1.0  0.82552  0.22937  0.41403  1.0000
  C   C5350     1.0  0.83581  0.22356  0.41156  1.0000
  C   C5351     1.0  0.83924  0.21926  0.40256  1.0000
  H   H5338     1.0  0.81682  0.22781  0.39294  1.0000
  H   H5339     1.0  0.81061  0.23535  0.40918  1.0000
  H   H5340     1.0  0.84119  0.22230  0.41670  1.0000
  C   C5352     1.0  0.76724  0.19230  0.56095  1.0000
  C   C5353     1.0  0.75714  0.19245  0.56738  1.0000
  H   H5341     1.0  0.80104  0.26744  0.40153  1.0000
  H   H5342     1.0  0.75168  0.22935  0.45056  1.0000
  C   C5354     1.0  0.75940  0.19889  0.54544  1.0000
  C   C5355     1.0  0.76832  0.19552  0.54999  1.0000
  C   C5356     1.0  0.80204  0.21393  0.55586  1.0000
  S   S1776     1.0  0.76085  0.27552  0.38506  1.0000
  H   H5343     1.0  0.76034  0.20128  0.53697  1.0000
  H   H5344     1.0  0.77609  0.19542  0.54496  1.0000
  C   C5357     1.0  0.82436  0.26275  0.51140  1.0000
  H   H5345     1.0  0.81782  0.27532  0.51985  1.0000
  H   H5346     1.0  0.80854  0.22066  0.56884  1.0000
  H   H5347     1.0  0.79355  0.26789  0.38647  1.0000
  H   H5348     1.0  0.76776  0.27328  0.50118  1.0000
  H   H5349     1.0  0.82963  0.24764  0.38919  1.0000
  C   C5358     1.0  0.77348  0.28764  0.56429  1.0000
  C   C5359     1.0  0.78403  0.28844  0.56221  1.0000
  C   C5360     1.0  0.76270  0.19170  0.38294  1.0000
  C   C5361     1.0  0.75755  0.27209  0.43482  1.0000
  C   C5362     1.0  0.76929  0.22772  0.38912  1.0000
  H   H5350     1.0  0.78967  0.28523  0.55586  1.0000
  H   H5351     1.0  0.79535  0.29445  0.56641  1.0000
  H   H5352     1.0  0.76020  0.25682  0.49128  1.0000
  H   H5353     1.0  0.79423  0.22658  0.47301  1.0000
  H   H5354     1.0  0.79703  0.21442  0.54176  1.0000
  H   H5355     1.0  0.82941  0.25159  0.50136  1.0000
  C   C5363     1.0  0.76683  0.25625  0.49498  1.0000
  H   H5356     1.0  0.75285  0.22274  0.48268  1.0000
  C   C5364     1.0  0.82077  0.25375  0.56081  1.0000
  C   C5365     1.0  0.82653  0.25693  0.55056  1.0000
  C   C5366     1.0  0.83712  0.25726  0.54912  1.0000
  C   C5367     1.0  0.84197  0.25455  0.55772  1.0000
  C   C5368     1.0  0.81997  0.25753  0.40516  1.0000
  H   H5357     1.0  0.81259  0.25343  0.56200  1.0000
  H   H5358     1.0  0.84164  0.25968  0.54128  1.0000
  H   H5359     1.0  0.85017  0.25491  0.55642  1.0000
  C   C5369     1.0  0.76501  0.22198  0.57582  1.0000
  C   C5370     1.0  0.76372  0.26781  0.50736  1.0000
  N   N439      1.0  0.78466  0.16962  0.38248  1.0000
  H   H5360     1.0  0.81871  0.25342  0.48768  1.0000
  C   C5371     1.0  0.77715  0.26894  0.40787  1.0000
  H   H5361     1.0  0.82148  0.26542  0.40446  1.0000
  H   H5362     1.0  0.75695  0.28218  0.41494  1.0000
  N   N440      1.0  0.74799  0.22355  0.56709  1.0000
  C   C5372     1.0  0.74466  0.26866  0.56935  1.0000
  C   C5373     1.0  0.77184  0.26818  0.40058  1.0000
  C   C5374     1.0  0.76897  0.27689  0.39272  1.0000
  N   N441      1.0  0.80501  0.20774  0.56489  1.0000
  C   C5375     1.0  0.80574  0.26314  0.39550  1.0000
  C   C5376     1.0  0.80540  0.19713  0.56724  1.0000
  H   H5363     1.0  0.74795  0.19196  0.47332  1.0000
  H   H5364     1.0  0.74358  0.20026  0.48881  1.0000
  H   H5365     1.0  0.76525  0.27350  0.42970  1.0000
  C   C5377     1.0  0.76095  0.22158  0.47825  1.0000
  C   C5378     1.0  0.82569  0.25100  0.56953  1.0000
  C   C5379     1.0  0.76621  0.29194  0.57246  1.0000
  H   H5366     1.0  0.77190  0.26168  0.48974  1.0000
  S   S1777     1.0  0.74260  0.19899  0.45291  1.0000
  S   S1778     1.0  0.76117  0.19980  0.39993  1.0000
  H   H5367     1.0  0.75408  0.27845  0.43931  1.0000
  C   C5380     1.0  0.80738  0.21248  0.57235  1.0000
  C   C5381     1.0  0.79945  0.20948  0.54887  1.0000
  C   C5382     1.0  0.79978  0.19868  0.55124  1.0000
  C   C5383     1.0  0.75746  0.24711  0.42269  1.0000
  C   C5384     1.0  0.78592  0.22970  0.47667  1.0000
  S   S1779     1.0  0.75072  0.20856  0.51388  1.0000
  C   C5385     1.0  0.76291  0.23548  0.39449  1.0000
  H   H5368     1.0  0.77176  0.24813  0.49557  1.0000
  C   C5386     1.0  0.77908  0.16160  0.38261  1.0000
  N   N442      1.0  0.77852  0.22458  0.47468  1.0000
  N   N443      1.0  0.81897  0.26543  0.49508  1.0000
  H   H5369     1.0  0.78547  0.22838  0.48526  1.0000
  C   C5387     1.0  0.74912  0.24188  0.42556  1.0000
  H   H5370     1.0  0.82744  0.26223  0.48016  1.0000
  H   H5371     1.0  0.78403  0.23831  0.47336  1.0000
  H   H5372     1.0  0.77883  0.26226  0.41406  1.0000
  H   H5373     1.0  0.76591  0.23026  0.48659  1.0000
  C   C5388     1.0  0.76400  0.21602  0.47019  1.0000
  C   C5389     1.0  0.82465  0.25927  0.50241  1.0000
  H   H5374     1.0  0.80153  0.22238  0.55404  1.0000
  C   C5390     1.0  0.81242  0.27880  0.50536  1.0000
  C   C5391     1.0  0.76095  0.18466  0.37790  1.0000
  N   N444      1.0  0.76269  0.25869  0.50548  1.0000
  C   C5392     1.0  0.74705  0.23548  0.43561  1.0000
  C   C5393     1.0  0.76057  0.26155  0.57616  1.0000
  H   H5375     1.0  0.75772  0.23328  0.40202  1.0000
  C   C5394     1.0  0.78158  0.21908  0.46680  1.0000
  C   C5395     1.0  0.74094  0.20465  0.48165  1.0000
  H   H5376     1.0  0.77020  0.25694  0.37699  1.0000
  C   C5396     1.0  0.81773  0.25228  0.37999  1.0000
  H   H5377     1.0  0.81427  0.25554  0.41268  1.0000
  H   H5378     1.0  0.75788  0.25732  0.56292  1.0000
  C   C5397     1.0  0.74932  0.19893  0.55180  1.0000
  H   H5379     1.0  0.81026  0.27190  0.56972  1.0000
  S   S1780     1.0  0.83760  0.21499  0.38459  1.0000
  C   C5398     1.0  0.80148  0.26342  0.38701  1.0000
  S   S1781     1.0  0.75206  0.21391  0.42395  1.0000
  H   H5380     1.0  0.82742  0.25153  0.40573  1.0000
  H   H5381     1.0  0.76962  0.29318  0.38594  1.0000
  H   H5382     1.0  0.76835  0.19661  0.37886  1.0000
  C   C5399     1.0  0.75031  0.18564  0.39864  1.0000
  H   H5383     1.0  0.74635  0.18582  0.40673  1.0000
  Fe  Fe885     1.0  0.75660  0.22312  0.51231  1.0000
  H   H5384     1.0  0.75901  0.25205  0.41494  1.0000
  H   H5385     1.0  0.76975  0.26082  0.40117  1.0000
  C   C5400     1.0  0.78178  0.17489  0.39054  1.0000
  C   C5401     1.0  0.75396  0.17799  0.38323  1.0000
  H   H5386     1.0  0.77205  0.16128  0.38920  1.0000
  C   C5402     1.0  0.80283  0.19244  0.56044  1.0000
  C   C5403     1.0  0.75331  0.23432  0.44279  1.0000
  C   C5404     1.0  0.82174  0.25218  0.38859  1.0000
  S   S1782     1.0  0.77874  0.18843  0.56617  1.0000
  S   S1783     1.0  0.75223  0.16851  0.37735  1.0000
  H   H5387     1.0  0.79739  0.19518  0.54611  1.0000
  Fe  Fe886     1.0  0.74857  0.20611  0.41290  1.0000
  H   H5388     1.0  0.81475  0.20777  0.57496  1.0000
  H   H5389     1.0  0.75827  0.21301  0.46816  1.0000
  H   H5390     1.0  0.75667  0.24467  0.51181  1.0000
  H   H5391     1.0  0.79896  0.19141  0.38133  1.0000
  C   C5405     1.0  0.75964  0.27023  0.51732  1.0000
  H   H5392     1.0  0.78443  0.15370  0.38335  1.0000
  C   C5406     1.0  0.76650  0.21767  0.56708  1.0000
  H   H5393     1.0  0.75623  0.19000  0.57584  1.0000
  C   C5407     1.0  0.74859  0.17855  0.39360  1.0000
  C   C5408     1.0  0.75104  0.27742  0.41842  1.0000
  N   N445      1.0  0.75027  0.27179  0.42859  1.0000
  H   H5394     1.0  0.74914  0.24865  0.52949  1.0000
  S   S1784     1.0  0.74433  0.23412  0.50400  1.0000
  C   C5409     1.0  0.75464  0.26194  0.56896  1.0000
  H   H5395     1.0  0.75931  0.26441  0.44042  1.0000
  H   H5396     1.0  0.80757  0.19222  0.57446  1.0000
  C   C5410     1.0  0.75327  0.25407  0.52334  1.0000
  C   C5411     1.0  0.77596  0.23066  0.37942  1.0000
  C   C5412     1.0  0.77003  0.24870  0.38039  1.0000
  C   C5413     1.0  0.80753  0.25793  0.37922  1.0000
  C   C5414     1.0  0.74648  0.22787  0.57561  1.0000
  H   H5397     1.0  0.74061  0.23141  0.43787  1.0000
  H   H5398     1.0  0.74321  0.17336  0.39780  1.0000
  H   H5399     1.0  0.76846  0.25665  0.57571  1.0000
  C   C5415     1.0  0.75434  0.26332  0.52534  1.0000
  H   H5400     1.0  0.74545  0.28087  0.40399  1.0000
  S   S1785     1.0  0.74792  0.22628  0.52816  1.0000
  H   H5401     1.0  0.74112  0.22339  0.55455  1.0000
  Fe  Fe887     1.0  0.74087  0.21265  0.52933  1.0000
  S   S1786     1.0  0.74136  0.24312  0.41658  1.0000
  Fe  Fe888     1.0  0.83709  0.11422  0.74739  1.0000
  S   S1787     1.0  0.85420  0.10721  0.74233  1.0000
  S   S1788     1.0  0.83070  0.11545  0.76419  1.0000
  Fe  Fe889     1.0  0.83261  0.11811  0.72567  1.0000
  S   S1789     1.0  0.84948  0.11172  0.71866  1.0000
  S   S1790     1.0  0.81921  0.12382  0.71714  1.0000
  Fe  Fe890     1.0  0.84818  0.09892  0.73337  1.0000
  S   S1791     1.0  0.85378  0.08150  0.73380  1.0000
  Fe  Fe891     1.0  0.85369  0.12078  0.72834  1.0000
  S   S1792     1.0  0.86446  0.13264  0.72194  1.0000
  S   S1793     1.0  0.83114  0.10484  0.73976  1.0000
  S   S1794     1.0  0.83676  0.12824  0.73404  1.0000
  Fe  Fe892     1.0  0.77644  0.10604  0.69193  1.0000
  S   S1795     1.0  0.78734  0.09024  0.69219  1.0000
  S   S1796     1.0  0.76658  0.10863  0.70762  1.0000
  Fe  Fe893     1.0  0.78634  0.11521  0.66910  1.0000
  S   S1797     1.0  0.79803  0.09989  0.66770  1.0000
  S   S1798     1.0  0.78830  0.13124  0.65871  1.0000
  Fe  Fe894     1.0  0.78419  0.09219  0.67623  1.0000
  S   S1799     1.0  0.78243  0.07774  0.67187  1.0000
  Fe  Fe895     1.0  0.79994  0.09933  0.68389  1.0000
  S   S1800     1.0  0.81572  0.09521  0.68857  1.0000
  S   S1801     1.0  0.77227  0.10758  0.67643  1.0000
  S   S1802     1.0  0.78925  0.11499  0.68479  1.0000
  Fe  Fe896     1.0  0.79451  0.05083  0.73784  1.0000
  S   S1803     1.0  0.80653  0.03663  0.74323  1.0000
  S   S1804     1.0  0.79088  0.05577  0.72176  1.0000
  Fe  Fe897     1.0  0.79330  0.03266  0.75686  1.0000
  Fe  Fe898     1.0  0.80906  0.04704  0.75252  1.0000
  S   S1805     1.0  0.82543  0.04721  0.75372  1.0000
  S   S1806     1.0  0.78118  0.04648  0.75086  1.0000
  S   S1807     1.0  0.79824  0.06158  0.74578  1.0000
  H   H5402     1.0  0.89041  0.31318  0.69800  1.0000
  H   H5403     1.0  0.80557  0.25887  0.62731  1.0000
  Fe  Fe899     1.0  0.82067  0.23533  0.61359  1.0000
  H   H5404     1.0  0.83547  0.21633  0.63529  1.0000
  H   H5405     1.0  0.75746  0.40610  0.75740  1.0000
  C   C5416     1.0  0.83323  0.41332  0.69176  1.0000
  Fe  Fe900     1.0  0.76422  0.35601  0.76324  1.0000
  S   S1808     1.0  0.77333  0.35318  0.74735  1.0000
  Fe  Fe901     1.0  0.76180  0.36294  0.68037  1.0000
  S   S1809     1.0  0.77738  0.36348  0.66946  1.0000
  S   S1810     1.0  0.76189  0.35044  0.69505  1.0000
  C   C5417     1.0  0.87993  0.33853  0.70020  1.0000
  S   S1811     1.0  0.76545  0.38258  0.65361  1.0000
  Fe  Fe902     1.0  0.76902  0.36481  0.65667  1.0000
  S   S1812     1.0  0.77785  0.35370  0.64552  1.0000
  Fe  Fe903     1.0  0.77236  0.38103  0.66754  1.0000
  S   S1813     1.0  0.78419  0.39018  0.66778  1.0000
  H   H5406     1.0  0.83161  0.42858  0.69492  1.0000
  C   C5418     1.0  0.82582  0.19005  0.61775  1.0000
  Fe  Fe904     1.0  0.81445  0.37349  0.70997  1.0000
  S   S1814     1.0  0.83093  0.37482  0.70138  1.0000
  S   S1815     1.0  0.80437  0.38321  0.72167  1.0000
  Fe  Fe905     1.0  0.81523  0.35456  0.70140  1.0000
  S   S1816     1.0  0.83172  0.35436  0.69192  1.0000
  S   S1817     1.0  0.80779  0.34097  0.70317  1.0000
  Fe  Fe906     1.0  0.83491  0.35720  0.70628  1.0000
  S   S1818     1.0  0.84875  0.34880  0.71377  1.0000
  Fe  Fe907     1.0  0.82613  0.37193  0.68788  1.0000
  S   S1819     1.0  0.83045  0.38129  0.67148  1.0000
  S   S1820     1.0  0.81886  0.35612  0.71605  1.0000
  S   S1821     1.0  0.80928  0.37194  0.69607  1.0000
  Fe  Fe908     1.0  0.78284  0.43574  0.69297  1.0000
  S   S1822     1.0  0.79750  0.42506  0.69755  1.0000
  S   S1823     1.0  0.77023  0.42819  0.69156  1.0000
  S   S1824     1.0  0.80656  0.44639  0.69439  1.0000
  Fe  Fe909     1.0  0.80575  0.43596  0.68423  1.0000
  S   S1825     1.0  0.81929  0.42987  0.67186  1.0000
  Fe  Fe910     1.0  0.79664  0.43651  0.70713  1.0000
  C   C5419     1.0  0.88674  0.32864  0.70122  1.0000
  S   S1826     1.0  0.79110  0.44641  0.67926  1.0000
  Fe  Fe911     1.0  0.90264  0.18126  0.73109  1.0000
  S   S1827     1.0  0.90494  0.16895  0.74568  1.0000
  S   S1828     1.0  0.89234  0.19694  0.73356  1.0000
  Fe  Fe912     1.0  0.91769  0.16741  0.71702  1.0000
  S   S1829     1.0  0.92155  0.15420  0.73056  1.0000
  S   S1830     1.0  0.92493  0.16500  0.70067  1.0000
  Fe  Fe913     1.0  0.90393  0.15751  0.73669  1.0000
  S   S1831     1.0  0.89554  0.14376  0.74372  1.0000
  Fe  Fe914     1.0  0.92219  0.16707  0.73803  1.0000
  S   S1832     1.0  0.93349  0.16723  0.74791  1.0000
  S   S1833     1.0  0.90013  0.17009  0.72271  1.0000
  S   S1834     1.0  0.91989  0.17986  0.72384  1.0000
  H   H5407     1.0  0.76348  0.32896  0.67055  1.0000
  C   C5420     1.0  0.90685  0.25987  0.77319  1.0000
  H   H5408     1.0  0.81727  0.12572  0.74923  1.0000
  Fe  Fe915     1.0  0.90311  0.21786  0.66629  1.0000
  S   S1835     1.0  0.90844  0.22968  0.65185  1.0000
  S   S1836     1.0  0.90776  0.20100  0.66466  1.0000
  Fe  Fe916     1.0  0.89179  0.23464  0.67870  1.0000
  S   S1837     1.0  0.89584  0.24775  0.66514  1.0000
  S   S1838     1.0  0.88283  0.23898  0.69411  1.0000
  Fe  Fe917     1.0  0.89174  0.23882  0.65534  1.0000
  S   S1839     1.0  0.88240  0.24711  0.64247  1.0000
  Fe  Fe918     1.0  0.91201  0.23727  0.66312  1.0000
  S   S1840     1.0  0.92671  0.24387  0.65984  1.0000
  S   S1841     1.0  0.88622  0.22659  0.66924  1.0000
  S   S1842     1.0  0.90817  0.22453  0.67719  1.0000
  Fe  Fe919     1.0  0.90091  0.27547  0.71604  1.0000
  S   S1843     1.0  0.89543  0.28960  0.70404  1.0000
  S   S1844     1.0  0.90964  0.26044  0.71074  1.0000
  Fe  Fe920     1.0  0.89563  0.28776  0.73309  1.0000
  S   S1845     1.0  0.88996  0.30304  0.72250  1.0000
  S   S1846     1.0  0.89581  0.28918  0.74922  1.0000
  Fe  Fe921     1.0  0.88177  0.29363  0.71717  1.0000
  S   S1847     1.0  0.86565  0.30044  0.71325  1.0000
  Fe  Fe922     1.0  0.90389  0.29789  0.71035  1.0000
  S   S1848     1.0  0.91278  0.30988  0.69940  1.0000
  S   S1849     1.0  0.88639  0.27854  0.72872  1.0000
  S   S1850     1.0  0.91051  0.28349  0.72141  1.0000
  Fe  Fe923     1.0  0.97750  0.18713  0.76769  1.0000
  H   H5409     1.0  0.87866  0.31563  0.67952  1.0000
  Fe  Fe924     1.0  0.97706  0.19593  0.74488  1.0000
  S   S1851     1.0  0.96940  0.19390  0.73265  1.0000
  S   S1852     1.0  0.96614  0.19995  0.75955  1.0000
  C   C5421     1.0  0.74585  0.16685  0.61240  1.0000
  S   S1853     1.0  0.92033  0.21740  0.74957  1.0000
  S   S1854     1.0  0.95166  0.26017  0.70041  1.0000
  C   C5422     1.0  0.79376  0.28132  0.60158  1.0000
  Fe  Fe925     1.0  0.96323  0.26973  0.68995  1.0000
  S   S1855     1.0  0.95793  0.28574  0.68004  1.0000
  S   S1856     1.0  0.82579  0.24013  0.62585  1.0000
  S   S1857     1.0  0.78104  0.44631  0.70406  1.0000
  S   S1858     1.0  0.80705  0.22707  0.61855  1.0000
  S   S1859     1.0  0.98711  0.19794  0.76874  1.0000
  Fe  Fe926     1.0  0.78101  0.16913  0.60448  1.0000
  H   H5410     1.0  0.80137  0.37612  0.65245  1.0000
  S   S1860     1.0  0.77975  0.15227  0.61265  1.0000
  Fe  Fe927     1.0  0.76951  0.19166  0.60433  1.0000
  Fe  Fe928     1.0  0.96319  0.24631  0.69512  1.0000
  S   S1861     1.0  0.75635  0.20242  0.61286  1.0000
  H   H5411     1.0  0.79880  0.42663  0.74513  1.0000
  H   H5412     1.0  0.76479  0.36378  0.72592  1.0000
  C   C5423     1.0  0.79082  0.00554  0.75757  1.0000
  S   S1862     1.0  0.76709  0.17916  0.59765  1.0000
  S   S1863     1.0  0.78246  0.18130  0.61228  1.0000
  C   C5424     1.0  0.75917  0.46864  0.72288  1.0000
  S   S1864     1.0  0.75361  0.36309  0.66789  1.0000
  C   C5425     1.0  0.78853  0.46091  0.71961  1.0000
  H   H5413     1.0  0.80298  0.98514  0.72236  1.0000
  H   H5414     1.0  0.92462  0.18502  0.77444  1.0000
  C   C5426     1.0  0.80896  0.08982  0.76852  1.0000
  C   C5427     1.0  0.74913  0.03897  0.74251  1.0000
  C   C5428     1.0  0.80702  0.21816  0.61112  1.0000
  C   C5429     1.0  0.82309  0.20988  0.63372  1.0000
  C   C5430     1.0  0.79870  0.20530  0.60857  1.0000
  C   C5431     1.0  0.79853  0.21308  0.61379  1.0000
  H   H5415     1.0  0.79218  0.20133  0.61079  1.0000
  H   H5416     1.0  0.79186  0.21510  0.62001  1.0000
  C   C5432     1.0  0.79118  0.42728  0.74349  1.0000
  S   S1865     1.0  0.78637  0.47374  0.68905  1.0000
  C   C5433     1.0  0.78244  0.42630  0.75178  1.0000
  C   C5434     1.0  0.80764  0.07984  0.76874  1.0000
  C   C5435     1.0  0.96070  0.24027  0.73697  1.0000
  C   C5436     1.0  0.96609  0.15891  0.73388  1.0000
  H   H5417     1.0  0.78095  0.30294  0.64742  1.0000
  C   C5437     1.0  0.75259  0.16326  0.61951  1.0000
  C   C5438     1.0  0.92515  0.30331  0.69360  1.0000
  C   C5439     1.0  0.93266  0.30895  0.68701  1.0000
  C   C5440     1.0  0.94276  0.30354  0.68283  1.0000
  C   C5441     1.0  0.94538  0.29251  0.68541  1.0000
  C   C5442     1.0  0.93779  0.28696  0.69193  1.0000
  C   C5443     1.0  0.92769  0.29232  0.69590  1.0000
  H   H5418     1.0  0.93072  0.31749  0.68519  1.0000
  H   H5419     1.0  0.94858  0.30789  0.67772  1.0000
  H   H5420     1.0  0.93950  0.27852  0.69361  1.0000
  H   H5421     1.0  0.92185  0.28788  0.70066  1.0000
  C   C5444     1.0  0.87550  0.24044  0.63774  1.0000
  C   C5445     1.0  0.87078  0.24578  0.62910  1.0000
  H   H5422     1.0  0.76164  0.14594  0.76858  1.0000
  C   C5446     1.0  0.86252  0.23115  0.63108  1.0000
  C   C5447     1.0  0.86752  0.22566  0.63950  1.0000
  C   C5448     1.0  0.87394  0.23029  0.64285  1.0000
  H   H5423     1.0  0.87202  0.25359  0.62504  1.0000
  H   H5424     1.0  0.80078  0.37428  0.67697  1.0000
  H   H5425     1.0  0.86630  0.21784  0.64356  1.0000
  H   H5426     1.0  0.87754  0.22607  0.64949  1.0000
  C   C5449     1.0  0.88996  0.24581  0.69815  1.0000
  C   C5450     1.0  0.90063  0.24551  0.69350  1.0000
  C   C5451     1.0  0.90661  0.25007  0.69737  1.0000
  C   C5452     1.0  0.90184  0.25537  0.70561  1.0000
  C   C5453     1.0  0.89105  0.25613  0.70997  1.0000
  C   C5454     1.0  0.88515  0.25119  0.70636  1.0000
  H   H5427     1.0  0.90436  0.24157  0.68706  1.0000
  H   H5428     1.0  0.91494  0.24943  0.69398  1.0000
  H   H5429     1.0  0.88733  0.26022  0.71636  1.0000
  H   H5430     1.0  0.87689  0.25150  0.70993  1.0000
  C   C5455     1.0  0.93416  0.24151  0.66956  1.0000
  C   C5456     1.0  0.94348  0.24534  0.66685  1.0000
  C   C5457     1.0  0.94992  0.24321  0.67417  1.0000
  C   C5458     1.0  0.94707  0.23726  0.68431  1.0000
  C   C5459     1.0  0.93779  0.23335  0.68702  1.0000
  C   C5460     1.0  0.93132  0.23554  0.67971  1.0000
  H   H5431     1.0  0.94581  0.24986  0.65898  1.0000
  C   C5461     1.0  0.80206  0.26706  0.62750  1.0000
  H   H5432     1.0  0.93561  0.22862  0.69480  1.0000
  H   H5433     1.0  0.92419  0.23252  0.68190  1.0000
  H   H5434     1.0  0.78285  0.07882  0.71528  1.0000
  H   H5435     1.0  0.75361  0.23020  0.58716  1.0000
  C   C5462     1.0  0.83844  0.08525  0.76373  1.0000
  C   C5463     1.0  0.90011  0.27773  0.75821  1.0000
  C   C5464     1.0  0.90265  0.26770  0.75590  1.0000
  C   C5465     1.0  0.90600  0.25874  0.76343  1.0000
  N   N446      1.0  0.78032  0.98460  0.71009  1.0000
  H   H5436     1.0  0.74269  0.36725  0.70192  1.0000
  H   H5437     1.0  0.90198  0.26685  0.74836  1.0000
  H   H5438     1.0  0.90801  0.25101  0.76162  1.0000
  C   C5466     1.0  0.91973  0.17519  0.69104  1.0000
  C   C5467     1.0  0.91450  0.18516  0.69312  1.0000
  C   C5468     1.0  0.91064  0.19322  0.68510  1.0000
  C   C5469     1.0  0.91179  0.19116  0.67516  1.0000
  C   C5470     1.0  0.91680  0.18113  0.67323  1.0000
  C   C5471     1.0  0.92089  0.17322  0.68110  1.0000
  H   H5439     1.0  0.91356  0.18669  0.70083  1.0000
  H   H5440     1.0  0.90674  0.20096  0.68662  1.0000
  H   H5441     1.0  0.91771  0.17952  0.66556  1.0000
  H   H5442     1.0  0.92490  0.16552  0.67949  1.0000
  C   C5472     1.0  0.94234  0.17596  0.74361  1.0000
  C   C5473     1.0  0.94726  0.17739  0.75096  1.0000
  C   C5474     1.0  0.95518  0.18330  0.74772  1.0000
  C   C5475     1.0  0.95842  0.18772  0.73706  1.0000
  C   C5476     1.0  0.95330  0.18660  0.72974  1.0000
  C   C5477     1.0  0.94525  0.18079  0.73300  1.0000
  H   H5443     1.0  0.94519  0.17362  0.75916  1.0000
  H   H5444     1.0  0.95910  0.18402  0.75341  1.0000
  H   H5445     1.0  0.95574  0.19001  0.72147  1.0000
  H   H5446     1.0  0.94161  0.17972  0.72723  1.0000
  C   C5478     1.0  0.89971  0.20360  0.73744  1.0000
  C   C5479     1.0  0.91020  0.20361  0.73225  1.0000
  C   C5480     1.0  0.91646  0.20801  0.73592  1.0000
  C   C5481     1.0  0.91223  0.21243  0.74480  1.0000
  C   C5482     1.0  0.90163  0.21277  0.74982  1.0000
  C   C5483     1.0  0.89531  0.20849  0.74603  1.0000
  H   H5447     1.0  0.91345  0.20044  0.72526  1.0000
  H   H5448     1.0  0.89830  0.21629  0.75664  1.0000
  H   H5449     1.0  0.88715  0.20864  0.74998  1.0000
  C   C5484     1.0  0.79002  0.42933  0.73310  1.0000
  Fe  Fe929     1.0  0.77226  0.30665  0.59907  1.0000
  H   H5450     1.0  0.92462  0.20786  0.73195  1.0000
  C   C5485     1.0  0.81759  0.12248  0.76571  1.0000
  H   H5451     1.0  0.90838  0.23645  0.72601  1.0000
  C   C5486     1.0  0.85239  0.33513  0.71456  1.0000
  C   C5487     1.0  0.86004  0.32912  0.72030  1.0000
  C   C5488     1.0  0.86379  0.31836  0.72031  1.0000
  C   C5489     1.0  0.86004  0.31357  0.71447  1.0000
  C   C5490     1.0  0.85203  0.31948  0.70911  1.0000
  C   C5491     1.0  0.84822  0.33027  0.70912  1.0000
  H   H5452     1.0  0.86317  0.33281  0.72465  1.0000
  H   H5453     1.0  0.86952  0.31378  0.72492  1.0000
  H   H5454     1.0  0.84895  0.31578  0.70472  1.0000
  H   H5455     1.0  0.84223  0.33484  0.70476  1.0000
  C   C5492     1.0  0.82687  0.39483  0.67130  1.0000
  C   C5493     1.0  0.81831  0.39881  0.67872  1.0000
  C   C5494     1.0  0.81572  0.40961  0.67872  1.0000
  C   C5495     1.0  0.82182  0.41643  0.67153  1.0000
  C   C5496     1.0  0.83029  0.41244  0.66402  1.0000
  C   C5497     1.0  0.83273  0.40168  0.66383  1.0000
  H   H5456     1.0  0.81367  0.39358  0.68446  1.0000
  H   H5457     1.0  0.80914  0.41254  0.68445  1.0000
  H   H5458     1.0  0.83503  0.41765  0.65839  1.0000
  H   H5459     1.0  0.83936  0.39863  0.65807  1.0000
  C   C5498     1.0  0.77133  0.34908  0.63837  1.0000
  C   C5499     1.0  0.76078  0.35344  0.63778  1.0000
  C   C5500     1.0  0.75586  0.34959  0.63202  1.0000
  H   H5460     1.0  0.78203  0.09107  0.71885  1.0000
  C   C5501     1.0  0.77184  0.33671  0.62774  1.0000
  C   C5502     1.0  0.77683  0.34069  0.63333  1.0000
  H   H5461     1.0  0.75646  0.35990  0.64160  1.0000
  N   N447      1.0  0.87683  0.32278  0.69231  1.0000
  H   H5462     1.0  0.77617  0.33028  0.62387  1.0000
  H   H5463     1.0  0.78500  0.33727  0.63373  1.0000
  C   C5503     1.0  0.77416  0.34822  0.69832  1.0000
  C   C5504     1.0  0.77876  0.33810  0.70316  1.0000
  C   C5505     1.0  0.78905  0.33601  0.70476  1.0000
  C   C5506     1.0  0.79467  0.34407  0.70174  1.0000
  C   C5507     1.0  0.78989  0.35432  0.69737  1.0000
  C   C5508     1.0  0.77966  0.35637  0.69558  1.0000
  H   H5464     1.0  0.77452  0.33179  0.70527  1.0000
  H   H5465     1.0  0.79273  0.32807  0.70815  1.0000
  H   H5466     1.0  0.79414  0.36060  0.69512  1.0000
  H   H5467     1.0  0.77607  0.36426  0.69199  1.0000
  C   C5509     1.0  0.78010  0.39979  0.67562  1.0000
  C   C5510     1.0  0.76942  0.40425  0.67889  1.0000
  C   C5511     1.0  0.76646  0.41274  0.68406  1.0000
  C   C5512     1.0  0.77415  0.41686  0.68597  1.0000
  C   C5513     1.0  0.78481  0.41219  0.68298  1.0000
  C   C5514     1.0  0.78776  0.40368  0.67786  1.0000
  H   H5468     1.0  0.76344  0.40140  0.67712  1.0000
  H   H5469     1.0  0.75821  0.41632  0.68632  1.0000
  H   H5470     1.0  0.79079  0.41529  0.68437  1.0000
  H   H5471     1.0  0.79603  0.40025  0.67543  1.0000
  C   C5515     1.0  0.78095  0.36251  0.74027  1.0000
  C   C5516     1.0  0.78546  0.36248  0.72967  1.0000
  C   C5517     1.0  0.79232  0.36915  0.72396  1.0000
  C   C5518     1.0  0.79475  0.37591  0.72877  1.0000
  C   C5519     1.0  0.79002  0.37620  0.73933  1.0000
  C   C5520     1.0  0.78306  0.36950  0.74509  1.0000
  H   H5472     1.0  0.78374  0.35723  0.72584  1.0000
  H   H5473     1.0  0.79578  0.36895  0.71582  1.0000
  H   H5474     1.0  0.79206  0.38122  0.74317  1.0000
  H   H5475     1.0  0.77961  0.36951  0.75331  1.0000
  C   C5521     1.0  0.78599  0.04544  0.72052  1.0000
  C   C5522     1.0  0.77791  0.04749  0.71507  1.0000
  C   C5523     1.0  0.77342  0.03923  0.71501  1.0000
  H   H5476     1.0  0.84943  0.20619  0.62342  1.0000
  C   C5524     1.0  0.78548  0.02687  0.72531  1.0000
  C   C5525     1.0  0.78980  0.03512  0.72556  1.0000
  H   H5477     1.0  0.77491  0.05547  0.71119  1.0000
  H   H5478     1.0  0.78845  0.01892  0.72930  1.0000
  H   H5479     1.0  0.79612  0.03342  0.72964  1.0000
  C   C5526     1.0  0.79993  0.99556  0.74388  1.0000
  C   C5527     1.0  0.79779  0.00477  0.74789  1.0000
  H   H5480     1.0  0.80550  0.99500  0.73650  1.0000
  H   H5481     1.0  0.80165  0.01121  0.74355  1.0000
  C   C5528     1.0  0.78604  0.13673  0.64582  1.0000
  C   C5529     1.0  0.78828  0.14670  0.64077  1.0000
  C   C5530     1.0  0.78657  0.15146  0.63055  1.0000
  C   C5531     1.0  0.78253  0.14631  0.62529  1.0000
  C   C5532     1.0  0.78031  0.13632  0.63032  1.0000
  C   C5533     1.0  0.78206  0.13153  0.64055  1.0000
  H   H5482     1.0  0.79138  0.15077  0.64479  1.0000
  H   H5483     1.0  0.78840  0.15911  0.62674  1.0000
  H   H5484     1.0  0.77720  0.13227  0.62630  1.0000
  H   H5485     1.0  0.78032  0.12384  0.64435  1.0000
  C   C5534     1.0  0.75313  0.10923  0.70916  1.0000
  C   C5535     1.0  0.75793  0.12481  0.74694  1.0000
  H   H5486     1.0  0.83765  0.27552  0.62933  1.0000
  H   H5487     1.0  0.80861  0.29099  0.62158  1.0000
  C   C5536     1.0  0.77076  0.07278  0.67674  1.0000
  C   C5537     1.0  0.76894  0.06613  0.68676  1.0000
  C   C5538     1.0  0.76130  0.05988  0.68942  1.0000
  C   C5539     1.0  0.84134  0.20522  0.62511  1.0000
  C   C5540     1.0  0.75699  0.06728  0.67228  1.0000
  C   C5541     1.0  0.76462  0.07342  0.66962  1.0000
  H   H5488     1.0  0.77383  0.06537  0.69222  1.0000
  H   H5489     1.0  0.76014  0.05457  0.69701  1.0000
  C   C5542     1.0  0.86427  0.24120  0.62583  1.0000
  H   H5490     1.0  0.76607  0.07836  0.66181  1.0000
  C   C5543     1.0  0.87224  0.13594  0.72883  1.0000
  C   C5544     1.0  0.87518  0.14577  0.72522  1.0000
  C   C5545     1.0  0.88215  0.14836  0.72981  1.0000
  C   C5546     1.0  0.88617  0.14117  0.73816  1.0000
  C   C5547     1.0  0.88297  0.13148  0.74198  1.0000
  C   C5548     1.0  0.87608  0.12884  0.73732  1.0000
  H   H5491     1.0  0.87226  0.15132  0.71865  1.0000
  H   H5492     1.0  0.88448  0.15587  0.72681  1.0000
  H   H5493     1.0  0.88604  0.12586  0.74844  1.0000
  H   H5494     1.0  0.87400  0.12119  0.74010  1.0000
  C   C5549     1.0  0.81807  0.11463  0.71061  1.0000
  C   C5550     1.0  0.80824  0.11494  0.70873  1.0000
  C   C5551     1.0  0.80740  0.10860  0.70239  1.0000
  C   C5552     1.0  0.81642  0.10218  0.69762  1.0000
  C   C5553     1.0  0.82621  0.10159  0.69979  1.0000
  C   C5554     1.0  0.82702  0.10770  0.70639  1.0000
  H   H5495     1.0  0.80129  0.12022  0.71204  1.0000
  H   H5496     1.0  0.79976  0.10881  0.70116  1.0000
  H   H5497     1.0  0.83324  0.09666  0.69613  1.0000
  H   H5498     1.0  0.83464  0.10744  0.70778  1.0000
  C   C5555     1.0  0.84519  0.07261  0.73941  1.0000
  C   C5556     1.0  0.84961  0.06222  0.74373  1.0000
  C   C5557     1.0  0.84335  0.05470  0.74813  1.0000
  C   C5558     1.0  0.83259  0.05733  0.74804  1.0000
  C   C5559     1.0  0.82805  0.06772  0.74361  1.0000
  C   C5560     1.0  0.83435  0.07540  0.73940  1.0000
  H   H5499     1.0  0.85797  0.05996  0.74373  1.0000
  H   H5500     1.0  0.84693  0.04672  0.75152  1.0000
  H   H5501     1.0  0.81973  0.06984  0.74349  1.0000
  H   H5502     1.0  0.83088  0.08338  0.73593  1.0000
  C   C5561     1.0  0.81294  0.12690  0.75696  1.0000
  C   C5562     1.0  0.76515  0.02682  0.74627  1.0000
  C   C5563     1.0  0.83382  0.15440  0.73854  1.0000
  N   N448      1.0  0.92986  0.28586  0.67186  1.0000
  C   C5564     1.0  0.92080  0.28275  0.67781  1.0000
  C   C5565     1.0  0.93930  0.27876  0.67112  1.0000
  C   C5566     1.0  0.92112  0.27237  0.68350  1.0000
  C   C5567     1.0  0.93993  0.26839  0.67688  1.0000
  C   C5568     1.0  0.93077  0.26517  0.68309  1.0000
  C   C5569     1.0  0.92937  0.29683  0.66611  1.0000
  H   H5503     1.0  0.91329  0.28834  0.67834  1.0000
  H   H5504     1.0  0.94651  0.28118  0.66642  1.0000
  H   H5505     1.0  0.91394  0.26996  0.68829  1.0000
  H   H5506     1.0  0.94753  0.26299  0.67668  1.0000
  H   H5507     1.0  0.93116  0.25714  0.68761  1.0000
  H   H5508     1.0  0.92373  0.30231  0.67094  1.0000
  H   H5509     1.0  0.93717  0.29901  0.66438  1.0000
  H   H5510     1.0  0.92691  0.29797  0.65859  1.0000
  C   C5570     1.0  0.87028  0.33254  0.69104  1.0000
  C   C5571     1.0  0.87171  0.34054  0.69498  1.0000
  C   C5572     1.0  0.87520  0.31452  0.68808  1.0000
  H   H5511     1.0  0.86368  0.33408  0.68727  1.0000
  H   H5512     1.0  0.86623  0.34814  0.69435  1.0000
  H   H5513     1.0  0.87880  0.30653  0.69213  1.0000
  S   S1866     1.0  0.74162  0.44182  0.74065  1.0000
  H   H5514     1.0  0.75755  0.15539  0.61996  1.0000
  Fe  Fe930     1.0  0.74595  0.43228  0.75584  1.0000
  N   N449      1.0  0.82838  0.19745  0.62243  1.0000
  C   C5573     1.0  0.75549  0.06027  0.68205  1.0000
  C   C5574     1.0  0.78017  0.43011  0.73100  1.0000
  H   H5515     1.0  0.79910  0.43161  0.66252  1.0000
  N   N450      1.0  0.81983  0.06681  0.71102  1.0000
  C   C5575     1.0  0.82782  0.07205  0.70891  1.0000
  C   C5576     1.0  0.81959  0.05783  0.71874  1.0000
  C   C5577     1.0  0.83600  0.06820  0.71443  1.0000
  C   C5578     1.0  0.82767  0.05372  0.72437  1.0000
  C   C5579     1.0  0.83598  0.05889  0.72209  1.0000
  C   C5580     1.0  0.81138  0.07111  0.70510  1.0000
  H   H5516     1.0  0.82789  0.07926  0.70292  1.0000
  H   H5517     1.0  0.81315  0.05377  0.72059  1.0000
  H   H5518     1.0  0.84226  0.07244  0.71285  1.0000
  H   H5519     1.0  0.82745  0.04665  0.73058  1.0000
  H   H5520     1.0  0.84227  0.05581  0.72643  1.0000
  H   H5521     1.0  0.80629  0.06543  0.70634  1.0000
  H   H5522     1.0  0.80638  0.07845  0.70750  1.0000
  H   H5523     1.0  0.81477  0.07303  0.69651  1.0000
  N   N451      1.0  0.84179  0.14071  0.75139  1.0000
  C   C5581     1.0  0.84269  0.14730  0.74165  1.0000
  C   C5582     1.0  0.74689  0.13714  0.75755  1.0000
  H   H5524     1.0  0.76085  0.45184  0.74652  1.0000
  H   H5525     1.0  0.81012  0.41256  0.64572  1.0000
  N   N452      1.0  0.80305  0.27924  0.59318  1.0000
  C   C5583     1.0  0.85112  0.13295  0.75417  1.0000
  H   H5526     1.0  0.76734  0.09006  0.76777  1.0000
  C   C5584     1.0  0.74897  0.10870  0.70089  1.0000
  C   C5585     1.0  0.79301  0.48137  0.69295  1.0000
  H   H5527     1.0  0.74793  0.14561  0.77292  1.0000
  H   H5528     1.0  0.75108  0.19773  0.59534  1.0000
  H   H5529     1.0  0.85025  0.14684  0.73612  1.0000
  H   H5530     1.0  0.78057  0.99748  0.77060  1.0000
  H   H5531     1.0  0.82010  0.09929  0.76664  1.0000
  S   S1867     1.0  0.84312  0.24861  0.57829  1.0000
  H   H5532     1.0  0.76260  0.04369  0.74420  1.0000
  S   S1868     1.0  0.77088  0.35842  0.77572  1.0000
  H   H5533     1.0  0.76377  0.30019  0.58487  1.0000
  H   H5534     1.0  0.75879  0.11919  0.74216  1.0000
  H   H5535     1.0  0.84917  0.12751  0.76190  1.0000
  H   H5536     1.0  0.77163  0.22123  0.57932  1.0000
  C   C5586     1.0  0.75644  0.26772  0.58372  1.0000
  H   H5537     1.0  0.81700  0.16007  0.74310  1.0000
  H   H5538     1.0  0.78388  0.39990  0.74034  1.0000
  C   C5587     1.0  0.78135  0.08270  0.72200  1.0000
  H   H5539     1.0  0.84201  0.08602  0.75518  1.0000
  S   S1869     1.0  0.75040  0.36961  0.76463  1.0000
  H   H5540     1.0  0.78757  0.07849  0.72655  1.0000
  C   C5588     1.0  0.76075  0.41228  0.72609  1.0000
  N   N453      1.0  0.90585  0.13610  0.71656  1.0000
  C   C5589     1.0  0.89841  0.13260  0.71398  1.0000
  C   C5590     1.0  0.90852  0.14549  0.71110  1.0000
  C   C5591     1.0  0.89321  0.13871  0.70594  1.0000
  C   C5592     1.0  0.90347  0.15181  0.70304  1.0000
  C   C5593     1.0  0.89573  0.14840  0.70049  1.0000
  C   C5594     1.0  0.91133  0.12953  0.72489  1.0000
  H   H5541     1.0  0.89622  0.12520  0.71835  1.0000
  H   H5542     1.0  0.91455  0.14819  0.71300  1.0000
  H   H5543     1.0  0.88703  0.13606  0.70421  1.0000
  H   H5544     1.0  0.90554  0.15932  0.69885  1.0000
  H   H5545     1.0  0.89165  0.15330  0.69435  1.0000
  H   H5546     1.0  0.90593  0.12518  0.73130  1.0000
  H   H5547     1.0  0.91825  0.12385  0.72159  1.0000
  H   H5548     1.0  0.91402  0.13444  0.72867  1.0000
  C   C5595     1.0  0.74645  0.27436  0.58387  1.0000
  C   C5596     1.0  0.76566  0.31089  0.64418  1.0000
  S   S1870     1.0  0.74722  0.99851  0.70113  1.0000
  H   H5549     1.0  0.78005  0.43984  0.66685  1.0000
  C   C5597     1.0  0.75894  0.08025  0.74540  1.0000
  C   C5598     1.0  0.77715  0.02894  0.72023  1.0000
  H   H5550     1.0  0.75134  0.37212  0.71505  1.0000
  N   N454      1.0  0.76720  0.40501  0.74210  1.0000
  N   N455      1.0  0.94237  0.22703  0.73081  1.0000
  H   H5551     1.0  0.80084  0.21261  0.57943  1.0000
  C   C5599     1.0  0.77166  0.98452  0.70545  1.0000
  H   H5552     1.0  0.81610  0.39775  0.72608  1.0000
  H   H5553     1.0  0.95434  0.15005  0.74321  1.0000
  C   C5600     1.0  0.77914  0.99229  0.71544  1.0000
  C   C5601     1.0  0.78728  0.99261  0.71992  1.0000
  N   N456      1.0  0.78652  0.05082  0.66907  1.0000
  C   C5602     1.0  0.79077  0.04955  0.67761  1.0000
  C   C5603     1.0  0.77887  0.04557  0.66977  1.0000
  C   C5604     1.0  0.78749  0.04273  0.68710  1.0000
  C   C5605     1.0  0.77542  0.03869  0.67912  1.0000
  C   C5606     1.0  0.77981  0.03722  0.68782  1.0000
  C   C5607     1.0  0.79017  0.05771  0.65903  1.0000
  H   H5554     1.0  0.79653  0.05402  0.67719  1.0000
  H   H5555     1.0  0.77526  0.04683  0.66312  1.0000
  H   H5556     1.0  0.79073  0.04186  0.69392  1.0000
  H   H5557     1.0  0.76917  0.03477  0.67967  1.0000
  H   H5558     1.0  0.77713  0.03198  0.69517  1.0000
  H   H5559     1.0  0.78338  0.06374  0.65645  1.0000
  H   H5560     1.0  0.79578  0.06212  0.65971  1.0000
  H   H5561     1.0  0.79414  0.05302  0.65290  1.0000
  S   S1871     1.0  0.78421  0.30390  0.58422  1.0000
  S   S1872     1.0  0.75566  0.34375  0.77413  1.0000
  C   C5608     1.0  0.74508  0.10664  0.76792  1.0000
  H   H5562     1.0  0.75762  0.07878  0.75392  1.0000
  H   H5563     1.0  0.76520  0.00259  0.74425  1.0000
  C   C5609     1.0  0.76334  0.45642  0.73867  1.0000
  C   C5610     1.0  0.77528  0.42935  0.66039  1.0000
  C   C5611     1.0  0.98991  0.23899  0.72718  1.0000
  H   H5564     1.0  0.79192  0.40921  0.64990  1.0000
  H   H5565     1.0  0.75018  0.08151  0.77370  1.0000
  N   N457      1.0  0.74715  0.35767  0.71599  1.0000
  H   H5566     1.0  0.80215  0.09625  0.76951  1.0000
  H   H5567     1.0  0.77985  0.45065  0.73859  1.0000
  C   C5612     1.0  0.82650  0.07351  0.76619  1.0000
  S   S1873     1.0  0.75469  0.33662  0.61995  1.0000
  Fe  Fe931     1.0  0.96105  0.25771  0.71248  1.0000
  S   S1874     1.0  0.80086  0.43138  0.72289  1.0000
  H   H5568     1.0  0.91263  0.21863  0.70260  1.0000
  N   N458      1.0  0.91102  0.18359  0.77003  1.0000
  H   H5569     1.0  0.75417  0.41585  0.72217  1.0000
  H   H5570     1.0  0.74114  0.26658  0.61757  1.0000
  C   C5613     1.0  0.75585  0.46295  0.73301  1.0000
  C   C5614     1.0  0.97539  0.16433  0.74383  1.0000
  Fe  Fe932     1.0  0.74535  0.03817  0.69822  1.0000
  C   C5615     1.0  0.74578  0.11312  0.77419  1.0000
  H   H5571     1.0  0.93183  0.19401  0.66579  1.0000
  C   C5616     1.0  0.79114  0.27015  0.63122  1.0000
  C   C5617     1.0  0.83350  0.21094  0.63178  1.0000
  Fe  Fe933     1.0  0.79312  0.18687  0.59697  1.0000
  Fe  Fe934     1.0  0.84236  0.23488  0.61721  1.0000
  C   C5618     1.0  0.80259  0.13291  0.75819  1.0000
  Fe  Fe935     1.0  0.75065  0.38067  0.66597  1.0000
  H   H5572     1.0  0.85719  0.13700  0.75447  1.0000
  S   S1875     1.0  0.77279  0.28476  0.63512  1.0000
  N   N459      1.0  0.75312  0.16964  0.62564  1.0000
  C   C5619     1.0  0.82421  0.40137  0.70579  1.0000
  H   H5573     1.0  0.79032  0.46073  0.71111  1.0000
  H   H5574     1.0  0.77187  0.99822  0.71628  1.0000
  N   N460      1.0  0.80602  0.33479  0.73329  1.0000
  C   C5620     1.0  0.81509  0.32922  0.72810  1.0000
  C   C5621     1.0  0.80648  0.34081  0.73981  1.0000
  C   C5622     1.0  0.82493  0.32928  0.72968  1.0000
  C   C5623     1.0  0.81621  0.34116  0.74146  1.0000
  C   C5624     1.0  0.82549  0.33534  0.73636  1.0000
  C   C5625     1.0  0.79583  0.33473  0.73137  1.0000
  H   H5575     1.0  0.81475  0.32483  0.72257  1.0000
  H   H5576     1.0  0.79931  0.34550  0.74366  1.0000
  H   H5577     1.0  0.83208  0.32481  0.72561  1.0000
  H   H5578     1.0  0.81656  0.34609  0.74649  1.0000
  H   H5579     1.0  0.83313  0.33571  0.73735  1.0000
  H   H5580     1.0  0.78925  0.33664  0.73806  1.0000
  H   H5581     1.0  0.79439  0.34065  0.72412  1.0000
  H   H5582     1.0  0.79572  0.32687  0.73030  1.0000
  H   H5583     1.0  0.81537  0.41068  0.72786  1.0000
  H   H5584     1.0  0.74448  0.34225  0.71818  1.0000
  H   H5585     1.0  0.96095  0.23831  0.72964  1.0000
  H   H5586     1.0  0.93554  0.24397  0.70894  1.0000
  C   C5626     1.0  0.93609  0.24102  0.71714  1.0000
  H   H5587     1.0  0.74092  0.12839  0.74997  1.0000
  Fe  Fe936     1.0  0.74955  0.30578  0.60962  1.0000
  H   H5588     1.0  0.76833  0.34439  0.73267  1.0000
  H   H5589     1.0  0.74150  0.46225  0.76046  1.0000
  H   H5590     1.0  0.74774  0.35315  0.63148  1.0000
  C   C5627     1.0  0.96252  0.15409  0.75287  1.0000
  H   H5591     1.0  0.78119  0.31563  0.65771  1.0000
  C   C5628     1.0  0.75927  0.03716  0.74433  1.0000
  H   H5592     1.0  0.79376  0.27439  0.60827  1.0000
  H   H5593     1.0  0.77258  0.41294  0.71166  1.0000
  H   H5594     1.0  0.74929  0.34860  0.58452  1.0000
  H   H5595     1.0  0.77252  0.47223  0.71066  1.0000
  C   C5629     1.0  0.78268  0.43337  0.66278  1.0000
  H   H5596     1.0  0.92858  0.24853  0.74064  1.0000
  C   C5630     1.0  0.81430  0.40631  0.72244  1.0000
  H   H5597     1.0  0.75760  0.16947  0.63975  1.0000
  N   N461      1.0  0.81433  0.12603  0.67401  1.0000
  C   C5631     1.0  0.82249  0.12397  0.67900  1.0000
  C   C5632     1.0  0.80520  0.13306  0.67687  1.0000
  C   C5633     1.0  0.82176  0.12925  0.68688  1.0000
  C   C5634     1.0  0.80411  0.13829  0.68491  1.0000
  C   C5635     1.0  0.81246  0.13636  0.68993  1.0000
  C   C5636     1.0  0.81514  0.12015  0.66602  1.0000
  H   H5598     1.0  0.82953  0.11805  0.67708  1.0000
  H   H5599     1.0  0.79862  0.13453  0.67308  1.0000
  H   H5600     1.0  0.82818  0.12751  0.69096  1.0000
  H   H5601     1.0  0.79675  0.14364  0.68733  1.0000
  H   H5602     1.0  0.81166  0.14009  0.69639  1.0000
  H   H5603     1.0  0.82333  0.11857  0.66133  1.0000
  H   H5604     1.0  0.81277  0.11251  0.66992  1.0000
  H   H5605     1.0  0.80995  0.12461  0.66040  1.0000
  N   N462      1.0  0.80541  0.36454  0.66586  1.0000
  C   C5637     1.0  0.80597  0.35428  0.67119  1.0000
  C   C5638     1.0  0.80366  0.34698  0.66693  1.0000
  C   C5639     1.0  0.80073  0.35025  0.65718  1.0000
  C   C5640     1.0  0.80761  0.37207  0.67063  1.0000
  H   H5606     1.0  0.80810  0.35172  0.67884  1.0000
  H   H5607     1.0  0.80393  0.33890  0.67129  1.0000
  H   H5608     1.0  0.79863  0.34477  0.65388  1.0000
  H   H5609     1.0  0.80904  0.37941  0.66480  1.0000
  H   H5610     1.0  0.81482  0.36859  0.67393  1.0000
  H   H5611     1.0  0.83453  0.15940  0.73070  1.0000
  H   H5612     1.0  0.95781  0.15050  0.76015  1.0000
  C   C5641     1.0  0.81560  0.21554  0.60306  1.0000
  S   S1876     1.0  0.77338  0.06841  0.76676  1.0000
  C   C5642     1.0  0.94529  0.28615  0.71500  1.0000
  S   S1877     1.0  0.85394  0.22531  0.62760  1.0000
  Fe  Fe937     1.0  0.74349  0.01458  0.70568  1.0000
  C   C5643     1.0  0.76946  0.29690  0.57861  1.0000
  H   H5613     1.0  0.79372  0.28837  0.60440  1.0000
  H   H5614     1.0  0.82173  0.39391  0.70866  1.0000
  C   C5644     1.0  0.93144  0.24749  0.72440  1.0000
  H   H5615     1.0  0.84354  0.07863  0.76819  1.0000
  H   H5616     1.0  0.93693  0.22225  0.64351  1.0000
  S   S1878     1.0  0.95194  0.26050  0.72836  1.0000
  C   C5645     1.0  0.76059  0.16594  0.63267  1.0000
  C   C5646     1.0  0.95632  0.25054  0.73850  1.0000
  C   C5647     1.0  0.75219  0.08452  0.72957  1.0000
  S   S1879     1.0  0.78765  0.01702  0.76298  1.0000
  Fe  Fe938     1.0  0.91313  0.21915  0.76614  1.0000
  H   H5617     1.0  0.79080  0.46796  0.72039  1.0000
  H   H5618     1.0  0.86664  0.31465  0.68949  1.0000
  C   C5648     1.0  0.81644  0.07160  0.76765  1.0000
  H   H5619     1.0  0.81685  0.21461  0.63855  1.0000
  S   S1880     1.0  0.79692  0.04183  0.76688  1.0000
  H   H5620     1.0  0.74251  0.08271  0.74525  1.0000
  H   H5621     1.0  0.83776  0.41522  0.68378  1.0000
  H   H5622     1.0  0.76692  0.43269  0.66263  1.0000
  C   C5649     1.0  0.81915  0.09147  0.76697  1.0000
  C   C5650     1.0  0.80232  0.36788  0.65640  1.0000
  S   S1881     1.0  0.78369  0.14129  0.76980  1.0000
  S   S1882     1.0  0.97020  0.22566  0.76415  1.0000
  H   H5623     1.0  0.83307  0.39766  0.69082  1.0000
  H   H5624     1.0  0.88093  0.34458  0.70355  1.0000
  C   C5651     1.0  0.75747  0.32636  0.65151  1.0000
  H   H5625     1.0  0.81248  0.20244  0.63040  1.0000
  C   C5652     1.0  0.97120  0.16023  0.76319  1.0000
  C   C5653     1.0  0.97359  0.16420  0.73412  1.0000
  C   C5654     1.0  0.76134  0.34121  0.62698  1.0000
  C   C5655     1.0  0.88510  0.32084  0.69714  1.0000
  H   H5626     1.0  0.76980  0.99202  0.69970  1.0000
  C   C5656     1.0  0.80005  0.36076  0.65187  1.0000
  Fe  Fe939     1.0  0.79101  0.45588  0.69084  1.0000
  C   C5657     1.0  0.80784  0.41511  0.65334  1.0000
  Fe  Fe940     1.0  0.78594  0.05592  0.75953  1.0000
  H   H5627     1.0  0.79900  0.13631  0.75141  1.0000
  H   H5628     1.0  0.77930  0.43135  0.72302  1.0000
  C   C5658     1.0  0.78593  0.99702  0.76308  1.0000
  H   H5629     1.0  0.78632  0.99861  0.72429  1.0000
  C   C5659     1.0  0.77864  0.42072  0.65557  1.0000
  C   C5660     1.0  0.80217  0.47685  0.69696  1.0000
  H   H5630     1.0  0.89321  0.32695  0.70521  1.0000
  S   S1883     1.0  0.95520  0.23410  0.69354  1.0000
  H   H5631     1.0  0.95722  0.24597  0.67190  1.0000
  H   H5632     1.0  0.79735  0.36343  0.64450  1.0000
  H   H5633     1.0  0.78332  0.42483  0.75984  1.0000
  H   H5634     1.0  0.76202  0.15722  0.63546  1.0000
  C   C5661     1.0  0.83053  0.40348  0.69570  1.0000
  H   H5635     1.0  0.78626  0.26434  0.63387  1.0000
  H   H5636     1.0  0.83333  0.06712  0.76510  1.0000
  H   H5637     1.0  0.77302  0.02544  0.74775  1.0000
  H   H5638     1.0  0.75806  0.33360  0.72876  1.0000
  H   H5639     1.0  0.74790  0.01369  0.74454  1.0000
  C   C5662     1.0  0.74331  0.47651  0.76361  1.0000
  C   C5663     1.0  0.90447  0.26992  0.77536  1.0000
  H   H5640     1.0  0.96795  0.22454  0.74382  1.0000
  S   S1884     1.0  0.75712  0.02282  0.69864  1.0000
  C   C5664     1.0  0.93220  0.24359  0.73492  1.0000
  H   H5641     1.0  0.77293  0.41725  0.65407  1.0000
  C   C5665     1.0  0.79341  0.42866  0.66033  1.0000
  C   C5666     1.0  0.79679  0.13425  0.76821  1.0000
  C   C5667     1.0  0.82977  0.42082  0.69801  1.0000
  C   C5668     1.0  0.90533  0.23201  0.72231  1.0000
  H   H5642     1.0  0.74317  0.07709  0.69374  1.0000
  C   C5669     1.0  0.82093  0.27432  0.57782  1.0000
  H   H5643     1.0  0.75047  0.32059  0.64208  1.0000
  H   H5644     1.0  0.91112  0.18586  0.75373  1.0000
  H   H5645     1.0  0.91631  0.31304  0.72101  1.0000
  C   C5670     1.0  0.78650  0.28078  0.63120  1.0000
  H   H5646     1.0  0.82120  0.42416  0.71302  1.0000
  H   H5647     1.0  0.76100  0.26756  0.58931  1.0000
  H   H5648     1.0  0.90992  0.30329  0.73916  1.0000
  H   H5649     1.0  0.95188  0.28315  0.71927  1.0000
  N   N463      1.0  0.77727  0.46134  0.72416  1.0000
  H   H5650     1.0  0.92650  0.17431  0.76794  1.0000
  H   H5651     1.0  0.74335  0.27920  0.58972  1.0000
  C   C5671     1.0  0.75668  0.34205  0.72576  1.0000
  C   C5672     1.0  0.77252  0.42748  0.74968  1.0000
  S   S1885     1.0  0.75733  0.38032  0.67964  1.0000
  H   H5652     1.0  0.97077  0.15277  0.76916  1.0000
  C   C5673     1.0  0.82066  0.20301  0.62901  1.0000
  S   S1886     1.0  0.74357  0.01483  0.72224  1.0000
  C   C5674     1.0  0.76245  0.34811  0.72793  1.0000
  C   C5675     1.0  0.83226  0.14124  0.75835  1.0000
  H   H5653     1.0  0.75087  0.41037  0.74154  1.0000
  N   N464      1.0  0.89739  0.22087  0.71267  1.0000
  H   H5654     1.0  0.77421  0.33379  0.66067  1.0000
  Fe  Fe941     1.0  0.76675  0.29739  0.62223  1.0000
  C   C5676     1.0  0.82322  0.14820  0.75548  1.0000
  N   N465      1.0  0.82109  0.40866  0.71197  1.0000
  C   C5677     1.0  0.82376  0.41831  0.70820  1.0000
  C   C5678     1.0  0.76749  0.00781  0.74799  1.0000
  C   C5679     1.0  0.92083  0.30540  0.72415  1.0000
  C   C5680     1.0  0.77998  0.29780  0.57648  1.0000
  S   S1887     1.0  0.97433  0.25602  0.68360  1.0000
  N   N466      1.0  0.76115  0.01856  0.74609  1.0000
  H   H5655     1.0  0.97894  0.16210  0.76254  1.0000
  H   H5656     1.0  0.76707  0.04084  0.71097  1.0000
  C   C5681     1.0  0.89492  0.23076  0.72588  1.0000
  C   C5682     1.0  0.77209  0.08610  0.77356  1.0000
  C   C5683     1.0  0.80743  0.20245  0.60074  1.0000
  C   C5684     1.0  0.91724  0.29992  0.73430  1.0000
  H   H5657     1.0  0.93286  0.30515  0.71005  1.0000
  H   H5658     1.0  0.91981  0.22862  0.71104  1.0000
  C   C5685     1.0  0.90763  0.22200  0.70916  1.0000
  C   C5686     1.0  0.91175  0.22759  0.71391  1.0000
  H   H5659     1.0  0.89611  0.20611  0.71093  1.0000
  H   H5660     1.0  0.88461  0.21656  0.70939  1.0000
  C   C5687     1.0  0.89338  0.21466  0.70780  1.0000
  H   H5661     1.0  0.89609  0.21649  0.69911  1.0000
  N   N467      1.0  0.96990  0.15929  0.75304  1.0000
  C   C5688     1.0  0.76553  0.13402  0.75515  1.0000
  C   C5689     1.0  0.76998  0.46777  0.71855  1.0000
  H   H5662     1.0  0.77121  0.40359  0.75679  1.0000
  H   H5663     1.0  0.75237  0.15485  0.76106  1.0000
  C   C5690     1.0  0.83862  0.19847  0.62046  1.0000
  C   C5691     1.0  0.93018  0.30084  0.71794  1.0000
  C   C5692     1.0  0.89106  0.22510  0.72096  1.0000
  H   H5664     1.0  0.78632  0.28299  0.59876  1.0000
  H   H5665     1.0  0.76655  0.00453  0.75659  1.0000
  H   H5666     1.0  0.83153  0.13604  0.76609  1.0000
  S   S1888     1.0  0.97191  0.24297  0.70821  1.0000
  Fe  Fe942     1.0  0.76004  0.32090  0.61478  1.0000
  H   H5667     1.0  0.88301  0.22403  0.72387  1.0000
  H   H5668     1.0  0.84474  0.19412  0.61520  1.0000
  H   H5669     1.0  0.83516  0.25437  0.63247  1.0000
  S   S1889     1.0  0.74560  0.03985  0.71421  1.0000
  H   H5670     1.0  0.76374  0.08638  0.71508  1.0000
  H   H5671     1.0  0.85722  0.26540  0.64205  1.0000
  H   H5672     1.0  0.85188  0.27406  0.62598  1.0000
  H   H5673     1.0  0.82859  0.18181  0.62182  1.0000
  H   H5674     1.0  0.88988  0.23412  0.73243  1.0000
  Fe  Fe943     1.0  0.97669  0.21030  0.75911  1.0000
  S   S1890     1.0  0.74639  0.05212  0.68448  1.0000
  H   H5675     1.0  0.86060  0.24546  0.61925  1.0000
  S   S1891     1.0  0.83721  0.22863  0.60587  1.0000
  S   S1892     1.0  0.79278  0.17386  0.58963  1.0000
  H   H5676     1.0  0.92724  0.25550  0.72188  1.0000
  C   C5693     1.0  0.93459  0.20131  0.66355  1.0000
  H   H5677     1.0  0.98089  0.16887  0.74393  1.0000
  H   H5678     1.0  0.82959  0.19105  0.60923  1.0000
  C   C5694     1.0  0.85242  0.25970  0.64323  1.0000
  C   C5695     1.0  0.84532  0.26992  0.62761  1.0000
  H   H5679     1.0  0.85883  0.24974  0.65652  1.0000
  C   C5696     1.0  0.76912  0.08018  0.73922  1.0000
  H   H5680     1.0  0.74310  0.34858  0.60352  1.0000
  C   C5697     1.0  0.92296  0.28994  0.73808  1.0000
  H   H5681     1.0  0.75340  0.47368  0.71839  1.0000
  N   N468      1.0  0.84607  0.26079  0.63642  1.0000
  C   C5698     1.0  0.85334  0.25086  0.65150  1.0000
  H   H5682     1.0  0.84572  0.26736  0.62029  1.0000
  H   H5683     1.0  0.81718  0.19140  0.61830  1.0000
  C   C5699     1.0  0.77672  0.07538  0.77431  1.0000
  C   C5700     1.0  0.96461  0.23246  0.74503  1.0000
  C   C5701     1.0  0.80836  0.27458  0.62405  1.0000
  C   C5702     1.0  0.77434  0.30954  0.64854  1.0000
  H   H5684     1.0  0.92006  0.28553  0.74588  1.0000
  C   C5703     1.0  0.75716  0.31935  0.64564  1.0000
  H   H5685     1.0  0.81561  0.14829  0.76091  1.0000
  S   S1893     1.0  0.98665  0.20789  0.74337  1.0000
  Fe  Fe944     1.0  0.82630  0.25544  0.61426  1.0000
  H   H5686     1.0  0.94377  0.27940  0.71280  1.0000
  C   C5704     1.0  0.95562  0.25295  0.74815  1.0000
  H   H5687     1.0  0.98361  0.24269  0.74245  1.0000
  Fe  Fe945     1.0  0.83632  0.24500  0.59573  1.0000
  C   C5705     1.0  0.75114  0.02025  0.74450  1.0000
  C   C5706     1.0  0.81582  0.20767  0.59791  1.0000
  H   H5688     1.0  0.82215  0.21945  0.60089  1.0000
  N   N469      1.0  0.93415  0.20773  0.65384  1.0000
  H   H5689     1.0  0.95217  0.26089  0.74936  1.0000
  C   C5707     1.0  0.95973  0.24520  0.75613  1.0000
  S   S1894     1.0  0.75105  0.30855  0.62478  1.0000
  H   H5690     1.0  0.94533  0.21571  0.67348  1.0000
  S   S1895     1.0  0.89945  0.23199  0.77073  1.0000
  C   C5708     1.0  0.84025  0.25343  0.63783  1.0000
  C   C5709     1.0  0.84769  0.24313  0.65277  1.0000
  H   H5691     1.0  0.80546  0.46851  0.69764  1.0000
  C   C5710     1.0  0.94225  0.21340  0.66796  1.0000
  H   H5692     1.0  0.81341  0.28190  0.60121  1.0000
  H   H5693     1.0  0.94464  0.22715  0.65574  1.0000
  H   H5694     1.0  0.93548  0.20521  0.63857  1.0000
  C   C5711     1.0  0.81270  0.27967  0.59433  1.0000
  C   C5712     1.0  0.90107  0.27880  0.76792  1.0000
  N   N470      1.0  0.77076  0.08223  0.72846  1.0000
  H   H5695     1.0  0.93652  0.27774  0.73456  1.0000
  H   H5696     1.0  0.79353  0.45369  0.72350  1.0000
  C   C5713     1.0  0.79282  0.28828  0.62773  1.0000
  C   C5714     1.0  0.92244  0.18261  0.76818  1.0000
  H   H5697     1.0  0.93870  0.19903  0.67855  1.0000
  C   C5715     1.0  0.93854  0.20408  0.67080  1.0000
  C   C5716     1.0  0.94186  0.21984  0.65800  1.0000
  H   H5698     1.0  0.75249  0.06770  0.66657  1.0000
  C   C5717     1.0  0.76521  0.40177  0.75363  1.0000
  S   S1896     1.0  0.81949  0.25134  0.60278  1.0000
  C   C5718     1.0  0.79665  0.98504  0.71883  1.0000
  C   C5719     1.0  0.93757  0.21698  0.65108  1.0000
  S   S1897     1.0  0.77592  0.30983  0.61316  1.0000
  S   S1898     1.0  0.98822  0.18263  0.75300  1.0000
  S   S1899     1.0  0.78025  0.19834  0.58973  1.0000
  C   C5720     1.0  0.84105  0.24444  0.64595  1.0000
  H   H5699     1.0  0.76554  0.30539  0.63965  1.0000
  H   H5700     1.0  0.76537  0.39318  0.75615  1.0000
  N   N471      1.0  0.75564  0.13900  0.75947  1.0000
  H   H5701     1.0  0.77248  0.13554  0.75663  1.0000
  S   S1900     1.0  0.82194  0.27097  0.61909  1.0000
  S   S1901     1.0  0.84313  0.25056  0.60631  1.0000
  N   N472      1.0  0.93574  0.29105  0.72171  1.0000
  N   N473      1.0  0.79665  0.42027  0.65548  1.0000
  S   S1902     1.0  0.77133  0.01857  0.72087  1.0000
  Fe  Fe946     1.0  0.98212  0.25396  0.69722  1.0000
  C   C5721     1.0  0.77734  0.40333  0.73638  1.0000
  C   C5722     1.0  0.90639  0.18521  0.76170  1.0000
  C   C5723     1.0  0.77107  0.41067  0.72020  1.0000
  C   C5724     1.0  0.80375  0.28516  0.62426  1.0000
  H   H5702     1.0  0.78930  0.29648  0.62780  1.0000
  H   H5703     1.0  0.92224  0.21032  0.64528  1.0000
  H   H5704     1.0  0.83682  0.23838  0.64670  1.0000
  C   C5725     1.0  0.92988  0.20485  0.64632  1.0000
  S   S1903     1.0  0.80837  0.19196  0.59487  1.0000
  H   H5705     1.0  0.92830  0.19675  0.64912  1.0000
  C   C5726     1.0  0.93222  0.28558  0.73163  1.0000
  H   H5706     1.0  0.74559  0.08654  0.72569  1.0000
  C   C5727     1.0  0.77943  0.40607  0.72536  1.0000
  S   S1904     1.0  0.76171  0.42676  0.76018  1.0000
  N   N474      1.0  0.76607  0.32505  0.65568  1.0000
  H   H5707     1.0  0.95327  0.18677  0.77118  1.0000
  C   C5728     1.0  0.77137  0.42929  0.73931  1.0000
  H   H5708     1.0  0.95200  0.21551  0.74058  1.0000
  H   H5709     1.0  0.82260  0.20552  0.59184  1.0000
  C   C5729     1.0  0.75279  0.36367  0.71806  1.0000
  H   H5710     1.0  0.76824  0.16811  0.62839  1.0000
  C   C5730     1.0  0.82401  0.15477  0.74548  1.0000
  H   H5711     1.0  0.78748  0.40461  0.72086  1.0000
  H   H5712     1.0  0.74974  0.11019  0.72545  1.0000
  S   S1905     1.0  0.76436  0.29331  0.60811  1.0000
  H   H5713     1.0  0.76374  0.43003  0.73768  1.0000
  Fe  Fe947     1.0  0.75635  0.02388  0.71502  1.0000
  H   H5714     1.0  0.84871  0.23602  0.65885  1.0000
  C   C5731     1.0  0.81186  0.12396  0.77570  1.0000
  H   H5715     1.0  0.97764  0.16861  0.72689  1.0000
  C   C5732     1.0  0.74719  0.17970  0.62476  1.0000
  H   H5716     1.0  0.95947  0.24716  0.76348  1.0000
  C   C5733     1.0  0.75045  0.08244  0.74053  1.0000
  S   S1906     1.0  0.75730  0.31901  0.59967  1.0000
  H   H5717     1.0  0.77565  0.07854  0.74311  1.0000
  C   C5734     1.0  0.96433  0.23500  0.75451  1.0000
  C   C5735     1.0  0.76047  0.35899  0.72411  1.0000
  Fe  Fe948     1.0  0.77892  0.18501  0.58353  1.0000
  H   H5718     1.0  0.94794  0.29174  0.70762  1.0000
  C   C5736     1.0  0.94155  0.23074  0.72051  1.0000
  S   S1907     1.0  0.97178  0.26845  0.70256  1.0000
  C   C5737     1.0  0.76682  0.12681  0.74889  1.0000
  C   C5738     1.0  0.74528  0.20436  0.59779  1.0000
  C   C5739     1.0  0.93767  0.23325  0.73802  1.0000
  H   H5719     1.0  0.81298  0.42053  0.65286  1.0000
  H   H5720     1.0  0.95396  0.21324  0.72768  1.0000
  C   C5740     1.0  0.78942  0.41621  0.65321  1.0000
  H   H5721     1.0  0.93805  0.23019  0.74625  1.0000
  H   H5722     1.0  0.89182  0.18754  0.75667  1.0000
  H   H5723     1.0  0.94211  0.21089  0.73730  1.0000
  C   C5741     1.0  0.94787  0.21614  0.73426  1.0000
  C   C5742     1.0  0.74899  0.34699  0.71977  1.0000
  H   H5724     1.0  0.74161  0.35634  0.75717  1.0000
  H   H5725     1.0  0.75402  0.10822  0.69326  1.0000
  H   H5726     1.0  0.94518  0.22578  0.71480  1.0000
  H   H5727     1.0  0.75089  0.33300  0.65247  1.0000
  H   H5728     1.0  0.80591  0.40861  0.72176  1.0000
  H   H5729     1.0  0.89914  0.28655  0.76972  1.0000
  C   C5743     1.0  0.76246  0.08443  0.72362  1.0000
  H   H5730     1.0  0.82948  0.27723  0.58780  1.0000
  N   N475      1.0  0.82776  0.08335  0.76585  1.0000
  C   C5744     1.0  0.79502  0.98704  0.74938  1.0000
  H   H5731     1.0  0.75201  0.10118  0.76494  1.0000
  C   C5745     1.0  0.77409  0.45575  0.73412  1.0000
  C   C5746     1.0  0.74654  0.10985  0.71902  1.0000
  H   H5732     1.0  0.80940  0.40810  0.65973  1.0000
  C   C5747     1.0  0.75894  0.40925  0.73708  1.0000
  H   H5733     1.0  0.85451  0.12800  0.74818  1.0000
  C   C5748     1.0  0.77441  0.31672  0.65434  1.0000
  H   H5734     1.0  0.77597  0.00775  0.74447  1.0000
  C   C5749     1.0  0.74619  0.20838  0.60598  1.0000
  H   H5735     1.0  0.77467  0.12280  0.74558  1.0000
  C   C5750     1.0  0.74790  0.13004  0.75126  1.0000
  H   H5736     1.0  0.81551  0.06380  0.76773  1.0000
  C   C5751     1.0  0.74499  0.03047  0.74268  1.0000
  H   H5737     1.0  0.76095  0.34013  0.65990  1.0000
  C   C5752     1.0  0.76616  0.33229  0.66205  1.0000
  S   S1908     1.0  0.92371  0.22146  0.77526  1.0000
  C   C5753     1.0  0.75434  0.14674  0.76580  1.0000
  H   H5738     1.0  0.76449  0.98353  0.71172  1.0000
  C   C5754     1.0  0.89548  0.18618  0.76332  1.0000
  H   H5739     1.0  0.74749  0.46358  0.73645  1.0000
  C   C5755     1.0  0.98970  0.23758  0.73789  1.0000
  C   C5756     1.0  0.78792  0.98788  0.75898  1.0000
  C   C5757     1.0  0.82180  0.27714  0.58673  1.0000
  C   C5758     1.0  0.88934  0.18556  0.77350  1.0000
  H   H5740     1.0  0.96430  0.15911  0.72643  1.0000
  H   H5741     1.0  0.81429  0.47961  0.70301  1.0000
  H   H5742     1.0  0.96489  0.16665  0.76613  1.0000
  C   C5759     1.0  0.96054  0.15377  0.74329  1.0000
  H   H5743     1.0  0.74563  0.16183  0.60741  1.0000
  H   H5744     1.0  0.74889  0.47235  0.76859  1.0000
  H   H5745     1.0  0.92534  0.18778  0.76055  1.0000
  H   H5746     1.0  0.98417  0.24518  0.72348  1.0000
  C   C5760     1.0  0.74357  0.34396  0.58932  1.0000
  H   H5747     1.0  0.74794  0.18495  0.62925  1.0000
  H   H5748     1.0  0.74446  0.04694  0.74102  1.0000
  C   C5761     1.0  0.75493  0.22710  0.58015  1.0000
  H   H5749     1.0  0.79449  0.27598  0.58363  1.0000
  C   C5762     1.0  0.80214  0.27638  0.58452  1.0000
  H   H5750     1.0  0.74072  0.35443  0.73977  1.0000
  H   H5751     1.0  0.74463  0.28425  0.61557  1.0000
  H   H5752     1.0  0.88085  0.18657  0.77481  1.0000
  H   H5753     1.0  0.79982  0.07852  0.76967  1.0000
  H   H5754     1.0  0.83840  0.09257  0.76607  1.0000
  H   H5755     1.0  0.75323  0.11254  0.77607  1.0000
  H   H5756     1.0  0.82129  0.24858  0.57743  1.0000
  N   N476      1.0  0.74079  0.27489  0.57662  1.0000
  H   H5757     1.0  0.74298  0.33730  0.57666  1.0000
  C   C5763     1.0  0.81103  0.27403  0.57664  1.0000
  Fe  Fe949     1.0  0.75289  0.12645  0.79071  1.0000
  S   S1909     1.0  0.75637  0.11625  0.80604  1.0000
  S   S1910     1.0  0.76069  0.19157  0.86952  1.0000
  S   S1911     1.0  0.77953  0.12273  0.79891  1.0000
  Fe  Fe950     1.0  0.77417  0.13267  0.78422  1.0000
  Fe  Fe951     1.0  0.77232  0.11055  0.79628  1.0000
  S   S1912     1.0  0.78015  0.09319  0.79745  1.0000
  Fe  Fe952     1.0  0.76315  0.12947  0.80722  1.0000
  S   S1913     1.0  0.75793  0.13632  0.82206  1.0000
  H   H5758     1.0  0.75279  0.30707  0.89875  1.0000
  C   C5764     1.0  0.75734  0.25140  0.91934  1.0000
  C   C5765     1.0  0.81561  0.23172  0.90642  1.0000
  H   H5759     1.0  0.77396  0.24120  0.84427  1.0000
  H   H5760     1.0  0.76952  0.25745  0.92199  1.0000
  H   H5761     1.0  0.84313  0.22344  0.88281  1.0000
  Fe  Fe953     1.0  0.82634  0.20573  0.85744  1.0000
  S   S1914     1.0  0.81005  0.21452  0.85568  1.0000
  S   S1915     1.0  0.82937  0.19032  0.86893  1.0000
  Fe  Fe954     1.0  0.83691  0.22226  0.84132  1.0000
  S   S1916     1.0  0.82160  0.23270  0.83809  1.0000
  S   S1917     1.0  0.85229  0.22744  0.83396  1.0000
  Fe  Fe955     1.0  0.81564  0.22874  0.85556  1.0000
  S   S1918     1.0  0.80479  0.24009  0.86525  1.0000
  Fe  Fe956     1.0  0.81716  0.21772  0.83840  1.0000
  S   S1919     1.0  0.80877  0.21779  0.82606  1.0000
  S   S1920     1.0  0.83139  0.21969  0.85891  1.0000
  S   S1921     1.0  0.83308  0.20748  0.84008  1.0000
  Fe  Fe957     1.0  0.76440  0.19365  0.85199  1.0000
  S   S1922     1.0  0.78071  0.18380  0.85093  1.0000
  S   S1923     1.0  0.76257  0.20963  0.84137  1.0000
  Fe  Fe958     1.0  0.77675  0.18092  0.86858  1.0000
  S   S1924     1.0  0.78919  0.18350  0.87563  1.0000
  Fe  Fe959     1.0  0.77343  0.17028  0.85213  1.0000
  S   S1925     1.0  0.78181  0.15833  0.84185  1.0000
  C   C5766     1.0  0.77845  0.22891  0.85734  1.0000
  C   C5767     1.0  0.82479  0.22512  0.90210  1.0000
  C   C5768     1.0  0.80421  0.17391  0.83669  1.0000
  C   C5769     1.0  0.76577  0.21866  0.86714  1.0000
  S   S1926     1.0  0.77034  0.27095  0.84112  1.0000
  Fe  Fe960     1.0  0.81137  0.20388  0.92309  1.0000
  S   S1927     1.0  0.80217  0.19234  0.93454  1.0000
  S   S1928     1.0  0.82751  0.19807  0.91370  1.0000
  Fe  Fe961     1.0  0.79360  0.22248  0.92645  1.0000
  S   S1929     1.0  0.78285  0.21240  0.93763  1.0000
  S   S1930     1.0  0.78752  0.23993  0.92262  1.0000
  Fe  Fe962     1.0  0.79697  0.20432  0.94487  1.0000
  S   S1931     1.0  0.79368  0.20096  0.96288  1.0000
  Fe  Fe963     1.0  0.78907  0.20161  0.92620  1.0000
  S   S1932     1.0  0.77857  0.19425  0.92091  1.0000
  S   S1933     1.0  0.80745  0.21502  0.93410  1.0000
  S   S1934     1.0  0.79851  0.21253  0.91442  1.0000
  C   C5770     1.0  0.81265  0.19028  0.83742  1.0000
  C   C5771     1.0  0.78293  0.21447  0.87205  1.0000
  S   S1935     1.0  0.75734  0.18047  0.85164  1.0000
  H   H5762     1.0  0.82252  0.18195  0.85456  1.0000
  C   C5772     1.0  0.76261  0.23369  0.91618  1.0000
  H   H5763     1.0  0.92447  0.21726  0.80991  1.0000
  H   H5764     1.0  0.80191  0.24366  0.90311  1.0000
  H   H5765     1.0  0.75731  0.31493  0.83480  1.0000
  C   C5773     1.0  0.76195  0.32426  0.81941  1.0000
  H   H5766     1.0  0.80672  0.24394  0.88397  1.0000
  C   C5774     1.0  0.82096  0.23193  0.88505  1.0000
  C   C5775     1.0  0.81056  0.21612  0.97294  1.0000
  N   N477      1.0  0.82733  0.22525  0.89153  1.0000
  C   C5776     1.0  0.80552  0.18206  0.82784  1.0000
  N   N478      1.0  0.77289  0.23075  0.95270  1.0000
  S   S1936     1.0  0.77110  0.16624  0.86981  1.0000
  C   C5777     1.0  0.78366  0.23112  0.95279  1.0000
  N   N479      1.0  0.81106  0.18244  0.84616  1.0000
  H   H5767     1.0  0.82982  0.21984  0.90727  1.0000
  H   H5768     1.0  0.77632  0.24822  0.88567  1.0000
  H   H5769     1.0  0.94037  0.18242  0.80973  1.0000
  C   C5778     1.0  0.83715  0.21860  0.88698  1.0000
  C   C5779     1.0  0.75237  0.23016  0.95277  1.0000
  C   C5780     1.0  0.80638  0.21246  0.96638  1.0000
  C   C5781     1.0  0.75391  0.14972  0.86509  1.0000
  H   H5770     1.0  0.77489  0.29344  0.82937  1.0000
  H   H5771     1.0  0.80880  0.21470  0.95791  1.0000
  H   H5772     1.0  0.81614  0.22120  0.96943  1.0000
  C   C5782     1.0  0.77523  0.24151  0.91966  1.0000
  H   H5773     1.0  0.84042  0.21216  0.89313  1.0000
  C   C5783     1.0  0.77275  0.23304  0.91740  1.0000
  N   N480      1.0  0.77546  0.22098  0.86549  1.0000
  H   H5774     1.0  0.77856  0.22585  0.91678  1.0000
  C   C5784     1.0  0.78549  0.18776  0.88768  1.0000
  C   C5785     1.0  0.77614  0.18609  0.89487  1.0000
  C   C5786     1.0  0.77395  0.18849  0.90488  1.0000
  C   C5787     1.0  0.78101  0.19267  0.90777  1.0000
  C   C5788     1.0  0.79016  0.19475  0.90040  1.0000
  C   C5789     1.0  0.79239  0.19228  0.89041  1.0000
  H   H5775     1.0  0.77076  0.18261  0.89287  1.0000
  H   H5776     1.0  0.76686  0.18685  0.91053  1.0000
  H   H5777     1.0  0.79570  0.19791  0.90251  1.0000
  H   H5778     1.0  0.79962  0.19368  0.88488  1.0000
  C   C5790     1.0  0.85942  0.22360  0.82214  1.0000
  C   C5791     1.0  0.86954  0.22565  0.81796  1.0000
  C   C5792     1.0  0.87512  0.22357  0.80810  1.0000
  C   C5793     1.0  0.87069  0.21930  0.80237  1.0000
  C   C5794     1.0  0.86061  0.21707  0.80662  1.0000
  C   C5795     1.0  0.85497  0.21921  0.81651  1.0000
  H   H5779     1.0  0.87298  0.22909  0.82227  1.0000
  H   H5780     1.0  0.88269  0.22559  0.80486  1.0000
  H   H5781     1.0  0.85708  0.21385  0.80220  1.0000
  H   H5782     1.0  0.84711  0.21769  0.81964  1.0000
  C   C5796     1.0  0.79545  0.24892  0.85840  1.0000
  C   C5797     1.0  0.79501  0.24787  0.84850  1.0000
  C   C5798     1.0  0.78740  0.25480  0.84315  1.0000
  C   C5799     1.0  0.78010  0.26272  0.84776  1.0000
  C   C5800     1.0  0.78057  0.26384  0.85763  1.0000
  C   C5801     1.0  0.78826  0.25695  0.86295  1.0000
  H   H5783     1.0  0.80042  0.24165  0.84498  1.0000
  H   H5784     1.0  0.78711  0.25396  0.83548  1.0000
  H   H5785     1.0  0.77515  0.27012  0.86110  1.0000
  H   H5786     1.0  0.78869  0.25792  0.87051  1.0000
  C   C5802     1.0  0.79562  0.21643  0.83078  1.0000
  C   C5803     1.0  0.78858  0.22026  0.82395  1.0000
  C   C5804     1.0  0.77823  0.21862  0.82737  1.0000
  C   C5805     1.0  0.77500  0.21289  0.83753  1.0000
  C   C5806     1.0  0.78196  0.20925  0.84442  1.0000
  C   C5807     1.0  0.79224  0.21105  0.84107  1.0000
  H   H5787     1.0  0.79117  0.22440  0.81598  1.0000
  H   H5788     1.0  0.77288  0.22144  0.82200  1.0000
  H   H5789     1.0  0.77946  0.20495  0.85233  1.0000
  H   H5790     1.0  0.79763  0.20788  0.84633  1.0000
  C   C5808     1.0  0.82895  0.19273  0.88119  1.0000
  C   C5809     1.0  0.83657  0.18677  0.88698  1.0000
  C   C5810     1.0  0.83614  0.18857  0.89689  1.0000
  C   C5811     1.0  0.82791  0.19610  0.90119  1.0000
  C   C5812     1.0  0.82036  0.20212  0.89530  1.0000
  C   C5813     1.0  0.82092  0.20051  0.88529  1.0000
  H   H5791     1.0  0.84287  0.18084  0.88377  1.0000
  H   H5792     1.0  0.84211  0.18400  0.90130  1.0000
  H   H5793     1.0  0.81432  0.20830  0.89821  1.0000
  H   H5794     1.0  0.81509  0.20524  0.88078  1.0000
  C   C5814     1.0  0.77156  0.23495  0.85076  1.0000
  H   H5795     1.0  0.77015  0.32266  0.81988  1.0000
  C   C5815     1.0  0.80906  0.23850  0.89987  1.0000
  C   C5816     1.0  0.76484  0.14406  0.82540  1.0000
  C   C5817     1.0  0.77586  0.14169  0.82373  1.0000
  C   C5818     1.0  0.78100  0.14649  0.82843  1.0000
  C   C5819     1.0  0.77519  0.15375  0.83477  1.0000
  C   C5820     1.0  0.76421  0.15657  0.83592  1.0000
  C   C5821     1.0  0.75908  0.15171  0.83131  1.0000
  H   H5796     1.0  0.78040  0.13576  0.81927  1.0000
  H   H5797     1.0  0.78950  0.14428  0.82743  1.0000
  H   H5798     1.0  0.75964  0.16218  0.84072  1.0000
  S   S1937     1.0  0.90683  0.20637  0.77871  1.0000
  Fe  Fe964     1.0  0.75202  0.29359  0.86812  1.0000
  C   C5822     1.0  0.75865  0.33064  0.81033  1.0000
  S   S1938     1.0  0.75286  0.27661  0.86875  1.0000
  C   C5823     1.0  0.85763  0.24257  0.79260  1.0000
  H   H5799     1.0  0.78750  0.20749  0.86869  1.0000
  H   H5800     1.0  0.77950  0.28482  0.82020  1.0000
  C   C5824     1.0  0.74846  0.29878  0.81855  1.0000
  C   C5825     1.0  0.75470  0.31980  0.82785  1.0000
  H   H5801     1.0  0.78627  0.23049  0.85580  1.0000
  H   H5802     1.0  0.77877  0.21166  0.88025  1.0000
  H   H5803     1.0  0.78855  0.21899  0.87252  1.0000
  S   S1939     1.0  0.75712  0.29847  0.88025  1.0000
  H   H5804     1.0  0.81354  0.23157  0.91480  1.0000
  H   H5805     1.0  0.81128  0.17665  0.86260  1.0000
  H   H5806     1.0  0.80987  0.19056  0.85807  1.0000
  C   C5826     1.0  0.81174  0.23864  0.88912  1.0000
  H   H5807     1.0  0.76710  0.12692  0.84320  1.0000
  C   C5827     1.0  0.75869  0.22452  0.86068  1.0000
  C   C5828     1.0  0.76161  0.23273  0.85246  1.0000
  H   H5808     1.0  0.75107  0.22257  0.86186  1.0000
  H   H5809     1.0  0.88945  0.18325  0.78993  1.0000
  S   S1940     1.0  0.75885  0.29743  0.85080  1.0000
  H   H5810     1.0  0.80076  0.16754  0.83656  1.0000
  H   H5811     1.0  0.76354  0.21215  0.87337  1.0000
  H   H5812     1.0  0.81079  0.19673  0.82138  1.0000
  H   H5813     1.0  0.85388  0.25045  0.81547  1.0000
  H   H5814     1.0  0.74517  0.19015  0.83155  1.0000
  H   H5815     1.0  0.82296  0.23212  0.87666  1.0000
  H   H5816     1.0  0.81595  0.19673  0.83762  1.0000
  C   C5829     1.0  0.80701  0.17424  0.84587  1.0000
  C   C5830     1.0  0.81384  0.18287  0.85581  1.0000
  H   H5817     1.0  0.77431  0.30756  0.80296  1.0000
  C   C5831     1.0  0.74610  0.40564  0.78217  1.0000
  S   S1941     1.0  0.76802  0.33560  0.79968  1.0000
  C   C5832     1.0  0.80981  0.19028  0.82817  1.0000
  H   H5818     1.0  0.80567  0.16804  0.85280  1.0000
  C   C5833     1.0  0.88302  0.25119  0.78805  1.0000
  H   H5819     1.0  0.83571  0.21474  0.88132  1.0000
  H   H5820     1.0  0.76426  0.07552  0.80563  1.0000
  C   C5834     1.0  0.74742  0.29731  0.89187  1.0000
  H   H5821     1.0  0.80312  0.18204  0.82078  1.0000
  C   C5835     1.0  0.94324  0.18349  0.80129  1.0000
  C   C5836     1.0  0.93528  0.23366  0.78817  1.0000
  C   C5837     1.0  0.74412  0.32169  0.82726  1.0000
  C   C5838     1.0  0.74801  0.33286  0.80983  1.0000
  S   S1942     1.0  0.97082  0.17529  0.78130  1.0000
  H   H5822     1.0  0.74541  0.33778  0.80283  1.0000
  C   C5839     1.0  0.85258  0.24478  0.80249  1.0000
  C   C5840     1.0  0.77337  0.09168  0.78038  1.0000
  H   H5823     1.0  0.88422  0.25820  0.79006  1.0000
  C   C5841     1.0  0.95580  0.20884  0.78646  1.0000
  H   H5824     1.0  0.75082  0.20710  0.82729  1.0000
  C   C5842     1.0  0.76763  0.26169  0.89234  1.0000
  C   C5843     1.0  0.94038  0.19123  0.78361  1.0000
  H   H5825     1.0  0.74439  0.22991  0.95267  1.0000
  S   S1943     1.0  0.87722  0.21758  0.78954  1.0000
  C   C5844     1.0  0.74982  0.37352  0.80763  1.0000
  N   N481      1.0  0.80827  0.17092  0.89959  1.0000
  C   C5845     1.0  0.79886  0.16828  0.90504  1.0000
  C   C5846     1.0  0.81400  0.17450  0.90435  1.0000
  C   C5847     1.0  0.79487  0.16942  0.91548  1.0000
  C   C5848     1.0  0.81023  0.17581  0.91473  1.0000
  C   C5849     1.0  0.80057  0.17328  0.92030  1.0000
  C   C5850     1.0  0.81235  0.16998  0.88857  1.0000
  H   H5826     1.0  0.79417  0.16568  0.90122  1.0000
  H   H5827     1.0  0.82146  0.17650  0.90005  1.0000
  H   H5828     1.0  0.78717  0.16782  0.91964  1.0000
  H   H5829     1.0  0.81471  0.17894  0.91834  1.0000
  H   H5830     1.0  0.79734  0.17456  0.92826  1.0000
  H   H5831     1.0  0.81959  0.16365  0.88791  1.0000
  H   H5832     1.0  0.80644  0.16825  0.88526  1.0000
  H   H5833     1.0  0.81434  0.17755  0.88364  1.0000
  C   C5851     1.0  0.76761  0.25083  0.92033  1.0000
  C   C5852     1.0  0.74853  0.30619  0.80907  1.0000
  H   H5834     1.0  0.74124  0.30981  0.80632  1.0000
  H   H5835     1.0  0.77332  0.21587  0.96350  1.0000
  C   C5853     1.0  0.75947  0.24993  0.88805  1.0000
  H   H5836     1.0  0.95873  0.17396  0.80248  1.0000
  H   H5837     1.0  0.93532  0.19613  0.77834  1.0000
  C   C5854     1.0  0.93014  0.22001  0.80297  1.0000
  H   H5838     1.0  0.74114  0.29659  0.82323  1.0000
  H   H5839     1.0  0.76940  0.09980  0.77993  1.0000
  S   S1944     1.0  0.75827  0.14013  0.79256  1.0000
  H   H5840     1.0  0.75777  0.28875  0.82956  1.0000
  H   H5841     1.0  0.81544  0.12058  0.78248  1.0000
  C   C5855     1.0  0.93672  0.18998  0.79450  1.0000
  H   H5842     1.0  0.74540  0.07053  0.78297  1.0000
  C   C5856     1.0  0.76869  0.12848  0.85028  1.0000
  H   H5843     1.0  0.78729  0.23602  0.94534  1.0000
  Fe  Fe965     1.0  0.75794  0.28098  0.85121  1.0000
  S   S1945     1.0  0.92424  0.19683  0.79984  1.0000
  H   H5844     1.0  0.84506  0.24261  0.80645  1.0000
  H   H5845     1.0  0.75139  0.25853  0.92004  1.0000
  H   H5846     1.0  0.88894  0.24421  0.79088  1.0000
  Fe  Fe966     1.0  0.75529  0.17729  0.86919  1.0000
  H   H5847     1.0  0.75626  0.23722  0.84730  1.0000
  N   N482      1.0  0.87235  0.24933  0.79285  1.0000
  C   C5857     1.0  0.74435  0.35500  0.82022  1.0000
  C   C5858     1.0  0.86762  0.24481  0.78791  1.0000
  C   C5859     1.0  0.86751  0.25141  0.80261  1.0000
  Fe  Fe967     1.0  0.74200  0.30167  0.84910  1.0000
  C   C5860     1.0  0.89417  0.18366  0.78198  1.0000
  N   N483      1.0  0.76009  0.13642  0.85473  1.0000
  H   H5848     1.0  0.90882  0.18110  0.78673  1.0000
  N   N484      1.0  0.75740  0.36444  0.80877  1.0000
  C   C5861     1.0  0.75484  0.35533  0.81519  1.0000
  C   C5862     1.0  0.75837  0.22190  0.95887  1.0000
  H   H5849     1.0  0.94085  0.20499  0.80384  1.0000
  C   C5863     1.0  0.76840  0.36449  0.80336  1.0000
  C   C5864     1.0  0.75007  0.13760  0.85341  1.0000
  H   H5850     1.0  0.77623  0.13127  0.84764  1.0000
  H   H5851     1.0  0.75056  0.15362  0.83261  1.0000
  H   H5852     1.0  0.75187  0.38082  0.80277  1.0000
  C   C5865     1.0  0.77935  0.08661  0.78805  1.0000
  H   H5853     1.0  0.77284  0.36548  0.80875  1.0000
  H   H5854     1.0  0.85409  0.23863  0.78883  1.0000
  H   H5855     1.0  0.87170  0.24257  0.78047  1.0000
  C   C5866     1.0  0.95360  0.17866  0.79720  1.0000
  C   C5867     1.0  0.76714  0.30487  0.80729  1.0000
  S   S1946     1.0  0.76837  0.12009  0.78098  1.0000
  H   H5856     1.0  0.76070  0.22699  0.91468  1.0000
  C   C5868     1.0  0.74711  0.30231  0.89984  1.0000
  H   H5857     1.0  0.77004  0.14150  0.86145  1.0000
  N   N485      1.0  0.94639  0.21632  0.79043  1.0000
  C   C5869     1.0  0.79923  0.20578  0.97079  1.0000
  N   N486      1.0  0.74969  0.25567  0.89156  1.0000
  C   C5870     1.0  0.74456  0.07922  0.78119  1.0000
  C   C5871     1.0  0.74587  0.39520  0.78273  1.0000
  H   H5858     1.0  0.87146  0.25454  0.80674  1.0000
  S   S1947     1.0  0.90321  0.22196  0.79493  1.0000
  C   C5872     1.0  0.76208  0.14233  0.86052  1.0000
  Fe  Fe968     1.0  0.91624  0.20972  0.78832  1.0000
  H   H5859     1.0  0.75801  0.31520  0.79610  1.0000
  C   C5873     1.0  0.94441  0.22646  0.78478  1.0000
  H   H5860     1.0  0.78882  0.22311  0.95347  1.0000
  C   C5874     1.0  0.75483  0.07663  0.79451  1.0000
  C   C5875     1.0  0.74174  0.14500  0.85780  1.0000
  C   C5876     1.0  0.95743  0.18022  0.78630  1.0000
  S   S1948     1.0  0.74669  0.36016  0.79037  1.0000
  C   C5877     1.0  0.76865  0.22237  0.95882  1.0000
  H   H5861     1.0  0.93362  0.24166  0.78359  1.0000
  S   S1949     1.0  0.91069  0.24895  0.78297  1.0000
  C   C5878     1.0  0.75784  0.29451  0.82220  1.0000
  C   C5879     1.0  0.74074  0.32841  0.81832  1.0000
  H   H5862     1.0  0.95492  0.20717  0.77915  1.0000
  C   C5880     1.0  0.76701  0.23895  0.94682  1.0000
  C   C5881     1.0  0.74869  0.26427  0.89560  1.0000
  C   C5882     1.0  0.74145  0.09213  0.79213  1.0000
  H   H5863     1.0  0.75512  0.21514  0.96355  1.0000
  C   C5883     1.0  0.75793  0.30920  0.80333  1.0000
  H   H5864     1.0  0.92086  0.23583  0.79988  1.0000
  H   H5865     1.0  0.74233  0.34766  0.82509  1.0000
  C   C5884     1.0  0.76858  0.25282  0.88842  1.0000
  C   C5885     1.0  0.93942  0.21307  0.79944  1.0000
  N   N487      1.0  0.76697  0.29770  0.81668  1.0000
  C   C5886     1.0  0.75247  0.08994  0.80436  1.0000
  H   H5866     1.0  0.95707  0.20121  0.79221  1.0000
  Fe  Fe969     1.0  0.76094  0.34747  0.78686  1.0000
  H   H5867     1.0  0.78360  0.23438  0.95954  1.0000
  H   H5868     1.0  0.74853  0.13303  0.84867  1.0000
  C   C5887     1.0  0.90512  0.18249  0.78011  1.0000
  C   C5888     1.0  0.75668  0.23876  0.94673  1.0000
  H   H5869     1.0  0.76968  0.12100  0.85624  1.0000
  C   C5889     1.0  0.75483  0.24274  0.91744  1.0000
  H   H5870     1.0  0.75933  0.06927  0.79230  1.0000
  H   H5871     1.0  0.90515  0.27084  0.78287  1.0000
  H   H5872     1.0  0.77222  0.35699  0.80063  1.0000
  C   C5890     1.0  0.74370  0.15108  0.86369  1.0000
  C   C5891     1.0  0.85754  0.24921  0.80755  1.0000
  H   H5873     1.0  0.76023  0.24306  0.88497  1.0000
  C   C5892     1.0  0.92810  0.23038  0.79731  1.0000
  C   C5893     1.0  0.78291  0.07028  0.78182  1.0000
  H   H5874     1.0  0.76090  0.34821  0.81630  1.0000
  H   H5875     1.0  0.76895  0.37096  0.79622  1.0000
  C   C5894     1.0  0.75768  0.08013  0.80203  1.0000
  H   H5876     1.0  0.77461  0.26408  0.89263  1.0000
  H   H5877     1.0  0.74730  0.22505  0.82777  1.0000
  C   C5895     1.0  0.77658  0.29321  0.82088  1.0000
  H   H5878     1.0  0.96295  0.21217  0.78466  1.0000
  N   N488      1.0  0.74681  0.08263  0.78966  1.0000
  H   H5879     1.0  0.78879  0.07187  0.79463  1.0000
  H   H5880     1.0  0.79707  0.13097  0.78467  1.0000
  C   C5896     1.0  0.95065  0.18615  0.77954  1.0000
  H   H5881     1.0  0.75497  0.09292  0.80980  1.0000
  C   C5897     1.0  0.75764  0.26746  0.89596  1.0000
  Fe  Fe970     1.0  0.90958  0.23342  0.78079  1.0000
  H   H5882     1.0  0.74095  0.26870  0.89855  1.0000
  Fe  Fe971     1.0  0.89414  0.21945  0.78444  1.0000
  H   H5883     1.0  0.77034  0.24563  0.94202  1.0000
  H   H5884     1.0  0.78292  0.29763  0.81674  1.0000
  C   C5898     1.0  0.78421  0.07590  0.78866  1.0000
  H   H5885     1.0  0.75683  0.27434  0.89908  1.0000
  H   H5886     1.0  0.75547  0.15441  0.86967  1.0000
  H   H5887     1.0  0.78639  0.06195  0.78258  1.0000
  Fe  Fe972     1.0  0.75619  0.37088  0.77822  1.0000
  H   H5888     1.0  0.74209  0.22574  0.84136  1.0000
  H   H5889     1.0  0.75208  0.24520  0.94195  1.0000
  H   H5890     1.0  0.88457  0.25268  0.77931  1.0000
  C   C5899     1.0  0.74426  0.09599  0.79941  1.0000
  H   H5891     1.0  0.75357  0.40793  0.78074  1.0000
  C   C5900     1.0  0.74316  0.20640  0.83235  1.0000
  S   S1950     1.0  0.74155  0.28541  0.84824  1.0000
  S   S1951     1.0  0.75785  0.38607  0.78064  1.0000
  S   S1952     1.0  0.74085  0.17165  0.87918  1.0000
  S   S1953     1.0  0.74202  0.24289  0.91681  1.0000
  H   H5892     1.0  0.94983  0.22899  0.77753  1.0000
  C   C5901     1.0  0.80144  0.12978  0.77695  1.0000
  Fe  Fe973     1.0  0.74228  0.35753  0.77653  1.0000
  Fe  Fe974     1.0  0.81338  0.74685  0.11519  1.0000
  S   S1954     1.0  0.82717  0.75468  0.11054  1.0000
  S   S1955     1.0  0.79825  0.75192  0.12639  1.0000
  Fe  Fe975     1.0  0.82369  0.73129  0.10084  1.0000
  S   S1956     1.0  0.83851  0.73769  0.09522  1.0000
  S   S1957     1.0  0.82147  0.71944  0.09294  1.0000
  Fe  Fe976     1.0  0.83701  0.73820  0.11219  1.0000
  S   S1958     1.0  0.85004  0.73117  0.12164  1.0000
  Fe  Fe977     1.0  0.82734  0.75349  0.09413  1.0000
  S   S1959     1.0  0.82916  0.76701  0.08012  1.0000
  S   S1960     1.0  0.82302  0.73034  0.11784  1.0000
  S   S1961     1.0  0.81271  0.74710  0.09871  1.0000
  Fe  Fe978     1.0  0.77380  0.80763  0.11999  1.0000
  S   S1962     1.0  0.77130  0.82391  0.10995  1.0000
  S   S1963     1.0  0.78880  0.80052  0.12579  1.0000
  Fe  Fe979     1.0  0.75244  0.80425  0.11990  1.0000
  C   C5902     1.0  0.76820  0.68432  0.13860  1.0000
  S   S1964     1.0  0.79072  0.60110  0.17588  1.0000
  Fe  Fe980     1.0  0.76450  0.81680  0.10058  1.0000
  S   S1965     1.0  0.77017  0.81879  0.08294  1.0000
  Fe  Fe981     1.0  0.75509  0.82606  0.12032  1.0000
  H   H5893     1.0  0.75590  0.76835  0.99782  1.0000
  S   S1966     1.0  0.76851  0.80033  0.10978  1.0000
  S   S1967     1.0  0.75815  0.81011  0.13101  1.0000
  Fe  Fe982     1.0  0.77914  0.68617  0.10661  1.0000
  S   S1968     1.0  0.76718  0.67678  0.11665  1.0000
  S   S1969     1.0  0.78689  0.69209  0.11614  1.0000
  Fe  Fe983     1.0  0.77409  0.68497  0.08642  1.0000
  S   S1970     1.0  0.76172  0.67557  0.09484  1.0000
  S   S1971     1.0  0.77814  0.69060  0.06878  1.0000
  Fe  Fe984     1.0  0.75673  0.68669  0.10580  1.0000
  H   H5894     1.0  0.75393  0.70363  0.11534  1.0000
  Fe  Fe985     1.0  0.77324  0.66638  0.10506  1.0000
  S   S1972     1.0  0.77393  0.64889  0.11057  1.0000
  S   S1973     1.0  0.76810  0.69700  0.09656  1.0000
  S   S1974     1.0  0.78625  0.67483  0.09575  1.0000
  Fe  Fe986     1.0  0.78040  0.75797  0.04341  1.0000
  S   S1975     1.0  0.79207  0.76378  0.02912  1.0000
  S   S1976     1.0  0.77800  0.74144  0.04785  1.0000
  Fe  Fe987     1.0  0.77213  0.77925  0.04953  1.0000
  S   S1977     1.0  0.78279  0.78704  0.03540  1.0000
  S   S1978     1.0  0.76020  0.78599  0.06274  1.0000
  Fe  Fe988     1.0  0.77874  0.77754  0.02604  1.0000
  Fe  Fe989     1.0  0.79507  0.77250  0.03971  1.0000
  S   S1979     1.0  0.81165  0.77350  0.03900  1.0000
  S   S1980     1.0  0.76686  0.77116  0.03988  1.0000
  S   S1981     1.0  0.78469  0.76530  0.05429  1.0000
  H   H5895     1.0  0.75354  0.75415  0.04282  1.0000
  C   C5903     1.0  0.75992  0.77347  0.11284  1.0000
  S   S1982     1.0  0.77001  0.73011  0.00866  1.0000
  H   H5896     1.0  0.78375  0.65482  0.08837  1.0000
  C   C5904     1.0  0.78380  0.76869  0.99879  1.0000
  H   H5897     1.0  0.78751  0.76454  0.00538  1.0000
  C   C5905     1.0  0.90304  0.77775  0.14687  1.0000
  H   H5898     1.0  0.78729  0.61248  0.12827  1.0000
  Fe  Fe990     1.0  0.88607  0.74279  0.15307  1.0000
  N   N489      1.0  0.74787  0.74655  0.98057  1.0000
  S   S1983     1.0  0.87478  0.75218  0.14217  1.0000
  Fe  Fe991     1.0  0.90715  0.74348  0.15818  1.0000
  H   H5899     1.0  0.83823  0.74682  0.15934  1.0000
  S   S1984     1.0  0.92009  0.75280  0.15348  1.0000
  H   H5900     1.0  0.74560  0.75492  0.11845  1.0000
  N   N490      1.0  0.75049  0.75601  0.02762  1.0000
  C   C5906     1.0  0.78155  0.58111  0.15083  1.0000
  H   H5901     1.0  0.82076  0.73408  0.05207  1.0000
  S   S1985     1.0  0.90302  0.73450  0.14844  1.0000
  S   S1986     1.0  0.89060  0.75273  0.16138  1.0000
  H   H5902     1.0  0.75022  0.89045  0.12978  1.0000
  C   C5907     1.0  0.79704  0.60684  0.13978  1.0000
  H   H5903     1.0  0.78523  0.72738  0.08638  1.0000
  C   C5908     1.0  0.79494  0.80313  0.09126  1.0000
  H   H5904     1.0  0.80787  0.77917  0.10265  1.0000
  H   H5905     1.0  0.75980  0.83702  0.15780  1.0000
  H   H5906     1.0  0.82161  0.74362  0.05875  1.0000
  C   C5909     1.0  0.78654  0.76462  0.98957  1.0000
  C   C5910     1.0  0.77768  0.66397  0.06053  1.0000
  Fe  Fe992     1.0  0.76527  0.89442  0.16476  1.0000
  S   S1987     1.0  0.77390  0.78450  0.01013  1.0000
  S   S1988     1.0  0.77424  0.90677  0.16426  1.0000
  H   H5907     1.0  0.92207  0.71691  0.14786  1.0000
  H   H5908     1.0  0.78647  0.57392  0.15488  1.0000
  S   S1989     1.0  0.77429  0.87830  0.16229  1.0000
  H   H5909     1.0  0.76183  0.75681  0.13134  1.0000
  N   N491      1.0  0.80747  0.73750  0.06422  1.0000
  H   H5910     1.0  0.76752  0.85111  0.15816  1.0000
  C   C5911     1.0  0.89737  0.78079  0.15625  1.0000
  H   H5911     1.0  0.77838  0.59736  0.13480  1.0000
  H   H5912     1.0  0.79628  0.58449  0.15873  1.0000
  C   C5912     1.0  0.75619  0.66914  0.14368  1.0000
  H   H5913     1.0  0.76620  0.79091  0.99094  1.0000
  H   H5914     1.0  0.79991  0.73211  0.09080  1.0000
  C   C5913     1.0  0.78446  0.59765  0.13854  1.0000
  N   N492      1.0  0.83282  0.74295  0.14773  1.0000
  C   C5914     1.0  0.79466  0.80063  0.08195  1.0000
  S   S1990     1.0  0.78895  0.62603  0.15327  1.0000
  H   H5915     1.0  0.81088  0.95322  0.17122  1.0000
  N   N493      1.0  0.80016  0.78632  0.99621  1.0000
  C   C5915     1.0  0.94664  0.73554  0.14703  1.0000
  C   C5916     1.0  0.76674  0.83449  0.15202  1.0000
  C   C5917     1.0  0.79137  0.73038  0.08014  1.0000
  C   C5918     1.0  0.76714  0.66628  0.14280  1.0000
  H   H5916     1.0  0.91145  0.77751  0.14442  1.0000
  H   H5917     1.0  0.76167  0.58122  0.17397  1.0000
  C   C5919     1.0  0.79879  0.78815  0.07032  1.0000
  H   H5918     1.0  0.79111  0.82556  0.13114  1.0000
  H   H5919     1.0  0.88245  0.78242  0.16716  1.0000
  H   H5920     1.0  0.76449  0.78314  0.09748  1.0000
  H   H5921     1.0  0.76228  0.64491  0.08418  1.0000
  C   C5920     1.0  0.74980  0.87805  0.11749  1.0000
  S   S1991     1.0  0.90496  0.73140  0.17316  1.0000
  H   H5922     1.0  0.75782  0.87872  0.11765  1.0000
  H   H5923     1.0  0.75040  0.72017  0.12167  1.0000
  H   H5924     1.0  0.75062  0.77106  0.02984  1.0000
  H   H5925     1.0  0.78483  0.72941  0.06754  1.0000
  H   H5926     1.0  0.77581  0.85823  0.12285  1.0000
  H   H5927     1.0  0.77530  0.81803  0.13486  1.0000
  H   H5928     1.0  0.79107  0.83894  0.14075  1.0000
  H   H5929     1.0  0.81427  0.73813  0.07662  1.0000
  C   C5921     1.0  0.78946  0.60621  0.13480  1.0000
  H   H5930     1.0  0.90129  0.78314  0.16105  1.0000
  C   C5922     1.0  0.79950  0.59899  0.14843  1.0000
  C   C5923     1.0  0.79960  0.73304  0.08263  1.0000
  H   H5931     1.0  0.86870  0.77078  0.15415  1.0000
  H   H5932     1.0  0.74963  0.86415  0.14848  1.0000
  C   C5924     1.0  0.79952  0.79020  0.00481  1.0000
  C   C5925     1.0  0.76045  0.77684  0.10199  1.0000
  H   H5933     1.0  0.94953  0.73765  0.15303  1.0000
  C   C5926     1.0  0.74392  0.71666  0.12203  1.0000
  C   C5927     1.0  0.92882  0.75101  0.16191  1.0000
  H   H5934     1.0  0.80691  0.77357  0.98825  1.0000
  H   H5935     1.0  0.84850  0.74016  0.15028  1.0000
  H   H5936     1.0  0.76166  0.65384  0.09232  1.0000
  H   H5937     1.0  0.78803  0.67684  0.13955  1.0000
  C   C5928     1.0  0.93519  0.75835  0.15996  1.0000
  H   H5938     1.0  0.82188  0.75755  0.14893  1.0000
  H   H5939     1.0  0.79106  0.80676  0.07612  1.0000
  Fe  Fe993     1.0  0.74436  0.88863  0.16737  1.0000
  H   H5940     1.0  0.93415  0.76539  0.15383  1.0000
  H   H5941     1.0  0.75830  0.70725  0.07439  1.0000
  H   H5942     1.0  0.75949  0.82390  0.14812  1.0000
  C   C5929     1.0  0.79119  0.73144  0.06960  1.0000
  C   C5930     1.0  0.75126  0.67981  0.14189  1.0000
  Fe  Fe994     1.0  0.88819  0.74019  0.17584  1.0000
  C   C5931     1.0  0.80771  0.73648  0.07454  1.0000
  N   N494      1.0  0.78711  0.58984  0.14686  1.0000
  H   H5943     1.0  0.84255  0.75366  0.14592  1.0000
  C   C5932     1.0  0.75487  0.68474  0.05849  1.0000
  C   C5933     1.0  0.78196  0.76995  0.98082  1.0000
  C   C5934     1.0  0.74352  0.88664  0.13259  1.0000
  N   N495      1.0  0.88175  0.77722  0.15375  1.0000
  H   H5944     1.0  0.78257  0.92406  0.16475  1.0000
  H   H5945     1.0  0.81298  0.74743  0.04968  1.0000
  C   C5935     1.0  0.76465  0.73724  0.98474  1.0000
  C   C5936     1.0  0.79934  0.73507  0.06169  1.0000
  C   C5937     1.0  0.76653  0.82701  0.14664  1.0000
  C   C5938     1.0  0.77646  0.73795  0.03681  1.0000
  C   C5939     1.0  0.77737  0.74500  0.02703  1.0000
  C   C5940     1.0  0.77605  0.74226  0.01823  1.0000
  C   C5941     1.0  0.77335  0.73265  0.01929  1.0000
  C   C5942     1.0  0.77241  0.72560  0.02906  1.0000
  C   C5943     1.0  0.77406  0.72820  0.03781  1.0000
  H   H5946     1.0  0.77893  0.75263  0.02622  1.0000
  H   H5947     1.0  0.77669  0.74777  0.01070  1.0000
  H   H5948     1.0  0.77057  0.71806  0.02986  1.0000
  H   H5949     1.0  0.77337  0.72271  0.04535  1.0000
  C   C5944     1.0  0.77720  0.64331  0.12300  1.0000
  C   C5945     1.0  0.77281  0.63489  0.12968  1.0000
  C   C5946     1.0  0.77589  0.62989  0.13932  1.0000
  C   C5947     1.0  0.78369  0.63303  0.14210  1.0000
  C   C5948     1.0  0.78798  0.64152  0.13547  1.0000
  C   C5949     1.0  0.78462  0.64677  0.12605  1.0000
  H   H5950     1.0  0.76702  0.63222  0.12738  1.0000
  H   H5951     1.0  0.77249  0.62340  0.14442  1.0000
  H   H5952     1.0  0.79408  0.64392  0.13755  1.0000
  H   H5953     1.0  0.78811  0.65319  0.12090  1.0000
  C   C5950     1.0  0.76963  0.69036  0.06095  1.0000
  C   C5951     1.0  0.77143  0.69541  0.05029  1.0000
  C   C5952     1.0  0.76488  0.69528  0.04379  1.0000
  S   S1992     1.0  0.75134  0.87189  0.16587  1.0000
  H   H5954     1.0  0.75597  0.77465  0.08865  1.0000
  C   C5953     1.0  0.76127  0.68508  0.06506  1.0000
  H   H5955     1.0  0.77787  0.69951  0.04704  1.0000
  H   H5956     1.0  0.76636  0.69920  0.03557  1.0000
  C   C5954     1.0  0.75082  0.75025  0.02056  1.0000
  H   H5957     1.0  0.75979  0.68117  0.07325  1.0000
  C   C5955     1.0  0.75130  0.76635  0.02424  1.0000
  C   C5956     1.0  0.77657  0.77827  0.99931  1.0000
  N   N496      1.0  0.77300  0.67384  0.14027  1.0000
  C   C5957     1.0  0.82332  0.74981  0.14721  1.0000
  H   H5958     1.0  0.79234  0.75733  0.98918  1.0000
  C   C5958     1.0  0.75385  0.84769  0.13172  1.0000
  C   C5959     1.0  0.76369  0.84943  0.12570  1.0000
  C   C5960     1.0  0.76835  0.85667  0.12776  1.0000
  C   C5961     1.0  0.76330  0.86207  0.13595  1.0000
  C   C5962     1.0  0.75367  0.86000  0.14222  1.0000
  H   H5959     1.0  0.78658  0.79699  0.99147  1.0000
  H   H5960     1.0  0.76755  0.84547  0.11924  1.0000
  H   H5961     1.0  0.74282  0.68216  0.14219  1.0000
  S   S1993     1.0  0.75545  0.89564  0.15315  1.0000
  C   C5963     1.0  0.76730  0.80974  0.07733  1.0000
  C   C5964     1.0  0.75934  0.80419  0.08267  1.0000
  C   C5965     1.0  0.75709  0.79710  0.07801  1.0000
  C   C5966     1.0  0.76311  0.79514  0.06821  1.0000
  C   C5967     1.0  0.77115  0.80061  0.06291  1.0000
  C   C5968     1.0  0.77308  0.80805  0.06736  1.0000
  H   H5962     1.0  0.75472  0.80557  0.09027  1.0000
  H   H5963     1.0  0.75063  0.79319  0.08204  1.0000
  H   H5964     1.0  0.77570  0.79930  0.05526  1.0000
  H   H5965     1.0  0.77909  0.81250  0.06308  1.0000
  C   C5969     1.0  0.85714  0.73731  0.12680  1.0000
  C   C5970     1.0  0.86422  0.73088  0.13312  1.0000
  C   C5971     1.0  0.86974  0.73531  0.13778  1.0000
  C   C5972     1.0  0.86829  0.74626  0.13612  1.0000
  C   C5973     1.0  0.86127  0.75271  0.12972  1.0000
  C   C5974     1.0  0.85568  0.74827  0.12513  1.0000
  H   H5966     1.0  0.86545  0.72239  0.13444  1.0000
  H   H5967     1.0  0.87512  0.73023  0.14265  1.0000
  H   H5968     1.0  0.86012  0.76119  0.12833  1.0000
  H   H5969     1.0  0.85029  0.75332  0.12026  1.0000
  C   C5975     1.0  0.81169  0.71205  0.09942  1.0000
  C   C5976     1.0  0.80690  0.71177  0.11004  1.0000
  C   C5977     1.0  0.79926  0.70565  0.11507  1.0000
  C   C5978     1.0  0.79619  0.69999  0.10946  1.0000
  C   C5979     1.0  0.80075  0.70052  0.09876  1.0000
  C   C5980     1.0  0.80856  0.70646  0.09379  1.0000
  H   H5970     1.0  0.80924  0.71608  0.11442  1.0000
  H   H5971     1.0  0.79575  0.70528  0.12334  1.0000
  H   H5972     1.0  0.79845  0.69616  0.09439  1.0000
  H   H5973     1.0  0.81222  0.70668  0.08557  1.0000
  C   C5981     1.0  0.82432  0.76793  0.06889  1.0000
  C   C5982     1.0  0.81578  0.76356  0.06938  1.0000
  C   C5983     1.0  0.81159  0.76538  0.06033  1.0000
  C   C5984     1.0  0.81620  0.77125  0.05071  1.0000
  C   C5985     1.0  0.82484  0.77537  0.05025  1.0000
  C   C5986     1.0  0.82874  0.77388  0.05930  1.0000
  H   H5974     1.0  0.81223  0.75903  0.07676  1.0000
  H   H5975     1.0  0.80490  0.76219  0.06080  1.0000
  H   H5976     1.0  0.82847  0.77989  0.04288  1.0000
  H   H5977     1.0  0.83530  0.77733  0.05886  1.0000
  C   C5987     1.0  0.79567  0.76531  0.12671  1.0000
  C   C5988     1.0  0.80391  0.77028  0.12564  1.0000
  C   C5989     1.0  0.80174  0.78103  0.12579  1.0000
  C   C5990     1.0  0.79135  0.78686  0.12681  1.0000
  C   C5991     1.0  0.78309  0.78186  0.12807  1.0000
  C   C5992     1.0  0.78525  0.77106  0.12814  1.0000
  H   H5978     1.0  0.81194  0.76584  0.12482  1.0000
  H   H5979     1.0  0.80814  0.78487  0.12486  1.0000
  H   H5980     1.0  0.77503  0.78628  0.12908  1.0000
  H   H5981     1.0  0.77885  0.76721  0.12913  1.0000
  C   C5993     1.0  0.81614  0.74081  0.05577  1.0000
  H   H5982     1.0  0.82858  0.72263  0.14031  1.0000
  C   C5994     1.0  0.74577  0.70858  0.06665  1.0000
  Fe  Fe995     1.0  0.74588  0.70471  0.02742  1.0000
  H   H5983     1.0  0.74795  0.76972  0.07098  1.0000
  H   H5984     1.0  0.79914  0.73582  0.05352  1.0000
  H   H5985     1.0  0.75162  0.66312  0.14546  1.0000
  C   C5995     1.0  0.94505  0.74709  0.17308  1.0000
  N   N497      1.0  0.79885  0.79064  0.08023  1.0000
  C   C5996     1.0  0.93311  0.72622  0.14745  1.0000
  S   S1994     1.0  0.74709  0.83959  0.12882  1.0000
  H   H5986     1.0  0.94145  0.70463  0.17084  1.0000
  H   H5987     1.0  0.74844  0.68062  0.06168  1.0000
  C   C5997     1.0  0.76145  0.75604  0.97808  1.0000
  H   H5988     1.0  0.86545  0.78431  0.15573  1.0000
  H   H5989     1.0  0.80687  0.78731  0.06530  1.0000
  C   C5998     1.0  0.78454  0.67070  0.13846  1.0000
  H   H5990     1.0  0.75060  0.86995  0.11638  1.0000
  C   C5999     1.0  0.78617  0.66668  0.06250  1.0000
  H   H5991     1.0  0.81720  0.76300  0.00170  1.0000
  C   C6000     1.0  0.77439  0.77931  0.98151  1.0000
  C   C6001     1.0  0.75728  0.68745  0.13940  1.0000
  C   C6002     1.0  0.78415  0.83560  0.14247  1.0000
  S   S1995     1.0  0.88220  0.73089  0.16805  1.0000
  C   C6003     1.0  0.74314  0.70448  0.98092  1.0000
  C   C6004     1.0  0.80406  0.78525  0.09691  1.0000
  N   N498      1.0  0.77543  0.83878  0.14980  1.0000
  H   H5992     1.0  0.80784  0.75244  0.14388  1.0000
  Fe  Fe996     1.0  0.76309  0.87874  0.15239  1.0000
  C   C6005     1.0  0.77178  0.78347  0.99067  1.0000
  C   C6006     1.0  0.80536  0.78446  0.01245  1.0000
  C   C6007     1.0  0.75441  0.73732  0.98415  1.0000
  H   H5993     1.0  0.75169  0.72997  0.98660  1.0000
  S   S1996     1.0  0.76891  0.87181  0.13769  1.0000
  H   H5994     1.0  0.90227  0.77223  0.13355  1.0000
  S   S1997     1.0  0.75466  0.70811  0.01046  1.0000
  C   C6008     1.0  0.82692  0.73019  0.14249  1.0000
  H   H5995     1.0  0.84229  0.72786  0.14555  1.0000
  C   C6009     1.0  0.79978  0.79540  0.09873  1.0000
  H   H5996     1.0  0.78776  0.66963  0.13022  1.0000
  H   H5997     1.0  0.81111  0.73490  0.13964  1.0000
  Fe  Fe997     1.0  0.75590  0.72273  0.01453  1.0000
  C   C6010     1.0  0.83468  0.73323  0.14543  1.0000
  C   C6011     1.0  0.77559  0.84649  0.15563  1.0000
  C   C6012     1.0  0.81718  0.73710  0.14202  1.0000
  C   C6013     1.0  0.81535  0.74698  0.14439  1.0000
  C   C6014     1.0  0.84090  0.74604  0.15100  1.0000
  H   H5998     1.0  0.78710  0.66322  0.14398  1.0000
  C   C6015     1.0  0.93036  0.74188  0.16977  1.0000
  H   H5999     1.0  0.80510  0.59966  0.15258  1.0000
  H   H6000     1.0  0.75307  0.76919  0.13355  1.0000
  H   H6001     1.0  0.94826  0.76202  0.16376  1.0000
  C   C6016     1.0  0.79443  0.59049  0.15190  1.0000
  C   C6017     1.0  0.77146  0.65799  0.06872  1.0000
  H   H6002     1.0  0.76464  0.65627  0.06721  1.0000
  H   H6003     1.0  0.95004  0.71998  0.16361  1.0000
  S   S1998     1.0  0.90416  0.70556  0.16591  1.0000
  H   H6004     1.0  0.75355  0.69577  0.13779  1.0000
  H   H6005     1.0  0.79072  0.67178  0.05637  1.0000
  H   H6006     1.0  0.74763  0.75828  0.13414  1.0000
  C   C6018     1.0  0.88667  0.78042  0.15964  1.0000
  Fe  Fe998     1.0  0.89940  0.72316  0.16398  1.0000
  C   C6019     1.0  0.75660  0.68993  0.04786  1.0000
  H   H6007     1.0  0.79143  0.81102  0.09266  1.0000
  H   H6008     1.0  0.92765  0.70294  0.16263  1.0000
  Fe  Fe999     1.0  0.76199  0.87245  0.17581  1.0000
  H   H6009     1.0  0.77607  0.74673  0.98226  1.0000
  S   S1999     1.0  0.74787  0.82041  0.11002  1.0000
  C   C6020     1.0  0.74985  0.76105  0.11387  1.0000
  H   H6010     1.0  0.74606  0.71014  0.09127  1.0000
  H   H6011     1.0  0.77096  0.65798  0.14388  1.0000
  H   H6012     1.0  0.74131  0.85160  0.14474  1.0000
  H   H6013     1.0  0.80026  0.79731  0.10587  1.0000
  H   H6014     1.0  0.74711  0.88389  0.11067  1.0000
  C   C6021     1.0  0.78424  0.82807  0.13701  1.0000
  H   H6015     1.0  0.79607  0.78068  0.07187  1.0000
  H   H6016     1.0  0.80484  0.78752  0.01929  1.0000
  C   C6022     1.0  0.78208  0.65726  0.08052  1.0000
  N   N499      1.0  0.77379  0.65460  0.07853  1.0000
  H   H6017     1.0  0.75407  0.77908  0.01085  1.0000
  C   C6023     1.0  0.77535  0.82380  0.13911  1.0000
  C   C6024     1.0  0.74984  0.70854  0.07516  1.0000
  H   H6018     1.0  0.80329  0.90798  0.16735  1.0000
  H   H6019     1.0  0.80692  0.77510  0.08620  1.0000
  H   H6020     1.0  0.74998  0.74211  0.02325  1.0000
  S   S2000     1.0  0.74856  0.71860  0.03162  1.0000
  C   C6025     1.0  0.81218  0.95979  0.17358  1.0000
  N   N500      1.0  0.75458  0.76576  0.11865  1.0000
  C   C6026     1.0  0.81182  0.77465  0.01130  1.0000
  H   H6021     1.0  0.79341  0.79438  0.06582  1.0000
  H   H6022     1.0  0.80075  0.61361  0.13718  1.0000
  H   H6023     1.0  0.79957  0.97118  0.16717  1.0000
  C   C6027     1.0  0.80350  0.78299  0.08757  1.0000
  H   H6024     1.0  0.79472  0.66576  0.07422  1.0000
  C   C6028     1.0  0.92824  0.71757  0.15130  1.0000
  C   C6029     1.0  0.76706  0.64858  0.08714  1.0000
  C   C6030     1.0  0.75428  0.76229  0.12998  1.0000
  C   C6031     1.0  0.74893  0.85293  0.14004  1.0000
  C   C6032     1.0  0.94318  0.75647  0.16560  1.0000
  S   S2001     1.0  0.76957  0.60501  0.16614  1.0000
  C   C6033     1.0  0.74591  0.70736  0.11835  1.0000
  C   C6034     1.0  0.89789  0.77476  0.14078  1.0000
  H   H6025     1.0  0.76358  0.77726  0.11667  1.0000
  H   H6026     1.0  0.77952  0.57894  0.14434  1.0000
  Fe  Fe1000    1.0  0.78075  0.61468  0.16650  1.0000
  H   H6027     1.0  0.92561  0.73610  0.17130  1.0000
  H   H6028     1.0  0.77563  0.66693  0.05285  1.0000
  C   C6035     1.0  0.76816  0.74668  0.98175  1.0000
  H   H6029     1.0  0.88325  0.77205  0.13965  1.0000
  C   C6036     1.0  0.81232  0.77069  0.00258  1.0000
  C   C6037     1.0  0.93914  0.71064  0.16420  1.0000
  S   S2002     1.0  0.74322  0.79137  0.12676  1.0000
  H   H6030     1.0  0.79440  0.79775  0.00583  1.0000
  H   H6031     1.0  0.77896  0.84241  0.16270  1.0000
  C   C6038     1.0  0.87065  0.77645  0.15766  1.0000
  H   H6032     1.0  0.77419  0.58340  0.15660  1.0000
  C   C6039     1.0  0.75025  0.76422  0.10303  1.0000
  C   C6040     1.0  0.88713  0.77469  0.14428  1.0000
  C   C6041     1.0  0.94393  0.71934  0.16010  1.0000
  H   H6033     1.0  0.77286  0.69033  0.13629  1.0000
  H   H6034     1.0  0.76980  0.72992  0.98767  1.0000
  C   C6042     1.0  0.78838  0.66334  0.07255  1.0000
  C   C6043     1.0  0.80758  0.97815  0.17457  1.0000
  H   H6035     1.0  0.79329  0.78791  0.98311  1.0000
  C   C6044     1.0  0.93855  0.73985  0.17518  1.0000
  H   H6036     1.0  0.80261  0.86467  0.17357  1.0000
  H   H6037     1.0  0.75188  0.74252  0.04024  1.0000
  N   N501      1.0  0.94093  0.72696  0.15179  1.0000
  C   C6045     1.0  0.75560  0.77214  0.09706  1.0000
  C   C6046     1.0  0.75278  0.75458  0.00974  1.0000
  H   H6038     1.0  0.74610  0.70021  0.98794  1.0000
  H   H6039     1.0  0.94141  0.74281  0.14352  1.0000
  H   H6040     1.0  0.93060  0.73234  0.14097  1.0000
  H   H6041     1.0  0.95348  0.73314  0.14079  1.0000
  H   H6042     1.0  0.77194  0.64214  0.09204  1.0000
  C   C6047     1.0  0.93136  0.70970  0.15965  1.0000
  H   H6043     1.0  0.79910  0.79869  0.98270  1.0000
  C   C6048     1.0  0.74895  0.75122  0.03890  1.0000
  H   H6044     1.0  0.78033  0.85233  0.15059  1.0000
  C   C6049     1.0  0.75410  0.76496  0.00619  1.0000
  H   H6045     1.0  0.78607  0.86040  0.17281  1.0000
  H   H6046     1.0  0.74832  0.57086  0.17576  1.0000
  H   H6047     1.0  0.86900  0.77339  0.16634  1.0000
  C   C6050     1.0  0.75316  0.77096  0.01349  1.0000
  H   H6048     1.0  0.81629  0.77010  0.01726  1.0000
  H   H6049     1.0  0.75101  0.70757  0.05916  1.0000
  H   H6050     1.0  0.79723  0.89474  0.16275  1.0000
  C   C6051     1.0  0.75127  0.75584  0.97753  1.0000
  S   S2003     1.0  0.74835  0.68970  0.03978  1.0000
  N   N502      1.0  0.74230  0.87983  0.12730  1.0000
  C   C6052     1.0  0.74289  0.71021  0.08464  1.0000
  H   H6051     1.0  0.74636  0.76060  0.09930  1.0000
  H   H6052     1.0  0.90762  0.76721  0.17465  1.0000
  C   C6053     1.0  0.79692  0.88999  0.17092  1.0000
  C   C6054     1.0  0.80647  0.77670  0.99502  1.0000
  H   H6053     1.0  0.79034  0.88584  0.17266  1.0000
  C   C6055     1.0  0.79454  0.79281  0.98794  1.0000
  H   H6054     1.0  0.75356  0.74978  0.00416  1.0000
  C   C6056     1.0  0.77667  0.92273  0.17193  1.0000
  C   C6057     1.0  0.77108  0.91476  0.17371  1.0000
  H   H6055     1.0  0.74105  0.73166  0.06441  1.0000
  C   C6058     1.0  0.80589  0.96984  0.17128  1.0000
  H   H6056     1.0  0.92334  0.78720  0.17528  1.0000
  H   H6057     1.0  0.80442  0.88406  0.17135  1.0000
  S   S2004     1.0  0.74082  0.73243  0.01011  1.0000
  C   C6059     1.0  0.79904  0.90569  0.17536  1.0000
  S   S2005     1.0  0.78279  0.78101  0.32651  1.0000
  S   S2006     1.0  0.78183  0.51426  0.26672  1.0000
  S   S2007     1.0  0.78357  0.68914  0.33635  1.0000
  S   S2008     1.0  0.89745  0.80979  0.19553  1.0000
  C   C6060     1.0  0.81040  0.91548  0.21610  1.0000
  Fe  Fe1001    1.0  0.82388  0.70586  0.35122  1.0000
  S   S2009     1.0  0.83442  0.71051  0.35871  1.0000
  S   S2010     1.0  0.82034  0.68973  0.35665  1.0000
  Fe  Fe1002    1.0  0.81930  0.72736  0.33702  1.0000
  S   S2011     1.0  0.82913  0.73407  0.34347  1.0000
  S   S2012     1.0  0.81241  0.73652  0.32302  1.0000
  Fe  Fe1003    1.0  0.84073  0.71879  0.34231  1.0000
  S   S2013     1.0  0.85792  0.71845  0.33530  1.0000
  Fe  Fe1004    1.0  0.82181  0.72525  0.35923  1.0000
  S   S2014     1.0  0.83141  0.71262  0.33475  1.0000
  S   S2015     1.0  0.81074  0.72001  0.35283  1.0000
  Fe  Fe1005    1.0  0.89898  0.80207  0.21217  1.0000
  S   S2016     1.0  0.89565  0.78685  0.21172  1.0000
  S   S2017     1.0  0.91282  0.80011  0.21931  1.0000
  Fe  Fe1006    1.0  0.88032  0.81516  0.20273  1.0000
  S   S2018     1.0  0.87547  0.80102  0.20125  1.0000
  S   S2019     1.0  0.87045  0.83104  0.19700  1.0000
  Fe  Fe1007    1.0  0.87876  0.79413  0.21740  1.0000
  S   S2020     1.0  0.86800  0.78556  0.23060  1.0000
  Fe  Fe1008    1.0  0.89275  0.79501  0.19566  1.0000
  S   S2021     1.0  0.88228  0.80867  0.21943  1.0000
  Fe  Fe1009    1.0  0.91040  0.66883  0.21874  1.0000
  S   S2022     1.0  0.91562  0.65128  0.22352  1.0000
  S   S2023     1.0  0.92020  0.67980  0.20730  1.0000
  Fe  Fe1010    1.0  0.89105  0.66951  0.23635  1.0000
  S   S2024     1.0  0.89469  0.65214  0.24301  1.0000
  S   S2025     1.0  0.87721  0.68115  0.24270  1.0000
  Fe  Fe1011    1.0  0.91144  0.65424  0.23990  1.0000
  S   S2026     1.0  0.92221  0.64680  0.25140  1.0000
  Fe  Fe1012    1.0  0.89840  0.65086  0.22607  1.0000
  S   S2027     1.0  0.89270  0.63976  0.21977  1.0000
  S   S2028     1.0  0.90725  0.67172  0.23497  1.0000
  S   S2029     1.0  0.89372  0.66831  0.21960  1.0000
  Fe  Fe1013    1.0  0.89208  0.73222  0.25444  1.0000
  S   S2030     1.0  0.89190  0.74241  0.26520  1.0000
  S   S2031     1.0  0.89230  0.73816  0.23722  1.0000
  Fe  Fe1014    1.0  0.89297  0.71241  0.27140  1.0000
  S   S2032     1.0  0.89327  0.72058  0.28372  1.0000
  S   S2033     1.0  0.89349  0.69500  0.27555  1.0000
  Fe  Fe1015    1.0  0.88068  0.73317  0.27704  1.0000
  S   S2034     1.0  0.86523  0.73973  0.28693  1.0000
  Fe  Fe1016    1.0  0.90449  0.72905  0.27092  1.0000
  S   S2035     1.0  0.91832  0.73318  0.27389  1.0000
  S   S2036     1.0  0.87952  0.72440  0.26563  1.0000
  S   S2037     1.0  0.90558  0.71953  0.25925  1.0000
  Fe  Fe1017    1.0  0.95977  0.75795  0.20713  1.0000
  S   S2038     1.0  0.95243  0.75206  0.22405  1.0000
  S   S2039     1.0  0.96936  0.77043  0.20158  1.0000
  Fe  Fe1018    1.0  0.96696  0.69468  0.23803  1.0000
  H   H6058     1.0  0.76689  0.60125  0.22558  1.0000
  Fe  Fe1019    1.0  0.96527  0.69041  0.26126  1.0000
  S   S2040     1.0  0.97741  0.67532  0.26140  1.0000
  S   S2041     1.0  0.95856  0.69619  0.27624  1.0000
  S   S2042     1.0  0.77083  0.62094  0.18068  1.0000
  Fe  Fe1020    1.0  0.96910  0.67245  0.25034  1.0000
  S   S2043     1.0  0.96575  0.65663  0.25154  1.0000
  S   S2044     1.0  0.97490  0.69999  0.24778  1.0000
  S   S2045     1.0  0.95611  0.68667  0.25157  1.0000
  Fe  Fe1021    1.0  0.81934  0.85828  0.22597  1.0000
  S   S2046     1.0  0.80873  0.85271  0.21941  1.0000
  S   S2047     1.0  0.83319  0.84764  0.23233  1.0000
  Fe  Fe1022    1.0  0.80678  0.88062  0.22332  1.0000
  S   S2048     1.0  0.79480  0.87735  0.21657  1.0000
  S   S2049     1.0  0.80599  0.89633  0.22648  1.0000
  Fe  Fe1023    1.0  0.79558  0.86254  0.22905  1.0000
  S   S2050     1.0  0.78117  0.85601  0.23714  1.0000
  S   S2051     1.0  0.80617  0.86671  0.23687  1.0000
  N   N503      1.0  0.74282  0.81584  0.31141  1.0000
  S   S2052     1.0  0.79151  0.94515  0.22926  1.0000
  Fe  Fe1024    1.0  0.84302  0.59016  0.23309  1.0000
  S   S2053     1.0  0.82698  0.59559  0.22960  1.0000
  S   S2054     1.0  0.85024  0.57279  0.23455  1.0000
  Fe  Fe1025    1.0  0.84374  0.61213  0.23534  1.0000
  S   S2055     1.0  0.82740  0.61916  0.23210  1.0000
  S   S2056     1.0  0.85084  0.62217  0.24161  1.0000
  Fe  Fe1026    1.0  0.82327  0.60422  0.24255  1.0000
  S   S2057     1.0  0.80947  0.60086  0.25535  1.0000
  Fe  Fe1027    1.0  0.83266  0.60987  0.21937  1.0000
  S   S2058     1.0  0.82847  0.61550  0.20341  1.0000
  S   S2059     1.0  0.83898  0.59780  0.24689  1.0000
  S   S2060     1.0  0.84938  0.60383  0.22171  1.0000
  Fe  Fe1028    1.0  0.76765  0.62860  0.28992  1.0000
  S   S2061     1.0  0.77484  0.61684  0.30258  1.0000
  S   S2062     1.0  0.77849  0.63694  0.27651  1.0000
  C   C6061     1.0  0.75172  0.82638  0.33094  1.0000
  C   C6062     1.0  0.76800  0.92959  0.25552  1.0000
  Fe  Fe1029    1.0  0.79964  0.94287  0.19233  1.0000
  Fe  Fe1030    1.0  0.76083  0.62403  0.31381  1.0000
  S   S2063     1.0  0.76653  0.62785  0.32661  1.0000
  Fe  Fe1031    1.0  0.76492  0.60644  0.30132  1.0000
  S   S2064     1.0  0.77194  0.58913  0.30105  1.0000
  C   C6063     1.0  0.78728  0.86089  0.18024  1.0000
  S   S2065     1.0  0.75870  0.61778  0.28780  1.0000
  N   N504      1.0  0.78045  0.48656  0.21341  1.0000
  H   H6059     1.0  0.74231  0.96736  0.23768  1.0000
  S   S2066     1.0  0.76858  0.59658  0.19171  1.0000
  H   H6060     1.0  0.76786  0.48687  0.19468  1.0000
  H   H6061     1.0  0.74456  0.88516  0.31795  1.0000
  C   C6064     1.0  0.79747  0.91215  0.18246  1.0000
  Fe  Fe1032    1.0  0.77993  0.60671  0.18999  1.0000
  S   S2067     1.0  0.78434  0.60615  0.20514  1.0000
  H   H6062     1.0  0.78698  0.88648  0.19104  1.0000
  C   C6065     1.0  0.83460  0.88738  0.21947  1.0000
  Fe  Fe1033    1.0  0.80569  0.54110  0.25488  1.0000
  S   S2068     1.0  0.79198  0.53917  0.26860  1.0000
  S   S2069     1.0  0.82214  0.53862  0.25741  1.0000
  Fe  Fe1034    1.0  0.79237  0.54507  0.23889  1.0000
  S   S2070     1.0  0.77754  0.54385  0.25114  1.0000
  S   S2071     1.0  0.79132  0.54852  0.22198  1.0000
  Fe  Fe1035    1.0  0.78315  0.55354  0.25898  1.0000
  S   S2072     1.0  0.77304  0.56901  0.26302  1.0000
  Fe  Fe1036    1.0  0.78769  0.52960  0.25945  1.0000
  S   S2073     1.0  0.79718  0.55590  0.24583  1.0000
  S   S2074     1.0  0.80223  0.53035  0.24670  1.0000
  N   N505      1.0  0.76873  0.72321  0.34053  1.0000
  S   S2075     1.0  0.95325  0.79315  0.18343  1.0000
  S   S2076     1.0  0.77268  0.51153  0.21933  1.0000
  C   C6066     1.0  0.81021  0.90548  0.21512  1.0000
  H   H6063     1.0  0.77700  0.58753  0.21170  1.0000
  C   C6067     1.0  0.75830  0.82325  0.30474  1.0000
  C   C6068     1.0  0.79549  0.49391  0.24676  1.0000
  H   H6064     1.0  0.74945  0.58522  0.28706  1.0000
  C   C6069     1.0  0.78737  0.53801  0.21987  1.0000
  C   C6070     1.0  0.78052  0.53989  0.21306  1.0000
  C   C6071     1.0  0.77632  0.53165  0.21245  1.0000
  C   C6072     1.0  0.77904  0.52155  0.21857  1.0000
  C   C6073     1.0  0.78644  0.51954  0.22479  1.0000
  C   C6074     1.0  0.79048  0.52779  0.22555  1.0000
  H   H6065     1.0  0.77825  0.54775  0.20848  1.0000
  H   H6066     1.0  0.83028  0.86765  0.23999  1.0000
  H   H6067     1.0  0.78872  0.51169  0.22936  1.0000
  H   H6068     1.0  0.79601  0.52621  0.23053  1.0000
  C   C6075     1.0  0.76141  0.86768  0.22210  1.0000
  Fe  Fe1037    1.0  0.77598  0.94475  0.19816  1.0000
  C   C6076     1.0  0.77462  0.63851  0.37265  1.0000
  C   C6077     1.0  0.76135  0.91959  0.19037  1.0000
  N   N506      1.0  0.80893  0.50544  0.27042  1.0000
  C   C6078     1.0  0.77334  0.48863  0.19824  1.0000
  H   H6069     1.0  0.75902  0.90713  0.18446  1.0000
  C   C6079     1.0  0.92170  0.77536  0.20071  1.0000
  H   H6070     1.0  0.77514  0.48833  0.22923  1.0000
  Fe  Fe1038    1.0  0.74453  0.51040  0.20230  1.0000
  H   H6071     1.0  0.79471  0.56238  0.26895  1.0000
  C   C6080     1.0  0.92465  0.80560  0.19946  1.0000
  C   C6081     1.0  0.93375  0.80413  0.19149  1.0000
  C   C6082     1.0  0.74613  0.58571  0.28018  1.0000
  C   C6083     1.0  0.75579  0.56691  0.17798  1.0000
  H   H6072     1.0  0.74894  0.88376  0.23946  1.0000
  H   H6073     1.0  0.91779  0.81156  0.19774  1.0000
  H   H6074     1.0  0.85103  0.88197  0.19666  1.0000
  S   S2077     1.0  0.76749  0.76397  0.35152  1.0000
  C   C6084     1.0  0.81491  0.92107  0.19706  1.0000
  C   C6085     1.0  0.80251  0.56339  0.26865  1.0000
  H   H6075     1.0  0.78896  0.77885  0.37494  1.0000
  H   H6076     1.0  0.79532  0.50180  0.28207  1.0000
  C   C6086     1.0  0.77300  0.58370  0.29012  1.0000
  C   C6087     1.0  0.77546  0.57268  0.29127  1.0000
  C   C6088     1.0  0.77587  0.56806  0.28292  1.0000
  C   C6089     1.0  0.77387  0.57443  0.27330  1.0000
  C   C6090     1.0  0.77174  0.58545  0.27203  1.0000
  C   C6091     1.0  0.77133  0.59006  0.28038  1.0000
  H   H6077     1.0  0.77678  0.56770  0.29877  1.0000
  H   H6078     1.0  0.77737  0.55957  0.28406  1.0000
  H   H6079     1.0  0.77028  0.59045  0.26459  1.0000
  H   H6080     1.0  0.76968  0.59855  0.27930  1.0000
  C   C6092     1.0  0.81574  0.61404  0.20377  1.0000
  C   C6093     1.0  0.81271  0.61474  0.19438  1.0000
  C   C6094     1.0  0.80298  0.61253  0.19466  1.0000
  C   C6095     1.0  0.79625  0.60966  0.20435  1.0000
  C   C6096     1.0  0.79918  0.60921  0.21370  1.0000
  C   C6097     1.0  0.80887  0.61144  0.21341  1.0000
  H   H6081     1.0  0.81797  0.61682  0.18689  1.0000
  H   H6082     1.0  0.80072  0.61299  0.18740  1.0000
  H   H6083     1.0  0.79396  0.60711  0.22121  1.0000
  H   H6084     1.0  0.81096  0.61120  0.22067  1.0000
  C   C6098     1.0  0.84207  0.56360  0.24088  1.0000
  C   C6099     1.0  0.84660  0.55349  0.24583  1.0000
  C   C6100     1.0  0.84042  0.54592  0.25081  1.0000
  C   C6101     1.0  0.82968  0.54826  0.25061  1.0000
  C   C6102     1.0  0.82516  0.55828  0.24541  1.0000
  C   C6103     1.0  0.83129  0.56600  0.24074  1.0000
  H   H6085     1.0  0.85493  0.55152  0.24592  1.0000
  H   H6086     1.0  0.84401  0.53820  0.25478  1.0000
  H   H6087     1.0  0.81690  0.56021  0.24524  1.0000
  H   H6088     1.0  0.82768  0.57374  0.23694  1.0000
  C   C6104     1.0  0.80034  0.61134  0.26005  1.0000
  C   C6105     1.0  0.80118  0.62184  0.25579  1.0000
  C   C6106     1.0  0.79422  0.62988  0.26060  1.0000
  C   C6107     1.0  0.78652  0.62733  0.26963  1.0000
  C   C6108     1.0  0.78564  0.61684  0.27364  1.0000
  C   C6109     1.0  0.79245  0.60888  0.26882  1.0000
  H   H6089     1.0  0.80720  0.62376  0.24889  1.0000
  H   H6090     1.0  0.79489  0.63801  0.25745  1.0000
  H   H6091     1.0  0.78001  0.61470  0.28072  1.0000
  H   H6092     1.0  0.79182  0.60076  0.27218  1.0000
  Fe  Fe1039    1.0  0.80879  0.86784  0.20742  1.0000
  H   H6093     1.0  0.86838  0.82806  0.21950  1.0000
  C   C6110     1.0  0.88580  0.77343  0.19342  1.0000
  C   C6111     1.0  0.77261  0.86311  0.24631  1.0000
  C   C6112     1.0  0.76404  0.85907  0.25301  1.0000
  C   C6113     1.0  0.75727  0.86447  0.26062  1.0000
  C   C6114     1.0  0.75901  0.87391  0.26150  1.0000
  C   C6115     1.0  0.76732  0.87821  0.25452  1.0000
  C   C6116     1.0  0.77417  0.87277  0.24693  1.0000
  H   H6094     1.0  0.76281  0.85162  0.25253  1.0000
  H   H6095     1.0  0.75075  0.86128  0.26587  1.0000
  H   H6096     1.0  0.76865  0.88553  0.25522  1.0000
  H   H6097     1.0  0.78075  0.87594  0.24170  1.0000
  C   C6117     1.0  0.81313  0.90302  0.20514  1.0000
  C   C6118     1.0  0.78801  0.90010  0.19583  1.0000
  H   H6098     1.0  0.81303  0.89528  0.20432  1.0000
  H   H6099     1.0  0.81733  0.90905  0.18837  1.0000
  C   C6119     1.0  0.95227  0.73894  0.22482  1.0000
  C   C6120     1.0  0.95310  0.73141  0.23417  1.0000
  C   C6121     1.0  0.95500  0.72065  0.23412  1.0000
  C   C6122     1.0  0.95619  0.71751  0.22469  1.0000
  H   H6100     1.0  0.95279  0.73383  0.24130  1.0000
  H   H6101     1.0  0.95596  0.71481  0.24126  1.0000
  C   C6123     1.0  0.92935  0.72276  0.27444  1.0000
  C   C6124     1.0  0.93492  0.72089  0.28239  1.0000
  C   C6125     1.0  0.94382  0.71265  0.28294  1.0000
  C   C6126     1.0  0.94741  0.70649  0.27533  1.0000
  C   C6127     1.0  0.94200  0.70851  0.26721  1.0000
  C   C6128     1.0  0.93285  0.71652  0.26687  1.0000
  H   H6102     1.0  0.93225  0.72574  0.28821  1.0000
  H   H6103     1.0  0.94797  0.71113  0.28923  1.0000
  H   H6104     1.0  0.94479  0.70390  0.26122  1.0000
  H   H6105     1.0  0.92869  0.71806  0.26061  1.0000
  C   C6129     1.0  0.88176  0.63387  0.22654  1.0000
  C   C6130     1.0  0.87843  0.62776  0.22158  1.0000
  C   C6131     1.0  0.86914  0.62386  0.22621  1.0000
  C   C6132     1.0  0.86315  0.62591  0.23594  1.0000
  C   C6133     1.0  0.86669  0.63168  0.24108  1.0000
  C   C6134     1.0  0.87591  0.63570  0.23639  1.0000
  H   H6106     1.0  0.88296  0.62623  0.21400  1.0000
  H   H6107     1.0  0.86654  0.61938  0.22219  1.0000
  H   H6108     1.0  0.86216  0.63326  0.24864  1.0000
  H   H6109     1.0  0.87840  0.64033  0.24033  1.0000
  C   C6135     1.0  0.88080  0.68468  0.25261  1.0000
  C   C6136     1.0  0.88765  0.67737  0.25861  1.0000
  C   C6137     1.0  0.89110  0.68046  0.26604  1.0000
  C   C6138     1.0  0.88811  0.69096  0.26711  1.0000
  C   C6139     1.0  0.88113  0.69818  0.26120  1.0000
  C   C6140     1.0  0.87736  0.69502  0.25407  1.0000
  H   H6110     1.0  0.89025  0.66932  0.25757  1.0000
  H   H6111     1.0  0.89626  0.67475  0.27077  1.0000
  H   H6112     1.0  0.87854  0.70619  0.26212  1.0000
  H   H6113     1.0  0.87203  0.70067  0.24946  1.0000
  C   C6141     1.0  0.95342  0.65465  0.25115  1.0000
  C   C6142     1.0  0.95178  0.64435  0.25449  1.0000
  C   C6143     1.0  0.94226  0.64214  0.25429  1.0000
  C   C6144     1.0  0.93435  0.65011  0.25036  1.0000
  C   C6145     1.0  0.93600  0.66047  0.24672  1.0000
  C   C6146     1.0  0.94544  0.66279  0.24735  1.0000
  H   H6114     1.0  0.95786  0.63801  0.25742  1.0000
  H   H6115     1.0  0.94104  0.63415  0.25721  1.0000
  H   H6116     1.0  0.92986  0.66673  0.24381  1.0000
  H   H6117     1.0  0.94663  0.67079  0.24475  1.0000
  C   C6147     1.0  0.91501  0.68714  0.19627  1.0000
  C   C6148     1.0  0.91732  0.69708  0.19149  1.0000
  H   H6118     1.0  0.92203  0.70023  0.19476  1.0000
  C   C6149     1.0  0.86051  0.83633  0.20676  1.0000
  C   C6150     1.0  0.86132  0.83325  0.21733  1.0000
  C   C6151     1.0  0.85300  0.83698  0.22512  1.0000
  C   C6152     1.0  0.84381  0.84375  0.22238  1.0000
  C   C6153     1.0  0.84310  0.84712  0.21179  1.0000
  C   C6154     1.0  0.85149  0.84346  0.20398  1.0000
  H   H6119     1.0  0.83601  0.85232  0.20961  1.0000
  H   H6120     1.0  0.85086  0.84590  0.19580  1.0000
  C   C6155     1.0  0.87367  0.77205  0.23222  1.0000
  C   C6156     1.0  0.87206  0.76541  0.24220  1.0000
  C   C6157     1.0  0.87754  0.75486  0.24369  1.0000
  C   C6158     1.0  0.88455  0.75094  0.23520  1.0000
  C   C6159     1.0  0.88582  0.75746  0.22515  1.0000
  C   C6160     1.0  0.88039  0.76801  0.22369  1.0000
  H   H6121     1.0  0.86682  0.76849  0.24882  1.0000
  H   H6122     1.0  0.87637  0.74979  0.25144  1.0000
  H   H6123     1.0  0.89117  0.75446  0.21853  1.0000
  H   H6124     1.0  0.88143  0.77303  0.21594  1.0000
  C   C6161     1.0  0.92448  0.79938  0.20963  1.0000
  C   C6162     1.0  0.93347  0.79188  0.21187  1.0000
  C   C6163     1.0  0.94239  0.79016  0.20384  1.0000
  H   H6125     1.0  0.93347  0.78713  0.21972  1.0000
  H   H6126     1.0  0.94913  0.78407  0.20559  1.0000
  C   C6164     1.0  0.86001  0.72401  0.32178  1.0000
  C   C6165     1.0  0.85152  0.72782  0.31670  1.0000
  C   C6166     1.0  0.85325  0.73226  0.30588  1.0000
  C   C6167     1.0  0.86344  0.73305  0.30015  1.0000
  C   C6168     1.0  0.87196  0.72912  0.30519  1.0000
  C   C6169     1.0  0.87025  0.72458  0.31600  1.0000
  H   H6127     1.0  0.84359  0.72749  0.32109  1.0000
  H   H6128     1.0  0.84664  0.73526  0.30201  1.0000
  H   H6129     1.0  0.87982  0.72993  0.30088  1.0000
  H   H6130     1.0  0.87683  0.72166  0.31993  1.0000
  N   N507      1.0  0.76251  0.58825  0.22311  1.0000
  C   C6170     1.0  0.76246  0.64876  0.34491  1.0000
  C   C6171     1.0  0.76688  0.64117  0.33864  1.0000
  C   C6172     1.0  0.76049  0.63752  0.33429  1.0000
  C   C6173     1.0  0.77129  0.58319  0.21710  1.0000
  H   H6131     1.0  0.85549  0.86467  0.20884  1.0000
  H   H6132     1.0  0.76748  0.65154  0.34814  1.0000
  H   H6133     1.0  0.77532  0.63813  0.33710  1.0000
  C   C6174     1.0  0.82328  0.50349  0.25153  1.0000
  Fe  Fe1040    1.0  0.74694  0.79054  0.34837  1.0000
  C   C6175     1.0  0.79458  0.68861  0.34118  1.0000
  C   C6176     1.0  0.80086  0.69609  0.33648  1.0000
  C   C6177     1.0  0.80883  0.69644  0.34121  1.0000
  C   C6178     1.0  0.81084  0.68900  0.35033  1.0000
  C   C6179     1.0  0.80492  0.68118  0.35467  1.0000
  C   C6180     1.0  0.79664  0.68115  0.35025  1.0000
  H   H6134     1.0  0.79935  0.70182  0.32941  1.0000
  H   H6135     1.0  0.81342  0.70246  0.33777  1.0000
  H   H6136     1.0  0.78213  0.66139  0.31797  1.0000
  H   H6137     1.0  0.79187  0.67530  0.35386  1.0000
  C   C6181     1.0  0.79132  0.76874  0.32576  1.0000
  C   C6182     1.0  0.79391  0.76159  0.33486  1.0000
  C   C6183     1.0  0.80064  0.75171  0.33409  1.0000
  C   C6184     1.0  0.80450  0.74893  0.32426  1.0000
  C   C6185     1.0  0.80182  0.75605  0.31523  1.0000
  C   C6186     1.0  0.79540  0.76600  0.31595  1.0000
  H   H6138     1.0  0.79083  0.76373  0.34244  1.0000
  H   H6139     1.0  0.80267  0.74620  0.34109  1.0000
  H   H6140     1.0  0.80470  0.75386  0.30764  1.0000
  H   H6141     1.0  0.79336  0.77149  0.30893  1.0000
  N   N508      1.0  0.93077  0.67841  0.27478  1.0000
  C   C6187     1.0  0.93318  0.66773  0.27551  1.0000
  C   C6188     1.0  0.92323  0.68473  0.26943  1.0000
  H   H6142     1.0  0.98291  0.70443  0.22276  1.0000
  C   C6189     1.0  0.93664  0.68308  0.27940  1.0000
  H   H6143     1.0  0.93945  0.66275  0.27937  1.0000
  H   H6144     1.0  0.92139  0.69322  0.26868  1.0000
  H   H6145     1.0  0.94446  0.68367  0.27415  1.0000
  H   H6146     1.0  0.93236  0.69111  0.28061  1.0000
  H   H6147     1.0  0.93786  0.67821  0.28722  1.0000
  H   H6148     1.0  0.77340  0.97631  0.21575  1.0000
  H   H6149     1.0  0.83548  0.87789  0.24197  1.0000
  H   H6150     1.0  0.76449  0.74979  0.33272  1.0000
  S   S2078     1.0  0.74805  0.54890  0.18324  1.0000
  C   C6190     1.0  0.77760  0.92999  0.25739  1.0000
  H   H6151     1.0  0.74606  0.62126  0.27172  1.0000
  C   C6191     1.0  0.84929  0.75770  0.30217  1.0000
  H   H6152     1.0  0.82536  0.59934  0.27020  1.0000
  C   C6192     1.0  0.79894  0.58036  0.25635  1.0000
  H   H6153     1.0  0.77514  0.49443  0.27311  1.0000
  H   H6154     1.0  0.79793  0.60491  0.29470  1.0000
  H   H6155     1.0  0.76931  0.64602  0.30764  1.0000
  C   C6193     1.0  0.78076  0.49437  0.26568  1.0000
  H   H6156     1.0  0.80434  0.49188  0.26919  1.0000
  H   H6157     1.0  0.86722  0.75099  0.30829  1.0000
  C   C6194     1.0  0.79235  0.50308  0.25095  1.0000
  S   S2079     1.0  0.96078  0.70428  0.22386  1.0000
  H   H6158     1.0  0.80048  0.91934  0.18000  1.0000
  H   H6159     1.0  0.79201  0.50315  0.19259  1.0000
  S   S2080     1.0  0.75078  0.88031  0.27136  1.0000
  C   C6195     1.0  0.81586  0.57337  0.26196  1.0000
  Fe  Fe1041    1.0  0.77169  0.68370  0.35049  1.0000
  H   H6160     1.0  0.79321  0.57706  0.25428  1.0000
  C   C6196     1.0  0.76294  0.71476  0.34563  1.0000
  H   H6161     1.0  0.74721  0.95698  0.25454  1.0000
  C   C6197     1.0  0.74621  0.60619  0.25512  1.0000
  H   H6162     1.0  0.80347  0.58435  0.24886  1.0000
  C   C6198     1.0  0.78511  0.50330  0.26055  1.0000
  H   H6163     1.0  0.75104  0.79039  0.37389  1.0000
  S   S2081     1.0  0.78663  0.95270  0.18413  1.0000
  N   N509      1.0  0.77368  0.90962  0.24124  1.0000
  C   C6199     1.0  0.77648  0.91374  0.23069  1.0000
  C   C6200     1.0  0.76332  0.90961  0.24598  1.0000
  C   C6201     1.0  0.76875  0.91837  0.22468  1.0000
  C   C6202     1.0  0.75539  0.91419  0.24019  1.0000
  C   C6203     1.0  0.75814  0.91867  0.22949  1.0000
  C   C6204     1.0  0.78191  0.90497  0.24740  1.0000
  H   H6164     1.0  0.78472  0.91364  0.22693  1.0000
  H   H6165     1.0  0.76109  0.90640  0.25437  1.0000
  H   H6166     1.0  0.75079  0.57896  0.27650  1.0000
  C   C6205     1.0  0.92196  0.75834  0.19271  1.0000
  S   S2082     1.0  0.75138  0.61236  0.31385  1.0000
  H   H6167     1.0  0.78550  0.89675  0.24644  1.0000
  H   H6168     1.0  0.78822  0.90960  0.24472  1.0000
  H   H6169     1.0  0.77867  0.90502  0.25590  1.0000
  H   H6170     1.0  0.82344  0.75721  0.30562  1.0000
  C   C6206     1.0  0.76585  0.52298  0.24504  1.0000
  N   N510      1.0  0.74665  0.59576  0.27260  1.0000
  H   H6171     1.0  0.85605  0.75920  0.29589  1.0000
  H   H6172     1.0  0.75765  0.57668  0.19953  1.0000
  H   H6173     1.0  0.76824  0.52926  0.23823  1.0000
  H   H6174     1.0  0.78370  0.89784  0.20382  1.0000
  C   C6207     1.0  0.74650  0.59649  0.26233  1.0000
  C   C6208     1.0  0.82274  0.51154  0.25648  1.0000
  C   C6209     1.0  0.81549  0.51239  0.26598  1.0000
  H   H6175     1.0  0.75871  0.93292  0.24383  1.0000
  H   H6176     1.0  0.75290  0.60306  0.22631  1.0000
  C   C6210     1.0  0.97874  0.79309  0.18334  1.0000
  H   H6177     1.0  0.75473  0.71704  0.34433  1.0000
  H   H6178     1.0  0.92158  0.78198  0.20388  1.0000
  N   N511      1.0  0.94629  0.66643  0.22109  1.0000
  C   C6211     1.0  0.94387  0.67721  0.21838  1.0000
  C   C6212     1.0  0.95579  0.66125  0.22371  1.0000
  C   C6213     1.0  0.95096  0.68311  0.21845  1.0000
  C   C6214     1.0  0.96303  0.66691  0.22392  1.0000
  C   C6215     1.0  0.96059  0.67790  0.22123  1.0000
  C   C6216     1.0  0.93869  0.66047  0.22099  1.0000
  H   H6179     1.0  0.93638  0.68130  0.21624  1.0000
  H   H6180     1.0  0.95765  0.65271  0.22605  1.0000
  H   H6181     1.0  0.94899  0.69167  0.21644  1.0000
  H   H6182     1.0  0.97037  0.66279  0.22643  1.0000
  H   H6183     1.0  0.96610  0.68242  0.22135  1.0000
  H   H6184     1.0  0.94035  0.65222  0.22557  1.0000
  H   H6185     1.0  0.93060  0.66418  0.22466  1.0000
  H   H6186     1.0  0.93876  0.66038  0.21275  1.0000
  S   S2083     1.0  0.75329  0.78136  0.33562  1.0000
  C   C6217     1.0  0.74925  0.57731  0.20271  1.0000
  S   S2084     1.0  0.77196  0.66706  0.35946  1.0000
  H   H6187     1.0  0.97444  0.73988  0.22590  1.0000
  H   H6188     1.0  0.76747  0.55811  0.22575  1.0000
  C   C6218     1.0  0.75697  0.67348  0.32703  1.0000
  N   N512      1.0  0.88630  0.72192  0.21751  1.0000
  C   C6219     1.0  0.88806  0.71488  0.22663  1.0000
  C   C6220     1.0  0.88877  0.71862  0.20822  1.0000
  C   C6221     1.0  0.89212  0.70415  0.22663  1.0000
  C   C6222     1.0  0.89290  0.70796  0.20794  1.0000
  C   C6223     1.0  0.89456  0.70070  0.21722  1.0000
  C   C6224     1.0  0.88205  0.73314  0.21753  1.0000
  H   H6189     1.0  0.88631  0.71753  0.23396  1.0000
  H   H6190     1.0  0.88752  0.72423  0.20097  1.0000
  H   H6191     1.0  0.89332  0.69853  0.23390  1.0000
  H   H6192     1.0  0.89479  0.70536  0.20057  1.0000
  H   H6193     1.0  0.89776  0.69241  0.21710  1.0000
  H   H6194     1.0  0.88840  0.73765  0.21387  1.0000
  H   H6195     1.0  0.87567  0.73635  0.21300  1.0000
  C   C6225     1.0  0.74793  0.53086  0.25323  1.0000
  H   H6196     1.0  0.75205  0.92248  0.22496  1.0000
  C   C6226     1.0  0.98111  0.73489  0.22173  1.0000
  C   C6227     1.0  0.76702  0.92751  0.18862  1.0000
  H   H6197     1.0  0.74843  0.58666  0.23488  1.0000
  H   H6198     1.0  0.83064  0.56645  0.26694  1.0000
  H   H6199     1.0  0.79736  0.62415  0.28889  1.0000
  N   N513      1.0  0.86461  0.65396  0.21685  1.0000
  C   C6228     1.0  0.85567  0.65126  0.22358  1.0000
  C   C6229     1.0  0.86979  0.66015  0.21928  1.0000
  C   C6230     1.0  0.85186  0.65458  0.23314  1.0000
  C   C6231     1.0  0.86620  0.66362  0.22877  1.0000
  C   C6232     1.0  0.85721  0.66076  0.23576  1.0000
  C   C6233     1.0  0.86853  0.65049  0.20682  1.0000
  H   H6200     1.0  0.85164  0.64620  0.22176  1.0000
  H   H6201     1.0  0.87692  0.66219  0.21397  1.0000
  H   H6202     1.0  0.84501  0.65207  0.23861  1.0000
  H   H6203     1.0  0.87045  0.66835  0.23080  1.0000
  H   H6204     1.0  0.85449  0.66323  0.24323  1.0000
  H   H6205     1.0  0.87731  0.64832  0.20504  1.0000
  H   H6206     1.0  0.86576  0.64332  0.20713  1.0000
  H   H6207     1.0  0.86585  0.65688  0.20035  1.0000
  N   N514      1.0  0.83665  0.58299  0.20756  1.0000
  C   C6234     1.0  0.82859  0.58882  0.20269  1.0000
  C   C6235     1.0  0.83582  0.57342  0.21412  1.0000
  C   C6236     1.0  0.81917  0.58536  0.20478  1.0000
  C   C6237     1.0  0.82655  0.56965  0.21631  1.0000
  C   C6238     1.0  0.81815  0.57573  0.21167  1.0000
  C   C6239     1.0  0.84642  0.58680  0.20532  1.0000
  H   H6208     1.0  0.82939  0.59625  0.19722  1.0000
  H   H6209     1.0  0.84231  0.56869  0.21782  1.0000
  H   H6210     1.0  0.81269  0.59017  0.20111  1.0000
  H   H6211     1.0  0.82588  0.56212  0.22165  1.0000
  H   H6212     1.0  0.81087  0.57297  0.21338  1.0000
  H   H6213     1.0  0.85030  0.58394  0.21219  1.0000
  H   H6214     1.0  0.85197  0.58404  0.19839  1.0000
  H   H6215     1.0  0.84478  0.59557  0.20367  1.0000
  C   C6240     1.0  0.97943  0.70389  0.28193  1.0000
  C   C6241     1.0  0.76093  0.59962  0.22223  1.0000
  C   C6242     1.0  0.81669  0.49633  0.25619  1.0000
  Fe  Fe1042    1.0  0.75126  0.76724  0.34856  1.0000
  H   H6216     1.0  0.77926  0.92690  0.26519  1.0000
  C   C6243     1.0  0.83965  0.88907  0.20882  1.0000
  H   H6217     1.0  0.74584  0.60685  0.24702  1.0000
  H   H6218     1.0  0.86181  0.74595  0.32174  1.0000
  N   N515      1.0  0.75614  0.63986  0.37400  1.0000
  C   C6244     1.0  0.77334  0.93793  0.23719  1.0000
  C   C6245     1.0  0.74512  0.64879  0.34293  1.0000
  N   N516      1.0  0.83681  0.87773  0.22599  1.0000
  S   S2085     1.0  0.76683  0.85879  0.18853  1.0000
  C   C6246     1.0  0.84717  0.88085  0.20494  1.0000
  H   H6219     1.0  0.82434  0.61988  0.25502  1.0000
  N   N517      1.0  0.84582  0.81385  0.22909  1.0000
  C   C6247     1.0  0.85131  0.81178  0.21949  1.0000
  C   C6248     1.0  0.83615  0.82060  0.23001  1.0000
  C   C6249     1.0  0.84736  0.81686  0.21040  1.0000
  C   C6250     1.0  0.83189  0.82569  0.22110  1.0000
  C   C6251     1.0  0.83759  0.82387  0.21123  1.0000
  C   C6252     1.0  0.85026  0.80852  0.23844  1.0000
  H   H6220     1.0  0.85889  0.80634  0.21884  1.0000
  H   H6221     1.0  0.83182  0.82235  0.23758  1.0000
  H   H6222     1.0  0.85200  0.81556  0.20275  1.0000
  H   H6223     1.0  0.82440  0.83131  0.22182  1.0000
  H   H6224     1.0  0.83456  0.82808  0.20421  1.0000
  H   H6225     1.0  0.84684  0.81288  0.24491  1.0000
  H   H6226     1.0  0.84880  0.80038  0.24120  1.0000
  H   H6227     1.0  0.85895  0.80794  0.23655  1.0000
  C   C6253     1.0  0.80378  0.61862  0.28515  1.0000
  C   C6254     1.0  0.78276  0.93864  0.23916  1.0000
  C   C6255     1.0  0.74443  0.85476  0.20810  1.0000
  C   C6256     1.0  0.80146  0.50649  0.28042  1.0000
  C   C6257     1.0  0.77946  0.85927  0.18938  1.0000
  H   H6228     1.0  0.80130  0.49377  0.23945  1.0000
  C   C6258     1.0  0.82144  0.96661  0.18244  1.0000
  C   C6259     1.0  0.76592  0.93351  0.24541  1.0000
  H   H6229     1.0  0.97592  0.72057  0.22995  1.0000
  H   H6230     1.0  0.94000  0.73253  0.18088  1.0000
  C   C6260     1.0  0.75174  0.66849  0.32281  1.0000
  H   H6231     1.0  0.92522  0.76862  0.17759  1.0000
  C   C6261     1.0  0.78493  0.93465  0.24922  1.0000
  H   H6232     1.0  0.90056  0.75130  0.17825  1.0000
  H   H6233     1.0  0.81504  0.51876  0.26970  1.0000
  N   N518      1.0  0.86627  0.70483  0.29994  1.0000
  C   C6262     1.0  0.87635  0.70183  0.30157  1.0000
  C   C6263     1.0  0.85784  0.70460  0.30831  1.0000
  C   C6264     1.0  0.87822  0.69842  0.31180  1.0000
  C   C6265     1.0  0.85943  0.70108  0.31863  1.0000
  C   C6266     1.0  0.86968  0.69807  0.32037  1.0000
  C   C6267     1.0  0.86447  0.70894  0.28919  1.0000
  H   H6234     1.0  0.88302  0.70214  0.29495  1.0000
  H   H6235     1.0  0.84984  0.70734  0.30706  1.0000
  H   H6236     1.0  0.88622  0.69624  0.31305  1.0000
  H   H6237     1.0  0.85277  0.70110  0.32528  1.0000
  H   H6238     1.0  0.87095  0.69577  0.32837  1.0000
  H   H6239     1.0  0.86386  0.71761  0.28706  1.0000
  H   H6240     1.0  0.87103  0.70523  0.28342  1.0000
  H   H6241     1.0  0.85711  0.70722  0.28845  1.0000
  H   H6242     1.0  0.82874  0.50286  0.24406  1.0000
  C   C6268     1.0  0.77081  0.96308  0.24114  1.0000
  N   N519      1.0  0.76809  0.96872  0.23183  1.0000
  C   C6269     1.0  0.74452  0.83479  0.32635  1.0000
  H   H6243     1.0  0.82792  0.62722  0.26242  1.0000
  C   C6270     1.0  0.75395  0.85344  0.22168  1.0000
  C   C6271     1.0  0.74663  0.60450  0.27595  1.0000
  C   C6272     1.0  0.76336  0.95877  0.24944  1.0000
  C   C6273     1.0  0.77952  0.72082  0.33823  1.0000
  H   H6244     1.0  0.82874  0.89378  0.22243  1.0000
  Fe  Fe1043    1.0  0.75188  0.69272  0.36489  1.0000
  H   H6245     1.0  0.74650  0.86600  0.32615  1.0000
  C   C6274     1.0  0.82265  0.56562  0.26770  1.0000
  S   S2086     1.0  0.89986  0.78612  0.18270  1.0000
  H   H6246     1.0  0.79447  0.58637  0.26108  1.0000
  S   S2087     1.0  0.75425  0.63652  0.30100  1.0000
  H   H6247     1.0  0.74931  0.56203  0.20064  1.0000
  H   H6248     1.0  0.74323  0.85421  0.24870  1.0000
  H   H6249     1.0  0.81875  0.58015  0.25681  1.0000
  C   C6275     1.0  0.74448  0.56907  0.20327  1.0000
  C   C6276     1.0  0.79831  0.86378  0.19031  1.0000
  C   C6277     1.0  0.92377  0.76789  0.18602  1.0000
  H   H6250     1.0  0.76267  0.85274  0.23322  1.0000
  C   C6278     1.0  0.75799  0.97031  0.23054  1.0000
  N   N520      1.0  0.91932  0.75387  0.24170  1.0000
  C   C6279     1.0  0.92419  0.76221  0.23901  1.0000
  C   C6280     1.0  0.90897  0.75547  0.24118  1.0000
  C   C6281     1.0  0.91852  0.77253  0.23617  1.0000
  C   C6282     1.0  0.90310  0.76568  0.23831  1.0000
  C   C6283     1.0  0.90791  0.77425  0.23585  1.0000
  C   C6284     1.0  0.92538  0.74312  0.24467  1.0000
  H   H6251     1.0  0.93250  0.76091  0.23909  1.0000
  H   H6252     1.0  0.90517  0.74885  0.24305  1.0000
  H   H6253     1.0  0.92228  0.77919  0.23427  1.0000
  H   H6254     1.0  0.89485  0.76694  0.23804  1.0000
  H   H6255     1.0  0.90344  0.78223  0.23367  1.0000
  H   H6256     1.0  0.93120  0.74297  0.24925  1.0000
  H   H6257     1.0  0.92017  0.73777  0.24985  1.0000
  H   H6258     1.0  0.92965  0.73999  0.23751  1.0000
  C   C6285     1.0  0.91976  0.66943  0.26600  1.0000
  S   S2088     1.0  0.74649  0.49565  0.19589  1.0000
  C   C6286     1.0  0.76335  0.73347  0.33869  1.0000
  H   H6259     1.0  0.75532  0.91842  0.19747  1.0000
  H   H6260     1.0  0.79225  0.93520  0.25072  1.0000
  C   C6287     1.0  0.80906  0.55550  0.27454  1.0000
  Fe  Fe1044    1.0  0.74817  0.53332  0.19497  1.0000
  N   N521      1.0  0.85037  0.75418  0.31242  1.0000
  H   H6261     1.0  0.75479  0.73539  0.34075  1.0000
  S   S2089     1.0  0.80933  0.86816  0.19065  1.0000
  H   H6262     1.0  0.75536  0.51338  0.23755  1.0000
  H   H6263     1.0  0.75412  0.81062  0.34044  1.0000
  C   C6288     1.0  0.90781  0.69880  0.17794  1.0000
  C   C6289     1.0  0.79428  0.76499  0.36827  1.0000
  C   C6290     1.0  0.74304  0.58644  0.20598  1.0000
  H   H6264     1.0  0.84648  0.86222  0.22760  1.0000
  C   C6291     1.0  0.74772  0.63642  0.37165  1.0000
  C   C6292     1.0  0.74314  0.62123  0.21291  1.0000
  N   N522      1.0  0.81521  0.97644  0.18017  1.0000
  C   C6293     1.0  0.78713  0.49311  0.20763  1.0000
  H   H6265     1.0  0.78268  0.55273  0.18552  1.0000
  C   C6294     1.0  0.77307  0.57234  0.21780  1.0000
  H   H6266     1.0  0.77015  0.51516  0.24323  1.0000
  C   C6295     1.0  0.81560  0.91080  0.19610  1.0000
  C   C6296     1.0  0.84448  0.86977  0.22235  1.0000
  C   C6297     1.0  0.92760  0.66307  0.27128  1.0000
  C   C6298     1.0  0.83115  0.87599  0.23702  1.0000
  N   N523      1.0  0.75441  0.52398  0.24719  1.0000
  C   C6299     1.0  0.90892  0.68310  0.19203  1.0000
  H   H6267     1.0  0.81085  0.63072  0.27387  1.0000
  S   S2090     1.0  0.76419  0.93543  0.19806  1.0000
  H   H6268     1.0  0.80823  0.91742  0.22379  1.0000
  H   H6269     1.0  0.83891  0.76120  0.29138  1.0000
  H   H6270     1.0  0.92948  0.65460  0.27187  1.0000
  H   H6271     1.0  0.83761  0.89666  0.20362  1.0000
  Fe  Fe1045    1.0  0.76752  0.67405  0.37393  1.0000
  C   C6300     1.0  0.76880  0.74165  0.33416  1.0000
  H   H6272     1.0  0.85362  0.83448  0.23330  1.0000
  H   H6273     1.0  0.88162  0.77966  0.19757  1.0000
  C   C6301     1.0  0.94252  0.79621  0.19363  1.0000
  Fe  Fe1046    1.0  0.76888  0.77913  0.33978  1.0000
  S   S2091     1.0  0.94972  0.76467  0.19516  1.0000
  H   H6274     1.0  0.86116  0.76000  0.31712  1.0000
  C   C6302     1.0  0.86064  0.75277  0.31503  1.0000
  S   S2092     1.0  0.75873  0.92416  0.26587  1.0000
  C   C6303     1.0  0.91768  0.68034  0.26490  1.0000
  S   S2093     1.0  0.82081  0.87253  0.21294  1.0000
  C   C6304     1.0  0.74635  0.61430  0.26896  1.0000
  H   H6275     1.0  0.87434  0.76369  0.20101  1.0000
  H   H6276     1.0  0.77166  0.94098  0.22939  1.0000
  C   C6305     1.0  0.77348  0.48446  0.20889  1.0000
  H   H6277     1.0  0.91170  0.68538  0.26066  1.0000
  Fe  Fe1047    1.0  0.96042  0.77611  0.18856  1.0000
  N   N524      1.0  0.99009  0.71771  0.21844  1.0000
  C   C6306     1.0  0.95250  0.73580  0.21568  1.0000
  C   C6307     1.0  0.76648  0.63581  0.36998  1.0000
  H   H6278     1.0  0.84272  0.74941  0.32844  1.0000
  S   S2094     1.0  0.79946  0.95519  0.20068  1.0000
  S   S2095     1.0  0.97155  0.74684  0.19772  1.0000
  C   C6308     1.0  0.88682  0.75650  0.18968  1.0000
  N   N525      1.0  0.76837  0.65841  0.31529  1.0000
  S   S2096     1.0  0.76279  0.78955  0.35151  1.0000
  H   H6279     1.0  0.75020  0.84925  0.20340  1.0000
  H   H6280     1.0  0.91546  0.66590  0.26257  1.0000
  Fe  Fe1048    1.0  0.75860  0.51753  0.21192  1.0000
  N   N526      1.0  0.75006  0.85937  0.21304  1.0000
  H   H6281     1.0  0.76197  0.60378  0.21381  1.0000
  Fe  Fe1049    1.0  0.98040  0.75996  0.19113  1.0000
  C   C6309     1.0  0.95454  0.72509  0.21559  1.0000
  H   H6282     1.0  0.95148  0.74160  0.20853  1.0000
  H   H6283     1.0  0.79716  0.51483  0.28008  1.0000
  H   H6284     1.0  0.80659  0.67526  0.36157  1.0000
  H   H6285     1.0  0.74745  0.75332  0.37517  1.0000
  H   H6286     1.0  0.79575  0.50987  0.24687  1.0000
  N   N527      1.0  0.80598  0.57213  0.26237  1.0000
  Fe  Fe1050    1.0  0.78785  0.94753  0.21350  1.0000
  C   C6310     1.0  0.81278  0.92325  0.20709  1.0000
  C   C6311     1.0  0.88167  0.76439  0.19537  1.0000
  H   H6287     1.0  0.79208  0.86158  0.20706  1.0000
  H   H6288     1.0  0.90110  0.68555  0.17926  1.0000
  C   C6312     1.0  0.79129  0.48491  0.25196  1.0000
  S   S2097     1.0  0.75005  0.67686  0.37508  1.0000
  C   C6313     1.0  0.78523  0.72880  0.33368  1.0000
  Fe  Fe1051    1.0  0.74173  0.86909  0.28351  1.0000
  H   H6289     1.0  0.75259  0.84552  0.22505  1.0000
  H   H6290     1.0  0.87862  0.73454  0.22563  1.0000
  C   C6314     1.0  0.74759  0.82390  0.30543  1.0000
  S   S2098     1.0  0.97953  0.68020  0.23608  1.0000
  H   H6291     1.0  0.75249  0.67914  0.33185  1.0000
  H   H6292     1.0  0.75579  0.97478  0.22318  1.0000
  S   S2099     1.0  0.78905  0.93445  0.20579  1.0000
  H   H6293     1.0  0.95529  0.72270  0.20833  1.0000
  C   C6315     1.0  0.75189  0.86931  0.20872  1.0000
  H   H6294     1.0  0.80637  0.54845  0.27927  1.0000
  H   H6295     1.0  0.76847  0.63050  0.36460  1.0000
  C   C6316     1.0  0.75780  0.55596  0.18194  1.0000
  H   H6296     1.0  0.80570  0.50385  0.28700  1.0000
  H   H6297     1.0  0.91854  0.75001  0.20886  1.0000
  S   S2100     1.0  0.77344  0.95723  0.20753  1.0000
  H   H6298     1.0  0.79381  0.72689  0.33179  1.0000
  S   S2101     1.0  0.76898  0.69022  0.36477  1.0000
  S   S2102     1.0  0.88102  0.74591  0.19083  1.0000
  H   H6299     1.0  0.82480  0.95028  0.18119  1.0000
  H   H6300     1.0  0.78001  0.64439  0.31371  1.0000
  C   C6317     1.0  0.79080  0.86142  0.19955  1.0000
  H   H6301     1.0  0.77559  0.85744  0.20622  1.0000
  Fe  Fe1052    1.0  0.96192  0.75439  0.18525  1.0000
  H   H6302     1.0  0.81225  0.93116  0.20792  1.0000
  Fe  Fe1053    1.0  0.78528  0.96436  0.19413  1.0000
  H   H6303     1.0  0.74646  0.58956  0.25972  1.0000
  H   H6304     1.0  0.82451  0.55038  0.27821  1.0000
  C   C6318     1.0  0.77513  0.55674  0.18351  1.0000
  H   H6305     1.0  0.82748  0.96525  0.18690  1.0000
  H   H6306     1.0  0.74318  0.67023  0.32438  1.0000
  C   C6319     1.0  0.75544  0.58270  0.23009  1.0000
  C   C6320     1.0  0.81922  0.55661  0.27399  1.0000
  H   H6307     1.0  0.78281  0.63540  0.36936  1.0000
  C   C6321     1.0  0.91999  0.75736  0.20359  1.0000
  H   H6308     1.0  0.91843  0.76524  0.21605  1.0000
  C   C6322     1.0  0.78143  0.85908  0.19909  1.0000
  H   H6309     1.0  0.90719  0.67537  0.19566  1.0000
  H   H6310     1.0  0.77778  0.98000  0.22551  1.0000
  Fe  Fe1054    1.0  0.75460  0.67134  0.35970  1.0000
  H   H6311     1.0  0.79224  0.49523  0.21136  1.0000
  H   H6312     1.0  0.74306  0.83097  0.30130  1.0000
  C   C6323     1.0  0.75757  0.87362  0.21319  1.0000
  S   S2103     1.0  0.97202  0.76648  0.17753  1.0000
  C   C6324     1.0  0.75024  0.51854  0.24265  1.0000
  C   C6325     1.0  0.91990  0.76590  0.20763  1.0000
  H   H6313     1.0  0.83488  0.61398  0.26204  1.0000
  H   H6314     1.0  0.77096  0.53315  0.20728  1.0000
  H   H6315     1.0  0.98140  0.68688  0.27479  1.0000
  S   S2104     1.0  0.78307  0.98221  0.18886  1.0000
  S   S2105     1.0  0.74918  0.53397  0.21099  1.0000
  C   C6326     1.0  0.84968  0.87115  0.21175  1.0000
  C   C6327     1.0  0.74608  0.61515  0.25849  1.0000
  H   H6316     1.0  0.97581  0.80087  0.17846  1.0000
  H   H6317     1.0  0.77095  0.92187  0.21638  1.0000
  N   N528      1.0  0.81925  0.61536  0.27154  1.0000
  Fe  Fe1055    1.0  0.74218  0.93121  0.26375  1.0000
  C   C6328     1.0  0.89507  0.77454  0.18584  1.0000
  H   H6318     1.0  0.77212  0.67482  0.32848  1.0000
  C   C6329     1.0  0.76599  0.56659  0.22498  1.0000
  C   C6330     1.0  0.75713  0.57179  0.23121  1.0000
  Fe  Fe1056    1.0  0.76000  0.77454  0.36296  1.0000
  C   C6331     1.0  0.78377  0.48525  0.26138  1.0000
  C   C6332     1.0  0.84187  0.75219  0.32031  1.0000
  C   C6333     1.0  0.75153  0.65254  0.34716  1.0000
  N   N529      1.0  0.79508  0.89673  0.17842  1.0000
  H   H6319     1.0  0.97443  0.79286  0.19166  1.0000
  H   H6320     1.0  0.77890  0.65412  0.30151  1.0000
  C   C6334     1.0  0.77603  0.97334  0.22337  1.0000
  H   H6321     1.0  0.77887  0.96165  0.24209  1.0000
  S   S2106     1.0  0.74712  0.85155  0.28867  1.0000
  C   C6335     1.0  0.74114  0.48409  0.19963  1.0000
  N   N530      1.0  0.92346  0.77629  0.19006  1.0000
  H   H6322     1.0  0.92058  0.79305  0.18634  1.0000
  C   C6336     1.0  0.76798  0.67098  0.32521  1.0000
  S   S2107     1.0  0.75469  0.68762  0.34970  1.0000
  C   C6337     1.0  0.78699  0.49766  0.19702  1.0000
  H   H6323     1.0  0.76561  0.95405  0.25672  1.0000
  H   H6324     1.0  0.75161  0.56743  0.23692  1.0000
  H   H6325     1.0  0.93397  0.78638  0.18154  1.0000
  C   C6338     1.0  0.82695  0.61932  0.26233  1.0000
  H   H6326     1.0  0.77908  0.93513  0.17786  1.0000
  H   H6327     1.0  0.81694  0.49009  0.25238  1.0000
  C   C6339     1.0  0.83961  0.75884  0.29956  1.0000
  C   C6340     1.0  0.89634  0.75745  0.18245  1.0000
  H   H6328     1.0  0.76195  0.82984  0.30032  1.0000
  C   C6341     1.0  0.74618  0.61905  0.20280  1.0000
  S   S2108     1.0  0.75906  0.51740  0.19529  1.0000
  C   C6342     1.0  0.80406  0.60782  0.28836  1.0000
  C   C6343     1.0  0.76741  0.55092  0.18491  1.0000
  C   C6344     1.0  0.79455  0.75424  0.37014  1.0000
  C   C6345     1.0  0.75957  0.85753  0.22640  1.0000
  C   C6346     1.0  0.75759  0.66095  0.31690  1.0000
  C   C6347     1.0  0.74846  0.81715  0.33710  1.0000
  H   H6329     1.0  0.77247  0.81355  0.30966  1.0000
  C   C6348     1.0  0.81195  0.60084  0.28303  1.0000
  C   C6349     1.0  0.81143  0.62228  0.27661  1.0000
  H   H6330     1.0  0.78409  0.74557  0.32808  1.0000
  H   H6331     1.0  0.74714  0.91454  0.24404  1.0000
  H   H6332     1.0  0.75416  0.61907  0.19845  1.0000
  H   H6333     1.0  0.81197  0.59248  0.28520  1.0000
  H   H6334     1.0  0.75988  0.82690  0.32954  1.0000
  H   H6335     1.0  0.82302  0.88096  0.23790  1.0000
  C   C6350     1.0  0.81950  0.60477  0.27457  1.0000
  H   H6336     1.0  0.91553  0.71055  0.17877  1.0000
  C   C6351     1.0  0.83205  0.75332  0.31798  1.0000
  S   S2109     1.0  0.81417  0.93165  0.18612  1.0000
  C   C6352     1.0  0.98877  0.68754  0.27613  1.0000
  C   C6353     1.0  0.75933  0.80582  0.31585  1.0000
  C   C6354     1.0  0.77314  0.56766  0.17948  1.0000
  H   H6337     1.0  0.78376  0.71269  0.33993  1.0000
  C   C6355     1.0  0.76341  0.91320  0.18299  1.0000
  C   C6356     1.0  0.75306  0.96033  0.24819  1.0000
  C   C6357     1.0  0.77358  0.66338  0.31927  1.0000
  H   H6338     1.0  0.82536  0.75148  0.32419  1.0000
  C   C6358     1.0  0.91356  0.70297  0.18246  1.0000
  C   C6359     1.0  0.74958  0.64143  0.33639  1.0000
  C   C6360     1.0  0.77980  0.73928  0.33161  1.0000
  H   H6339     1.0  0.76387  0.79873  0.31999  1.0000
  C   C6361     1.0  0.76419  0.81414  0.31001  1.0000
  H   H6340     1.0  0.79051  0.91436  0.19826  1.0000
  C   C6362     1.0  0.83095  0.75657  0.30753  1.0000
  H   H6341     1.0  0.75925  0.88138  0.20955  1.0000
  C   C6363     1.0  0.78981  0.89377  0.18856  1.0000
  S   S2110     1.0  0.75362  0.88847  0.17903  1.0000
  S   S2111     1.0  0.95636  0.74340  0.17867  1.0000
  H   H6342     1.0  0.78345  0.96731  0.22203  1.0000
  S   S2112     1.0  0.74404  0.75460  0.34743  1.0000
  Fe  Fe1057    1.0  0.74584  0.62443  0.30013  1.0000
  H   H6343     1.0  0.75020  0.63415  0.36386  1.0000
  C   C6364     1.0  0.77446  0.65039  0.30920  1.0000
  H   H6344     1.0  0.74880  0.62292  0.21627  1.0000
  C   C6365     1.0  0.74857  0.80681  0.31647  1.0000
  C   C6366     1.0  0.75033  0.96613  0.23870  1.0000
  H   H6345     1.0  0.92202  0.75178  0.18946  1.0000
  Fe  Fe1058    1.0  0.98657  0.68468  0.24721  1.0000
  C   C6367     1.0  0.77472  0.92901  0.17937  1.0000
  S   S2113     1.0  0.74473  0.50989  0.21908  1.0000
  S   S2114     1.0  0.74267  0.70860  0.36773  1.0000
  H   H6346     1.0  0.75343  0.65692  0.31386  1.0000
  H   H6347     1.0  0.74664  0.60394  0.28412  1.0000
  C   C6368     1.0  0.79669  0.86317  0.18069  1.0000
  H   H6348     1.0  0.76252  0.71291  0.35425  1.0000
  S   S2115     1.0  0.74557  0.66143  0.35570  1.0000
  H   H6349     1.0  0.76607  0.87078  0.22551  1.0000
  H   H6350     1.0  0.79539  0.97656  0.20521  1.0000
  C   C6369     1.0  0.90549  0.68885  0.18276  1.0000
  H   H6351     1.0  0.76689  0.70752  0.34248  1.0000
  H   H6352     1.0  0.78001  0.56840  0.21291  1.0000
  H   H6353     1.0  0.74280  0.55689  0.23240  1.0000
  H   H6354     1.0  0.74456  0.63860  0.33319  1.0000
  H   H6355     1.0  0.82777  0.51722  0.25290  1.0000
  C   C6370     1.0  0.98192  0.72398  0.22391  1.0000
  H   H6356     1.0  0.80546  0.68339  0.37539  1.0000
  C   C6371     1.0  0.78008  0.49534  0.19230  1.0000
  S   S2116     1.0  0.74354  0.77651  0.36108  1.0000
  C   C6372     1.0  0.80956  0.49739  0.26573  1.0000
  C   C6373     1.0  0.92550  0.78620  0.18294  1.0000
  H   H6357     1.0  0.74477  0.80042  0.32119  1.0000
  H   H6358     1.0  0.75125  0.53540  0.25657  1.0000
  S   S2117     1.0  0.74894  0.84597  0.31806  1.0000
  H   H6359     1.0  0.98851  0.80201  0.19219  1.0000
  C   C6374     1.0  0.90040  0.76648  0.18046  1.0000
  H   H6360     1.0  0.79836  0.74988  0.36394  1.0000
  H   H6361     1.0  0.74565  0.62275  0.25304  1.0000
  S   S2118     1.0  0.74282  0.61360  0.18598  1.0000
  H   H6362     1.0  0.74653  0.59304  0.20534  1.0000
  H   H6363     1.0  0.76839  0.52364  0.25198  1.0000
  H   H6364     1.0  0.74924  0.87381  0.20158  1.0000
  H   H6365     1.0  0.77973  0.49894  0.18414  1.0000
  H   H6366     1.0  0.97320  0.70019  0.28783  1.0000
  H   H6367     1.0  0.97643  0.70753  0.27455  1.0000
  C   C6375     1.0  0.79184  0.90936  0.19273  1.0000
  H   H6368     1.0  0.76902  0.54250  0.18800  1.0000
  H   H6369     1.0  0.79771  0.76910  0.36053  1.0000
  H   H6370     1.0  0.93382  0.80885  0.18359  1.0000
  C   C6376     1.0  0.82003  0.95814  0.17919  1.0000
  S   S2119     1.0  0.81491  0.73276  0.37332  1.0000
  H   H6371     1.0  0.97660  0.78697  0.18067  1.0000
  Fe  Fe1059    1.0  0.76044  0.61025  0.18113  1.0000
  N   N531      1.0  0.98912  0.69589  0.27988  1.0000
  H   H6372     1.0  0.98067  0.71028  0.28494  1.0000
  H   H6373     1.0  0.98823  0.74783  0.21207  1.0000
  C   C6377     1.0  0.98883  0.73935  0.21399  1.0000
  S   S2120     1.0  0.78325  0.57462  0.17709  1.0000
  C   C6378     1.0  0.76334  0.57278  0.17696  1.0000
  Fe  Fe1060    1.0  0.77854  0.59204  0.17689  1.0000
  N   N532      1.0  0.99015  0.79130  0.18245  1.0000
  C   C6379     1.0  0.78029  0.48240  0.22466  1.0000
  H   H6374     1.0  0.74179  0.89445  0.25311  1.0000
  C   C6380     1.0  0.74117  0.88347  0.24442  1.0000
  H   H6375     1.0  0.74117  0.84854  0.26809  1.0000
  H   H6376     1.0  0.74061  0.97388  0.28044  1.0000
  H   H6377     1.0  0.74061  0.64292  0.37122  1.0000
  C   C6381     1.0  0.76675  0.67403  0.57433  1.0000
  C   C6382     1.0  0.75584  0.75058  0.42053  1.0000
  C   C6383     1.0  0.75145  0.73742  0.44691  1.0000
  C   C6384     1.0  0.74105  0.74400  0.41974  1.0000
  C   C6385     1.0  0.78992  0.74907  0.38010  1.0000
  C   C6386     1.0  0.74549  0.75240  0.41924  1.0000
  H   H6378     1.0  0.74666  0.76546  0.48597  1.0000
  C   C6387     1.0  0.78948  0.77043  0.37637  1.0000
  N   N533      1.0  0.82687  0.75610  0.54723  1.0000
  S   S2121     1.0  0.76306  0.76914  0.37919  1.0000
  C   C6388     1.0  0.77977  0.74913  0.39818  1.0000
  C   C6389     1.0  0.81902  0.70160  0.55166  1.0000
  H   H6379     1.0  0.81992  0.69290  0.55333  1.0000
  H   H6380     1.0  0.81741  0.71991  0.45860  1.0000
  C   C6390     1.0  0.81097  0.76468  0.55750  1.0000
  H   H6381     1.0  0.82015  0.68440  0.38087  1.0000
  C   C6391     1.0  0.74832  0.74076  0.50137  1.0000
  C   C6392     1.0  0.76109  0.75440  0.48870  1.0000
  H   H6382     1.0  0.74315  0.69918  0.56974  1.0000
  C   C6393     1.0  0.79821  0.70040  0.39151  1.0000
  H   H6383     1.0  0.74536  0.74614  0.38872  1.0000
  C   C6394     1.0  0.78927  0.68645  0.56514  1.0000
  H   H6384     1.0  0.79015  0.74072  0.38144  1.0000
  H   H6385     1.0  0.77445  0.69974  0.38768  1.0000
  S   S2122     1.0  0.83703  0.72659  0.56233  1.0000
  C   C6395     1.0  0.74749  0.75403  0.55009  1.0000
  H   H6386     1.0  0.78331  0.74056  0.40001  1.0000
  C   C6396     1.0  0.83823  0.75156  0.54567  1.0000
  S   S2123     1.0  0.74878  0.78173  0.53168  1.0000
  H   H6387     1.0  0.82674  0.70365  0.54740  1.0000
  H   H6388     1.0  0.75817  0.72378  0.51246  1.0000
  C   C6397     1.0  0.81156  0.69621  0.46119  1.0000
  H   H6389     1.0  0.82253  0.71837  0.43978  1.0000
  C   C6398     1.0  0.80421  0.67181  0.56645  1.0000
  C   C6399     1.0  0.77330  0.67909  0.55561  1.0000
  H   H6390     1.0  0.74091  0.76032  0.41787  1.0000
  S   S2124     1.0  0.77594  0.66764  0.38752  1.0000
  H   H6391     1.0  0.76617  0.75970  0.48383  1.0000
  H   H6392     1.0  0.75909  0.75711  0.42053  1.0000
  Fe  Fe1061    1.0  0.79306  0.72015  0.51040  1.0000
  S   S2125     1.0  0.78674  0.70674  0.52203  1.0000
  S   S2126     1.0  0.79203  0.72482  0.49302  1.0000
  Fe  Fe1062    1.0  0.79810  0.72805  0.52761  1.0000
  S   S2127     1.0  0.79191  0.71552  0.54042  1.0000
  S   S2128     1.0  0.80331  0.73958  0.53363  1.0000
  Fe  Fe1063    1.0  0.80042  0.70471  0.52943  1.0000
  S   S2129     1.0  0.80921  0.68881  0.53653  1.0000
  Fe  Fe1064    1.0  0.77877  0.71851  0.53217  1.0000
  S   S2130     1.0  0.76263  0.71704  0.54175  1.0000
  S   S2131     1.0  0.80774  0.71707  0.51691  1.0000
  S   S2132     1.0  0.78397  0.73225  0.52017  1.0000
  C   C6400     1.0  0.81069  0.76099  0.54104  1.0000
  Fe  Fe1065    1.0  0.77641  0.69949  0.42932  1.0000
  S   S2133     1.0  0.78526  0.71104  0.41765  1.0000
  S   S2134     1.0  0.76494  0.69443  0.42297  1.0000
  Fe  Fe1066    1.0  0.78465  0.70200  0.44776  1.0000
  S   S2135     1.0  0.79404  0.71375  0.43727  1.0000
  S   S2136     1.0  0.78525  0.69653  0.46517  1.0000
  Fe  Fe1067    1.0  0.77990  0.72058  0.43002  1.0000
  S   S2137     1.0  0.77413  0.73797  0.42537  1.0000
  Fe  Fe1068    1.0  0.79854  0.70305  0.42594  1.0000
  S   S2138     1.0  0.81506  0.69978  0.41653  1.0000
  S   S2139     1.0  0.76995  0.70974  0.44137  1.0000
  S   S2140     1.0  0.79023  0.69054  0.43680  1.0000
  C   C6401     1.0  0.76183  0.74031  0.42218  1.0000
  H   H6393     1.0  0.80639  0.76094  0.53529  1.0000
  C   C6402     1.0  0.75761  0.73191  0.42206  1.0000
  N   N534      1.0  0.80461  0.69352  0.38544  1.0000
  H   H6394     1.0  0.76226  0.72395  0.42315  1.0000
  C   C6403     1.0  0.78969  0.71691  0.48559  1.0000
  C   C6404     1.0  0.78894  0.70638  0.48979  1.0000
  C   C6405     1.0  0.78737  0.70032  0.48350  1.0000
  C   C6406     1.0  0.78649  0.70470  0.47297  1.0000
  C   C6407     1.0  0.78711  0.71527  0.46881  1.0000
  C   C6408     1.0  0.78871  0.72133  0.47509  1.0000
  H   H6395     1.0  0.78970  0.70286  0.49784  1.0000
  H   H6396     1.0  0.78692  0.69215  0.48680  1.0000
  H   H6397     1.0  0.78649  0.71875  0.46072  1.0000
  H   H6398     1.0  0.78929  0.72946  0.47175  1.0000
  C   C6409     1.0  0.75285  0.72588  0.53565  1.0000
  C   C6410     1.0  0.75413  0.73608  0.53045  1.0000
  H   H6399     1.0  0.74674  0.75133  0.52262  1.0000
  C   C6411     1.0  0.75435  0.77763  0.38698  1.0000
  H   H6400     1.0  0.78214  0.70797  0.39744  1.0000
  C   C6412     1.0  0.74121  0.73781  0.55536  1.0000
  H   H6401     1.0  0.76132  0.73849  0.52995  1.0000
  H   H6402     1.0  0.77076  0.72729  0.50829  1.0000
  H   H6403     1.0  0.80820  0.69013  0.46721  1.0000
  H   H6404     1.0  0.76548  0.69422  0.54805  1.0000
  C   C6413     1.0  0.81586  0.72404  0.38551  1.0000
  C   C6414     1.0  0.82352  0.71466  0.38624  1.0000
  C   C6415     1.0  0.82365  0.70745  0.39593  1.0000
  C   C6416     1.0  0.81601  0.70953  0.40488  1.0000
  C   C6417     1.0  0.80869  0.71915  0.40428  1.0000
  C   C6418     1.0  0.80867  0.72642  0.39463  1.0000
  H   H6405     1.0  0.75618  0.76653  0.40149  1.0000
  H   H6406     1.0  0.82951  0.70014  0.39641  1.0000
  H   H6407     1.0  0.80305  0.72102  0.41126  1.0000
  H   H6408     1.0  0.80297  0.73381  0.39423  1.0000
  C   C6419     1.0  0.77305  0.67538  0.39710  1.0000
  C   C6420     1.0  0.76350  0.68270  0.39869  1.0000
  C   C6421     1.0  0.76119  0.68851  0.40659  1.0000
  C   C6422     1.0  0.76853  0.68734  0.41275  1.0000
  C   C6423     1.0  0.77823  0.68025  0.41095  1.0000
  C   C6424     1.0  0.78040  0.67418  0.40327  1.0000
  H   H6409     1.0  0.75776  0.68370  0.39402  1.0000
  H   H6410     1.0  0.75365  0.69391  0.40798  1.0000
  H   H6411     1.0  0.78390  0.67921  0.41571  1.0000
  H   H6412     1.0  0.78782  0.66854  0.40210  1.0000
  C   C6425     1.0  0.82710  0.72929  0.55504  1.0000
  C   C6426     1.0  0.82966  0.72605  0.54544  1.0000
  C   C6427     1.0  0.82213  0.72850  0.53917  1.0000
  C   C6428     1.0  0.81196  0.73424  0.54245  1.0000
  C   C6429     1.0  0.80926  0.73707  0.55226  1.0000
  C   C6430     1.0  0.81679  0.73460  0.55854  1.0000
  H   H6413     1.0  0.83759  0.72186  0.54269  1.0000
  H   H6414     1.0  0.82434  0.72638  0.53156  1.0000
  H   H6415     1.0  0.80142  0.74152  0.55486  1.0000
  H   H6416     1.0  0.81461  0.73697  0.56600  1.0000
  H   H6417     1.0  0.78625  0.68725  0.37668  1.0000
  C   C6431     1.0  0.74344  0.72287  0.53651  1.0000
  N   N535      1.0  0.75855  0.69043  0.56445  1.0000
  H   H6418     1.0  0.78084  0.76938  0.39238  1.0000
  H   H6419     1.0  0.77907  0.67766  0.54849  1.0000
  H   H6420     1.0  0.75962  0.65477  0.38894  1.0000
  H   H6421     1.0  0.80508  0.68431  0.45232  1.0000
  C   C6432     1.0  0.74255  0.80208  0.55626  1.0000
  C   C6433     1.0  0.80869  0.67532  0.55580  1.0000
  C   C6434     1.0  0.80337  0.68429  0.54976  1.0000
  C   C6435     1.0  0.79352  0.68966  0.55440  1.0000
  C   C6436     1.0  0.80055  0.71095  0.57512  1.0000
  H   H6422     1.0  0.81924  0.67940  0.44999  1.0000
  H   H6423     1.0  0.81626  0.67105  0.55224  1.0000
  H   H6424     1.0  0.78897  0.69606  0.54968  1.0000
  C   C6437     1.0  0.74925  0.78763  0.38234  1.0000
  C   C6438     1.0  0.81607  0.69142  0.38435  1.0000
  N   N536      1.0  0.75905  0.73770  0.50027  1.0000
  H   H6425     1.0  0.80696  0.76778  0.56451  1.0000
  H   H6426     1.0  0.80145  0.78810  0.57487  1.0000
  C   C6439     1.0  0.78293  0.69810  0.38695  1.0000
  C   C6440     1.0  0.82150  0.75655  0.53977  1.0000
  C   C6441     1.0  0.76563  0.68846  0.55543  1.0000
  C   C6442     1.0  0.79453  0.67743  0.57115  1.0000
  C   C6443     1.0  0.75911  0.68342  0.57384  1.0000
  H   H6427     1.0  0.81349  0.70526  0.54622  1.0000
  H   H6428     1.0  0.74322  0.73553  0.50638  1.0000
  C   C6444     1.0  0.75130  0.78609  0.54961  1.0000
  C   C6445     1.0  0.74956  0.79226  0.55713  1.0000
  C   C6446     1.0  0.74371  0.75077  0.49627  1.0000
  H   H6429     1.0  0.74263  0.77781  0.41263  1.0000
  C   C6447     1.0  0.80540  0.76502  0.55001  1.0000
  H   H6430     1.0  0.75697  0.77866  0.55018  1.0000
  H   H6431     1.0  0.75382  0.78953  0.56345  1.0000
  C   C6448     1.0  0.76380  0.72711  0.50546  1.0000
  C   C6449     1.0  0.76158  0.64939  0.38364  1.0000
  C   C6450     1.0  0.81285  0.68626  0.44799  1.0000
  H   H6432     1.0  0.79697  0.76831  0.55119  1.0000
  H   H6433     1.0  0.75373  0.70617  0.56650  1.0000
  H   H6434     1.0  0.77395  0.74188  0.49300  1.0000
  H   H6435     1.0  0.84073  0.74831  0.55334  1.0000
  C   C6451     1.0  0.81667  0.71299  0.45641  1.0000
  C   C6452     1.0  0.75015  0.75761  0.48987  1.0000
  C   C6453     1.0  0.81952  0.71214  0.44588  1.0000
  H   H6436     1.0  0.81039  0.70557  0.47234  1.0000
  H   H6437     1.0  0.78007  0.66477  0.56549  1.0000
  H   H6438     1.0  0.74245  0.71497  0.54047  1.0000
  H   H6439     1.0  0.74381  0.72720  0.42117  1.0000
  C   C6454     1.0  0.78953  0.69111  0.38077  1.0000
  C   C6455     1.0  0.77213  0.64529  0.37959  1.0000
  H   H6440     1.0  0.75743  0.73859  0.55366  1.0000
  C   C6456     1.0  0.74567  0.75497  0.45030  1.0000
  H   H6441     1.0  0.75385  0.75823  0.54810  1.0000
  C   C6457     1.0  0.78498  0.76501  0.38626  1.0000
  C   C6458     1.0  0.82179  0.76024  0.55594  1.0000
  H   H6442     1.0  0.84274  0.75766  0.54091  1.0000
  H   H6443     1.0  0.81302  0.68768  0.43943  1.0000
  H   H6444     1.0  0.84031  0.74482  0.54168  1.0000
  H   H6445     1.0  0.82547  0.75315  0.53293  1.0000
  H   H6446     1.0  0.83045  0.70506  0.56338  1.0000
  C   C6459     1.0  0.75072  0.70038  0.56421  1.0000
  C   C6460     1.0  0.74719  0.73375  0.42087  1.0000
  H   H6447     1.0  0.74554  0.62958  0.37784  1.0000
  C   C6461     1.0  0.74948  0.74305  0.55320  1.0000
  C   C6462     1.0  0.76543  0.74434  0.49395  1.0000
  H   H6448     1.0  0.76647  0.72177  0.49981  1.0000
  C   C6463     1.0  0.80040  0.68889  0.38013  1.0000
  C   C6464     1.0  0.75215  0.77420  0.39791  1.0000
  H   H6449     1.0  0.74544  0.64989  0.38384  1.0000
  H   H6450     1.0  0.79898  0.70616  0.56175  1.0000
  H   H6451     1.0  0.76200  0.74681  0.44714  1.0000
  C   C6465     1.0  0.77385  0.67184  0.56514  1.0000
  C   C6466     1.0  0.75363  0.64659  0.38073  1.0000
  C   C6467     1.0  0.74445  0.78052  0.40419  1.0000
  C   C6468     1.0  0.74178  0.79411  0.38866  1.0000
  H   H6452     1.0  0.81809  0.68993  0.39217  1.0000
  N   N537      1.0  0.81508  0.70540  0.56151  1.0000
  H   H6453     1.0  0.82047  0.70267  0.43500  1.0000
  N   N538      1.0  0.81418  0.69552  0.45083  1.0000
  C   C6469     1.0  0.81276  0.70494  0.46414  1.0000
  H   H6454     1.0  0.82605  0.76004  0.56179  1.0000
  H   H6455     1.0  0.78164  0.69063  0.56860  1.0000
  C   C6470     1.0  0.81831  0.70324  0.44322  1.0000
  S   S2141     1.0  0.74263  0.77173  0.50908  1.0000
  C   C6471     1.0  0.74584  0.74338  0.52638  1.0000
  H   H6456     1.0  0.74740  0.76208  0.45117  1.0000
  C   C6472     1.0  0.75382  0.74643  0.44812  1.0000
  H   H6457     1.0  0.75776  0.73082  0.44504  1.0000
  H   H6458     1.0  0.82939  0.71297  0.37937  1.0000
  H   H6459     1.0  0.77835  0.64751  0.38171  1.0000
  H   H6460     1.0  0.81917  0.69828  0.37903  1.0000
  H   H6461     1.0  0.74406  0.76025  0.38561  1.0000
  H   H6462     1.0  0.74288  0.72927  0.55761  1.0000
  N   N539      1.0  0.78525  0.75446  0.38802  1.0000
  C   C6473     1.0  0.80447  0.70734  0.56571  1.0000
  H   H6463     1.0  0.74896  0.70375  0.55625  1.0000
  H   H6464     1.0  0.80829  0.66477  0.57104  1.0000
  C   C6474     1.0  0.74590  0.78953  0.54127  1.0000
  C   C6475     1.0  0.74260  0.75356  0.38324  1.0000
  C   C6476     1.0  0.78726  0.70273  0.39242  1.0000
  H   H6465     1.0  0.80156  0.70405  0.39574  1.0000
  H   H6466     1.0  0.78024  0.75242  0.40474  1.0000
  H   H6467     1.0  0.77132  0.75018  0.39807  1.0000
  C   C6477     1.0  0.82203  0.70659  0.56667  1.0000
  C   C6478     1.0  0.81838  0.71023  0.57607  1.0000
  C   C6479     1.0  0.74096  0.73719  0.44757  1.0000
  Fe  Fe1069    1.0  0.81397  0.85957  0.72814  1.0000
  S   S2142     1.0  0.82711  0.86735  0.71800  1.0000
  S   S2143     1.0  0.81586  0.85095  0.74438  1.0000
  Fe  Fe1070    1.0  0.80221  0.86444  0.71053  1.0000
  S   S2144     1.0  0.81449  0.87240  0.69887  1.0000
  S   S2145     1.0  0.78712  0.86296  0.70739  1.0000
  Fe  Fe1071    1.0  0.82622  0.85891  0.70612  1.0000
  S   S2146     1.0  0.84001  0.84913  0.69676  1.0000
  Fe  Fe1072    1.0  0.81407  0.88000  0.71199  1.0000
  S   S2147     1.0  0.81238  0.89767  0.70835  1.0000
  S   S2148     1.0  0.81388  0.85034  0.71669  1.0000
  S   S2149     1.0  0.80098  0.87291  0.72320  1.0000
  H   H6468     1.0  0.86384  0.81176  0.73923  1.0000
  Fe  Fe1073    1.0  0.76884  0.85820  0.66225  1.0000
  S   S2150     1.0  0.76040  0.86330  0.64875  1.0000
  S   S2151     1.0  0.78507  0.86017  0.66185  1.0000
  Fe  Fe1074    1.0  0.75527  0.84772  0.65478  1.0000
  H   H6469     1.0  0.84819  0.61903  0.75376  1.0000
  S   S2152     1.0  0.76505  0.84218  0.66724  1.0000
  Fe  Fe1075    1.0  0.79165  0.96082  0.74627  1.0000
  S   S2153     1.0  0.77485  0.96205  0.74555  1.0000
  Fe  Fe1076    1.0  0.94333  0.72315  0.70049  1.0000
  Fe  Fe1077    1.0  0.79780  0.93743  0.74402  1.0000
  S   S2154     1.0  0.78158  0.93731  0.74291  1.0000
  S   S2155     1.0  0.80901  0.92155  0.74424  1.0000
  Fe  Fe1078    1.0  0.78186  0.95327  0.73253  1.0000
  C   C6480     1.0  0.83191  0.58041  0.69208  1.0000
  Fe  Fe1079    1.0  0.77614  0.94579  0.75604  1.0000
  H   H6470     1.0  0.75015  0.93156  0.73661  1.0000
  S   S2156     1.0  0.79859  0.95280  0.73240  1.0000
  S   S2157     1.0  0.79243  0.94513  0.75803  1.0000
  H   H6471     1.0  0.85291  0.81009  0.75034  1.0000
  C   C6481     1.0  0.78847  0.73269  0.59615  1.0000
  C   C6482     1.0  0.74568  0.73407  0.60244  1.0000
  H   H6472     1.0  0.80518  0.50092  0.67147  1.0000
  S   S2158     1.0  0.77058  0.77666  0.59992  1.0000
  S   S2159     1.0  0.88694  0.72150  0.75788  1.0000
  C   C6483     1.0  0.78149  0.82724  0.64894  1.0000
  Fe  Fe1080    1.0  0.87665  0.78341  0.72875  1.0000
  S   S2160     1.0  0.89241  0.77315  0.72410  1.0000
  S   S2161     1.0  0.86218  0.77773  0.73840  1.0000
  Fe  Fe1081    1.0  0.88396  0.80381  0.71841  1.0000
  S   S2162     1.0  0.90070  0.79546  0.71262  1.0000
  S   S2163     1.0  0.87738  0.82103  0.71895  1.0000
  Fe  Fe1082    1.0  0.89289  0.78462  0.70854  1.0000
  S   S2164     1.0  0.89942  0.77688  0.69459  1.0000
  Fe  Fe1083    1.0  0.89906  0.78454  0.72854  1.0000
  S   S2165     1.0  0.91018  0.77852  0.73982  1.0000
  S   S2166     1.0  0.87639  0.79396  0.71286  1.0000
  S   S2167     1.0  0.88308  0.79375  0.73469  1.0000
  Fe  Fe1084    1.0  0.87427  0.75368  0.66512  1.0000
  S   S2168     1.0  0.88631  0.75629  0.65005  1.0000
  S   S2169     1.0  0.86694  0.76580  0.67515  1.0000
  Fe  Fe1085    1.0  0.87391  0.73191  0.66298  1.0000
  S   S2170     1.0  0.88597  0.73267  0.64787  1.0000
  S   S2171     1.0  0.86731  0.71731  0.66955  1.0000
  Fe  Fe1086    1.0  0.89435  0.73954  0.65599  1.0000
  S   S2172     1.0  0.91167  0.73307  0.65643  1.0000
  Fe  Fe1087    1.0  0.87667  0.74915  0.64349  1.0000
  S   S2173     1.0  0.87012  0.75686  0.62870  1.0000
  S   S2174     1.0  0.88295  0.73750  0.67142  1.0000
  S   S2175     1.0  0.86405  0.74786  0.65824  1.0000
  Fe  Fe1088    1.0  0.88184  0.68744  0.72048  1.0000
  S   S2176     1.0  0.88596  0.67413  0.71205  1.0000
  S   S2177     1.0  0.87792  0.70487  0.71415  1.0000
  Fe  Fe1089    1.0  0.88624  0.67321  0.74090  1.0000
  S   S2178     1.0  0.89066  0.65840  0.73449  1.0000
  S   S2179     1.0  0.88740  0.67455  0.75685  1.0000
  Fe  Fe1090    1.0  0.89954  0.66811  0.72024  1.0000
  S   S2180     1.0  0.91600  0.66196  0.71181  1.0000
  Fe  Fe1091    1.0  0.87660  0.66552  0.72684  1.0000
  S   S2181     1.0  0.86355  0.65862  0.72488  1.0000
  S   S2182     1.0  0.89628  0.68209  0.72727  1.0000
  S   S2183     1.0  0.87146  0.67954  0.73460  1.0000
  Fe  Fe1092    1.0  0.96186  0.75407  0.76478  1.0000
  S   S2184     1.0  0.96822  0.76750  0.75307  1.0000
  H   H6473     1.0  0.76442  0.50208  0.76049  1.0000
  Fe  Fe1093    1.0  0.97735  0.73789  0.75342  1.0000
  H   H6474     1.0  0.75382  0.97148  0.73336  1.0000
  C   C6484     1.0  0.75337  0.84754  0.73373  1.0000
  Fe  Fe1094    1.0  0.74578  0.92569  0.70737  1.0000
  C   C6485     1.0  0.78766  0.85379  0.63555  1.0000
  Fe  Fe1095    1.0  0.96766  0.75913  0.74104  1.0000
  S   S2185     1.0  0.96006  0.76728  0.72708  1.0000
  S   S2186     1.0  0.97816  0.74451  0.76672  1.0000
  S   S2187     1.0  0.96078  0.74620  0.75263  1.0000
  S   S2188     1.0  0.93871  0.70953  0.71317  1.0000
  S   S2189     1.0  0.93014  0.73551  0.69410  1.0000
  Fe  Fe1096    1.0  0.95350  0.70013  0.70503  1.0000
  S   S2190     1.0  0.95480  0.68384  0.70283  1.0000
  Fe  Fe1097    1.0  0.94933  0.71266  0.72171  1.0000
  S   S2191     1.0  0.94444  0.71328  0.73887  1.0000
  Fe  Fe1098    1.0  0.75388  0.69699  0.59669  1.0000
  H   H6475     1.0  0.77447  0.57855  0.69763  1.0000
  Fe  Fe1099    1.0  0.76576  0.68716  0.61438  1.0000
  S   S2192     1.0  0.76526  0.67965  0.63158  1.0000
  S   S2193     1.0  0.75659  0.70352  0.60913  1.0000
  Fe  Fe1100    1.0  0.77729  0.62229  0.65845  1.0000
  S   S2194     1.0  0.78073  0.60462  0.66250  1.0000
  S   S2195     1.0  0.77118  0.63016  0.64370  1.0000
  Fe  Fe1101    1.0  0.78350  0.62379  0.67793  1.0000
  S   S2196     1.0  0.78754  0.60628  0.68362  1.0000
  S   S2197     1.0  0.78438  0.63349  0.68867  1.0000
  Fe  Fe1102    1.0  0.79517  0.60612  0.66671  1.0000
  S   S2198     1.0  0.81138  0.59669  0.66174  1.0000
  Fe  Fe1103    1.0  0.77273  0.60657  0.67892  1.0000
  S   S2199     1.0  0.76084  0.59723  0.68917  1.0000
  S   S2200     1.0  0.79245  0.62373  0.66131  1.0000
  S   S2201     1.0  0.76800  0.62416  0.67452  1.0000
  Fe  Fe1104    1.0  0.83536  0.59168  0.72000  1.0000
  S   S2202     1.0  0.82095  0.60333  0.71583  1.0000
  S   S2203     1.0  0.83961  0.57533  0.71635  1.0000
  Fe  Fe1105    1.0  0.84323  0.60838  0.72628  1.0000
  S   S2204     1.0  0.82919  0.62098  0.72280  1.0000
  S   S2205     1.0  0.85645  0.61208  0.73139  1.0000
  Fe  Fe1106    1.0  0.81985  0.60840  0.73071  1.0000
  S   S2206     1.0  0.80386  0.61312  0.74083  1.0000
  Fe  Fe1107    1.0  0.83177  0.61459  0.70845  1.0000
  S   S2207     1.0  0.83170  0.62500  0.69250  1.0000
  S   S2208     1.0  0.83369  0.59606  0.73549  1.0000
  S   S2209     1.0  0.84639  0.60266  0.71131  1.0000
  Fe  Fe1108    1.0  0.80532  0.51971  0.69999  1.0000
  S   S2210     1.0  0.79681  0.52955  0.68727  1.0000
  S   S2211     1.0  0.81013  0.50180  0.70231  1.0000
  Fe  Fe1109    1.0  0.80549  0.53934  0.70799  1.0000
  S   S2212     1.0  0.79701  0.55036  0.69577  1.0000
  S   S2213     1.0  0.80650  0.54764  0.72021  1.0000
  Fe  Fe1110    1.0  0.78695  0.53851  0.69961  1.0000
  S   S2214     1.0  0.76930  0.54347  0.70296  1.0000
  Fe  Fe1111    1.0  0.80775  0.54042  0.68475  1.0000
  S   S2215     1.0  0.81632  0.54745  0.66879  1.0000
  S   S2216     1.0  0.79466  0.52791  0.71262  1.0000
  S   S2217     1.0  0.81716  0.53003  0.69660  1.0000
  C   C6486     1.0  0.75702  0.83036  0.61324  1.0000
  S   S2218     1.0  0.76090  0.54057  0.75130  1.0000
  H   H6476     1.0  0.89185  0.69587  0.67154  1.0000
  H   H6477     1.0  0.83361  0.51436  0.68390  1.0000
  H   H6478     1.0  0.85833  0.80011  0.74275  1.0000
  C   C6487     1.0  0.75533  0.82370  0.63217  1.0000
  C   C6488     1.0  0.74839  0.61898  0.70722  1.0000
  C   C6489     1.0  0.74590  0.91402  0.77240  1.0000
  Fe  Fe1112    1.0  0.88626  0.72526  0.77343  1.0000
  C   C6490     1.0  0.80314  0.49409  0.69899  1.0000
  C   C6491     1.0  0.79398  0.49861  0.69499  1.0000
  C   C6492     1.0  0.78895  0.49228  0.69200  1.0000
  H   H6479     1.0  0.77742  0.84558  0.71776  1.0000
  C   C6493     1.0  0.78133  0.80783  0.59842  1.0000
  C   C6494     1.0  0.91252  0.76107  0.65622  1.0000
  H   H6480     1.0  0.79079  0.50700  0.69415  1.0000
  H   H6481     1.0  0.78188  0.49586  0.68890  1.0000
  H   H6482     1.0  0.75154  0.94163  0.70947  1.0000
  C   C6495     1.0  0.80061  0.72515  0.60799  1.0000
  C   C6496     1.0  0.76584  0.54497  0.71599  1.0000
  C   C6497     1.0  0.75599  0.54355  0.72229  1.0000
  C   C6498     1.0  0.75415  0.54270  0.73321  1.0000
  C   C6499     1.0  0.76211  0.54342  0.73770  1.0000
  C   C6500     1.0  0.77161  0.54564  0.73128  1.0000
  C   C6501     1.0  0.77348  0.54637  0.72045  1.0000
  H   H6483     1.0  0.75002  0.54259  0.71882  1.0000
  H   H6484     1.0  0.79432  0.88963  0.75378  1.0000
  H   H6485     1.0  0.77776  0.54627  0.73473  1.0000
  H   H6486     1.0  0.78100  0.54772  0.71562  1.0000
  C   C6502     1.0  0.83016  0.56796  0.71722  1.0000
  C   C6503     1.0  0.81945  0.57121  0.72154  1.0000
  C   C6504     1.0  0.81225  0.56500  0.72225  1.0000
  C   C6505     1.0  0.81561  0.55568  0.71835  1.0000
  C   C6506     1.0  0.82627  0.55259  0.71377  1.0000
  C   C6507     1.0  0.83352  0.55863  0.71334  1.0000
  H   H6487     1.0  0.81676  0.57835  0.72457  1.0000
  H   H6488     1.0  0.80404  0.56737  0.72593  1.0000
  H   H6489     1.0  0.82900  0.54534  0.71093  1.0000
  H   H6490     1.0  0.84180  0.55601  0.71006  1.0000
  C   C6508     1.0  0.79753  0.63204  0.68936  1.0000
  C   C6509     1.0  0.79987  0.63261  0.69868  1.0000
  C   C6510     1.0  0.81039  0.63052  0.69962  1.0000
  C   C6511     1.0  0.81859  0.62840  0.69106  1.0000
  C   C6512     1.0  0.81626  0.62827  0.68159  1.0000
  C   C6513     1.0  0.80574  0.62986  0.68082  1.0000
  H   H6491     1.0  0.79354  0.63439  0.70526  1.0000
  H   H6492     1.0  0.81216  0.63060  0.70696  1.0000
  H   H6493     1.0  0.82259  0.62657  0.67498  1.0000
  H   H6494     1.0  0.80399  0.62949  0.67359  1.0000
  C   C6514     1.0  0.81224  0.58314  0.66334  1.0000
  C   C6515     1.0  0.82179  0.57692  0.65919  1.0000
  C   C6516     1.0  0.82287  0.56602  0.66068  1.0000
  C   C6517     1.0  0.81448  0.56123  0.66655  1.0000
  C   C6518     1.0  0.80487  0.56744  0.67067  1.0000
  C   C6519     1.0  0.80373  0.57842  0.66903  1.0000
  H   H6495     1.0  0.82837  0.58055  0.65479  1.0000
  H   H6496     1.0  0.83029  0.56127  0.65745  1.0000
  H   H6497     1.0  0.79826  0.56383  0.67495  1.0000
  H   H6498     1.0  0.79631  0.58320  0.67221  1.0000
  C   C6520     1.0  0.80035  0.60493  0.75319  1.0000
  H   H6499     1.0  0.81493  0.59330  0.75207  1.0000
  C   C6521     1.0  0.75542  0.61287  0.70030  1.0000
  C   C6522     1.0  0.75285  0.60402  0.69889  1.0000
  H   H6500     1.0  0.78235  0.57325  0.77561  1.0000
  H   H6501     1.0  0.86113  0.73765  0.64262  1.0000
  H   H6502     1.0  0.76277  0.61509  0.69599  1.0000
  H   H6503     1.0  0.84195  0.82671  0.74338  1.0000
  H   H6504     1.0  0.84387  0.81265  0.71249  1.0000
  C   C6523     1.0  0.76560  0.66603  0.63534  1.0000
  C   C6524     1.0  0.76668  0.66061  0.64558  1.0000
  C   C6525     1.0  0.76821  0.64956  0.64833  1.0000
  C   C6526     1.0  0.76838  0.64397  0.64091  1.0000
  C   C6527     1.0  0.76676  0.64941  0.63087  1.0000
  C   C6528     1.0  0.76551  0.66040  0.62806  1.0000
  H   H6505     1.0  0.76669  0.66494  0.65127  1.0000
  H   H6506     1.0  0.76942  0.64539  0.65612  1.0000
  H   H6507     1.0  0.76686  0.64510  0.62512  1.0000
  H   H6508     1.0  0.76467  0.66444  0.62019  1.0000
  C   C6529     1.0  0.79629  0.71613  0.61157  1.0000
  C   C6530     1.0  0.89952  0.71252  0.68153  1.0000
  H   H6509     1.0  0.79938  0.70969  0.61747  1.0000
  H   H6510     1.0  0.78504  0.70826  0.60991  1.0000
  H   H6511     1.0  0.89604  0.68382  0.68818  1.0000
  H   H6512     1.0  0.74293  0.90248  0.68282  1.0000
  H   H6513     1.0  0.79905  0.82785  0.66268  1.0000
  C   C6531     1.0  0.80757  0.71246  0.58027  1.0000
  H   H6514     1.0  0.76357  0.73924  0.60228  1.0000
  C   C6532     1.0  0.97234  0.71725  0.74955  1.0000
  C   C6533     1.0  0.95524  0.71417  0.74335  1.0000
  C   C6534     1.0  0.95355  0.71802  0.75246  1.0000
  C   C6535     1.0  0.96208  0.71967  0.75549  1.0000
  H   H6515     1.0  0.94565  0.71999  0.75702  1.0000
  H   H6516     1.0  0.96071  0.72293  0.76237  1.0000
  C   C6536     1.0  0.86165  0.64556  0.72731  1.0000
  C   C6537     1.0  0.85246  0.64412  0.72528  1.0000
  C   C6538     1.0  0.85085  0.63395  0.72634  1.0000
  C   C6539     1.0  0.85832  0.62505  0.72967  1.0000
  C   C6540     1.0  0.86743  0.62647  0.73188  1.0000
  C   C6541     1.0  0.86913  0.63667  0.73064  1.0000
  H   H6517     1.0  0.84663  0.65095  0.72268  1.0000
  H   H6518     1.0  0.84379  0.63302  0.72464  1.0000
  H   H6519     1.0  0.87326  0.61964  0.73449  1.0000
  H   H6520     1.0  0.87625  0.63765  0.73222  1.0000
  C   C6542     1.0  0.92630  0.66875  0.70912  1.0000
  C   C6543     1.0  0.92455  0.67929  0.70991  1.0000
  C   C6544     1.0  0.93318  0.68421  0.70776  1.0000
  C   C6545     1.0  0.94355  0.67851  0.70500  1.0000
  C   C6546     1.0  0.94519  0.66804  0.70418  1.0000
  C   C6547     1.0  0.93664  0.66322  0.70617  1.0000
  H   H6521     1.0  0.91660  0.68365  0.71212  1.0000
  H   H6522     1.0  0.93182  0.69233  0.70833  1.0000
  H   H6523     1.0  0.95313  0.66360  0.70200  1.0000
  H   H6524     1.0  0.93807  0.65511  0.70548  1.0000
  C   C6548     1.0  0.86707  0.74987  0.62089  1.0000
  C   C6549     1.0  0.85923  0.75491  0.61500  1.0000
  C   C6550     1.0  0.85651  0.86932  0.70183  1.0000
  C   C6551     1.0  0.87002  0.73438  0.61364  1.0000
  C   C6552     1.0  0.87242  0.73955  0.62023  1.0000
  H   H6525     1.0  0.85514  0.76294  0.61539  1.0000
  H   H6526     1.0  0.87433  0.72646  0.61301  1.0000
  H   H6527     1.0  0.87858  0.73565  0.62458  1.0000
  C   C6553     1.0  0.86777  0.71387  0.68289  1.0000
  C   C6554     1.0  0.86950  0.70328  0.68811  1.0000
  C   C6555     1.0  0.87203  0.70046  0.69808  1.0000
  C   C6556     1.0  0.87292  0.70823  0.70271  1.0000
  C   C6557     1.0  0.87040  0.71885  0.69782  1.0000
  C   C6558     1.0  0.86766  0.72166  0.68799  1.0000
  H   H6528     1.0  0.86939  0.69724  0.68425  1.0000
  H   H6529     1.0  0.87360  0.69228  0.70199  1.0000
  H   H6530     1.0  0.87076  0.72490  0.70151  1.0000
  H   H6531     1.0  0.86561  0.72988  0.68427  1.0000
  C   C6559     1.0  0.91636  0.73266  0.66763  1.0000
  C   C6560     1.0  0.91001  0.73772  0.67566  1.0000
  C   C6561     1.0  0.91422  0.73816  0.68397  1.0000
  C   C6562     1.0  0.92477  0.73342  0.68443  1.0000
  C   C6563     1.0  0.93101  0.72793  0.67668  1.0000
  C   C6564     1.0  0.92683  0.72763  0.66826  1.0000
  H   H6532     1.0  0.90196  0.74160  0.67527  1.0000
  H   H6533     1.0  0.90934  0.74234  0.69000  1.0000
  H   H6534     1.0  0.93917  0.72427  0.67693  1.0000
  H   H6535     1.0  0.93180  0.72366  0.66210  1.0000
  C   C6565     1.0  0.88999  0.77338  0.69005  1.0000
  C   C6566     1.0  0.89310  0.76491  0.68496  1.0000
  C   C6567     1.0  0.88604  0.76257  0.68036  1.0000
  C   C6568     1.0  0.87575  0.76854  0.68106  1.0000
  C   C6569     1.0  0.87250  0.77680  0.68647  1.0000
  C   C6570     1.0  0.87963  0.77925  0.69092  1.0000
  H   H6536     1.0  0.90102  0.76023  0.68441  1.0000
  H   H6537     1.0  0.88855  0.75624  0.67618  1.0000
  H   H6538     1.0  0.86452  0.78146  0.68699  1.0000
  H   H6539     1.0  0.87718  0.78589  0.69470  1.0000
  C   C6571     1.0  0.92393  0.77459  0.73568  1.0000
  C   C6572     1.0  0.92916  0.77720  0.72517  1.0000
  C   C6573     1.0  0.94028  0.77481  0.72250  1.0000
  C   C6574     1.0  0.94616  0.76986  0.73034  1.0000
  C   C6575     1.0  0.94086  0.76706  0.74078  1.0000
  C   C6576     1.0  0.92983  0.76931  0.74340  1.0000
  H   H6540     1.0  0.92466  0.78130  0.71916  1.0000
  H   H6541     1.0  0.94433  0.77700  0.71440  1.0000
  H   H6542     1.0  0.94524  0.76348  0.74693  1.0000
  H   H6543     1.0  0.92584  0.76727  0.75154  1.0000
  C   C6577     1.0  0.88662  0.70846  0.75800  1.0000
  H   H6544     1.0  0.91803  0.78569  0.77109  1.0000
  C   C6578     1.0  0.88803  0.68991  0.76649  1.0000
  C   C6579     1.0  0.88655  0.68769  0.75746  1.0000
  C   C6580     1.0  0.88503  0.69592  0.74875  1.0000
  C   C6581     1.0  0.88521  0.70622  0.74897  1.0000
  H   H6545     1.0  0.75370  0.68516  0.58105  1.0000
  C   C6582     1.0  0.96524  0.74908  0.70689  1.0000
  H   H6546     1.0  0.88360  0.69440  0.74185  1.0000
  H   H6547     1.0  0.88414  0.71247  0.74213  1.0000
  Fe  Fe1113    1.0  0.75958  0.79209  0.59568  1.0000
  C   C6583     1.0  0.75268  0.95513  0.73756  1.0000
  C   C6584     1.0  0.79165  0.78047  0.61263  1.0000
  H   H6548     1.0  0.76567  0.75593  0.60491  1.0000
  C   C6585     1.0  0.85610  0.76809  0.77007  1.0000
  C   C6586     1.0  0.85487  0.77205  0.75963  1.0000
  C   C6587     1.0  0.86373  0.77284  0.75143  1.0000
  C   C6588     1.0  0.87384  0.76957  0.75365  1.0000
  C   C6589     1.0  0.87508  0.76527  0.76404  1.0000
  H   H6549     1.0  0.78857  0.77397  0.61820  1.0000
  H   H6550     1.0  0.84705  0.77456  0.75793  1.0000
  H   H6551     1.0  0.88073  0.77022  0.74736  1.0000
  C   C6590     1.0  0.83265  0.50755  0.68133  1.0000
  C   C6591     1.0  0.75571  0.82218  0.62211  1.0000
  C   C6592     1.0  0.83903  0.89374  0.71005  1.0000
  H   H6552     1.0  0.78116  0.60863  0.74214  1.0000
  S   S2219     1.0  0.75110  0.51918  0.77382  1.0000
  C   C6593     1.0  0.77038  0.90917  0.69086  1.0000
  C   C6594     1.0  0.77837  0.61158  0.73484  1.0000
  H   H6553     1.0  0.83016  0.83629  0.73108  1.0000
  C   C6595     1.0  0.91511  0.68072  0.74427  1.0000
  H   H6554     1.0  0.80865  0.58797  0.68462  1.0000
  H   H6555     1.0  0.78461  0.93609  0.72159  1.0000
  C   C6596     1.0  0.75616  0.83341  0.63355  1.0000
  C   C6597     1.0  0.75749  0.84160  0.62470  1.0000
  C   C6598     1.0  0.80731  0.59575  0.75694  1.0000
  C   C6599     1.0  0.77475  0.89464  0.77490  1.0000
  C   C6600     1.0  0.76472  0.83985  0.71594  1.0000
  H   H6556     1.0  0.78499  0.61498  0.75665  1.0000
  C   C6601     1.0  0.80164  0.76458  0.59233  1.0000
  C   C6602     1.0  0.85544  0.71977  0.63386  1.0000
  C   C6603     1.0  0.75663  0.74543  0.60369  1.0000
  C   C6604     1.0  0.74080  0.97110  0.69953  1.0000
  H   H6557     1.0  0.76817  0.92289  0.75803  1.0000
  C   C6605     1.0  0.75128  0.93667  0.74129  1.0000
  C   C6606     1.0  0.85012  0.84110  0.70322  1.0000
  C   C6607     1.0  0.85181  0.84342  0.71206  1.0000
  C   C6608     1.0  0.86019  0.83719  0.71681  1.0000
  C   C6609     1.0  0.86674  0.82841  0.71296  1.0000
  C   C6610     1.0  0.86490  0.82593  0.70427  1.0000
  C   C6611     1.0  0.85671  0.83237  0.69932  1.0000
  H   H6558     1.0  0.84677  0.85010  0.71516  1.0000
  H   H6559     1.0  0.86159  0.83915  0.72353  1.0000
  H   H6560     1.0  0.86998  0.81924  0.70118  1.0000
  H   H6561     1.0  0.85547  0.83055  0.69245  1.0000
  C   C6612     1.0  0.78728  0.86155  0.69474  1.0000
  C   C6613     1.0  0.77879  0.85838  0.69328  1.0000
  C   C6614     1.0  0.77844  0.85741  0.68331  1.0000
  C   C6615     1.0  0.78626  0.86020  0.67455  1.0000
  C   C6616     1.0  0.79485  0.86332  0.67597  1.0000
  C   C6617     1.0  0.79541  0.86389  0.68608  1.0000
  H   H6562     1.0  0.77240  0.85669  0.69985  1.0000
  H   H6563     1.0  0.77210  0.85445  0.68245  1.0000
  H   H6564     1.0  0.80100  0.86539  0.66925  1.0000
  H   H6565     1.0  0.80203  0.86632  0.68711  1.0000
  C   C6618     1.0  0.81058  0.90404  0.71877  1.0000
  C   C6619     1.0  0.81331  0.89845  0.72837  1.0000
  C   C6620     1.0  0.81287  0.90389  0.73611  1.0000
  C   C6621     1.0  0.80928  0.91488  0.73449  1.0000
  C   C6622     1.0  0.80614  0.92041  0.72507  1.0000
  C   C6623     1.0  0.80694  0.91502  0.71718  1.0000
  H   H6566     1.0  0.81606  0.88998  0.72972  1.0000
  H   H6567     1.0  0.81537  0.89956  0.74335  1.0000
  H   H6568     1.0  0.80343  0.92888  0.72372  1.0000
  H   H6569     1.0  0.80480  0.91941  0.70979  1.0000
  C   C6624     1.0  0.80471  0.85416  0.75412  1.0000
  C   C6625     1.0  0.79476  0.85871  0.75167  1.0000
  C   C6626     1.0  0.78597  0.86129  0.75966  1.0000
  C   C6627     1.0  0.78723  0.85938  0.77002  1.0000
  N   N540      1.0  0.76354  0.84878  0.72958  1.0000
  C   C6628     1.0  0.80586  0.85213  0.76451  1.0000
  H   H6570     1.0  0.79381  0.86010  0.74368  1.0000
  H   H6571     1.0  0.77829  0.86477  0.75779  1.0000
  C   C6629     1.0  0.75669  0.93021  0.76998  1.0000
  H   H6572     1.0  0.81353  0.84860  0.76642  1.0000
  S   S2220     1.0  0.76171  0.68034  0.60285  1.0000
  H   H6573     1.0  0.89837  0.78500  0.66079  1.0000
  C   C6630     1.0  0.78150  0.83712  0.64212  1.0000
  H   H6574     1.0  0.75899  0.84644  0.60781  1.0000
  H   H6575     1.0  0.74988  0.77016  0.60845  1.0000
  C   C6631     1.0  0.79775  0.97717  0.71346  1.0000
  C   C6632     1.0  0.79409  0.84009  0.64983  1.0000
  H   H6576     1.0  0.77638  0.79067  0.61260  1.0000
  H   H6577     1.0  0.77910  0.51149  0.75644  1.0000
  H   H6578     1.0  0.74531  0.61046  0.65980  1.0000
  H   H6579     1.0  0.86029  0.62323  0.69345  1.0000
  N   N541      1.0  0.74778  0.94784  0.73667  1.0000
  H   H6580     1.0  0.98060  0.73275  0.72356  1.0000
  Fe  Fe1114    1.0  0.74407  0.87055  0.76379  1.0000
  C   C6633     1.0  0.91914  0.75892  0.66330  1.0000
  H   H6581     1.0  0.92717  0.77000  0.67802  1.0000
  C   C6634     1.0  0.94143  0.78433  0.75462  1.0000
  H   H6582     1.0  0.80777  0.77173  0.61024  1.0000
  H   H6583     1.0  0.81986  0.49567  0.68083  1.0000
  H   H6584     1.0  0.91601  0.79217  0.75260  1.0000
  H   H6585     1.0  0.75735  0.61536  0.65566  1.0000
  C   C6635     1.0  0.77711  0.90377  0.77594  1.0000
  H   H6586     1.0  0.76918  0.83698  0.70890  1.0000
  H   H6587     1.0  0.81231  0.53180  0.65941  1.0000
  H   H6588     1.0  0.75111  0.90187  0.74785  1.0000
  Fe  Fe1115    1.0  0.74607  0.80672  0.58065  1.0000
  H   H6589     1.0  0.74535  0.96375  0.69741  1.0000
  S   S2221     1.0  0.76281  0.94065  0.76905  1.0000
  H   H6590     1.0  0.82684  0.52623  0.66898  1.0000
  H   H6591     1.0  0.76254  0.86004  0.73852  1.0000
  C   C6636     1.0  0.87025  0.64610  0.70247  1.0000
  H   H6592     1.0  0.98619  0.70411  0.68010  1.0000
  H   H6593     1.0  0.77129  0.57036  0.72287  1.0000
  H   H6594     1.0  0.77357  0.97792  0.70131  1.0000
  C   C6637     1.0  0.75880  0.94034  0.71202  1.0000
  H   H6595     1.0  0.90912  0.71649  0.69405  1.0000
  C   C6638     1.0  0.78097  0.88952  0.76690  1.0000
  C   C6639     1.0  0.74899  0.76282  0.60722  1.0000
  C   C6640     1.0  0.89481  0.69860  0.67684  1.0000
  N   N542      1.0  0.82405  0.51070  0.67561  1.0000
  S   S2222     1.0  0.81911  0.77113  0.57936  1.0000
  H   H6596     1.0  0.74391  0.90489  0.72584  1.0000
  C   C6641     1.0  0.79912  0.79681  0.59752  1.0000
  H   H6597     1.0  0.75596  0.62140  0.72574  1.0000
  H   H6598     1.0  0.78101  0.80856  0.59010  1.0000
  H   H6599     1.0  0.96571  0.75317  0.69873  1.0000
  H   H6600     1.0  0.79809  0.90582  0.75592  1.0000
  H   H6601     1.0  0.75022  0.63350  0.65580  1.0000
  C   C6642     1.0  0.75451  0.57246  0.70755  1.0000
  H   H6602     1.0  0.97692  0.67890  0.70520  1.0000
  C   C6643     1.0  0.81828  0.50358  0.67607  1.0000
  C   C6644     1.0  0.78945  0.97706  0.70910  1.0000
  S   S2223     1.0  0.98432  0.75000  0.74047  1.0000
  C   C6645     1.0  0.79084  0.76578  0.59668  1.0000
  N   N543      1.0  0.79188  0.65780  0.63183  1.0000
  C   C6646     1.0  0.79309  0.64718  0.63283  1.0000
  C   C6647     1.0  0.79113  0.66457  0.62234  1.0000
  C   C6648     1.0  0.79325  0.64313  0.62424  1.0000
  C   C6649     1.0  0.79135  0.66077  0.61357  1.0000
  C   C6650     1.0  0.79236  0.64999  0.61456  1.0000
  C   C6651     1.0  0.79176  0.66197  0.64086  1.0000
  H   H6603     1.0  0.79359  0.64180  0.64036  1.0000
  H   H6604     1.0  0.79008  0.67299  0.62158  1.0000
  H   H6605     1.0  0.79378  0.63475  0.62521  1.0000
  H   H6606     1.0  0.79058  0.66617  0.60610  1.0000
  H   H6607     1.0  0.79234  0.64700  0.60786  1.0000
  H   H6608     1.0  0.79975  0.66302  0.64051  1.0000
  H   H6609     1.0  0.78607  0.66970  0.64088  1.0000
  H   H6610     1.0  0.78914  0.65661  0.64844  1.0000
  N   N544      1.0  0.84367  0.88525  0.70423  1.0000
  C   C6652     1.0  0.83922  0.88457  0.69649  1.0000
  C   C6653     1.0  0.84341  0.87629  0.69114  1.0000
  C   C6654     1.0  0.85218  0.86870  0.69377  1.0000
  H   H6611     1.0  0.83228  0.89034  0.69452  1.0000
  H   H6612     1.0  0.83976  0.87560  0.68516  1.0000
  H   H6613     1.0  0.85542  0.86216  0.68977  1.0000
  H   H6614     1.0  0.83397  0.89075  0.71767  1.0000
  H   H6615     1.0  0.75544  0.50845  0.72712  1.0000
  N   N545      1.0  0.87321  0.74691  0.73085  1.0000
  C   C6655     1.0  0.87322  0.75510  0.72225  1.0000
  C   C6656     1.0  0.87378  0.73692  0.72983  1.0000
  C   C6657     1.0  0.87402  0.75335  0.71226  1.0000
  C   C6658     1.0  0.87455  0.73488  0.71996  1.0000
  C   C6659     1.0  0.87469  0.74318  0.71112  1.0000
  C   C6660     1.0  0.87217  0.74903  0.74123  1.0000
  H   H6616     1.0  0.87254  0.76307  0.72309  1.0000
  H   H6617     1.0  0.87359  0.73045  0.73668  1.0000
  H   H6618     1.0  0.87405  0.75985  0.70544  1.0000
  H   H6619     1.0  0.87496  0.72694  0.71919  1.0000
  H   H6620     1.0  0.87524  0.74177  0.70341  1.0000
  H   H6621     1.0  0.87420  0.74167  0.74715  1.0000
  H   H6622     1.0  0.87754  0.75420  0.74076  1.0000
  H   H6623     1.0  0.86394  0.75309  0.74411  1.0000
  H   H6624     1.0  0.77637  0.82238  0.64861  1.0000
  C   C6661     1.0  0.80620  0.78741  0.60053  1.0000
  H   H6625     1.0  0.75780  0.95693  0.71033  1.0000
  C   C6662     1.0  0.76928  0.84482  0.72093  1.0000
  H   H6626     1.0  0.77922  0.88246  0.76598  1.0000
  H   H6627     1.0  0.76330  0.60824  0.75148  1.0000
  C   C6663     1.0  0.80443  0.58975  0.76713  1.0000
  H   H6628     1.0  0.84596  0.59985  0.75077  1.0000
  C   C6664     1.0  0.82462  0.61610  0.75237  1.0000
  S   S2224     1.0  0.98273  0.72098  0.75214  1.0000
  H   H6629     1.0  0.83398  0.59711  0.75983  1.0000
  S   S2225     1.0  0.81858  0.74222  0.58330  1.0000
  C   C6665     1.0  0.84549  0.73717  0.63432  1.0000
  C   C6666     1.0  0.83971  0.73648  0.62740  1.0000
  C   C6667     1.0  0.84988  0.71886  0.62686  1.0000
  C   C6668     1.0  0.84194  0.72726  0.62365  1.0000
  H   H6630     1.0  0.84393  0.74446  0.63700  1.0000
  H   H6631     1.0  0.83375  0.74315  0.62472  1.0000
  H   H6632     1.0  0.85186  0.71179  0.62371  1.0000
  H   H6633     1.0  0.83773  0.72672  0.61803  1.0000
  H   H6634     1.0  0.77451  0.85796  0.72891  1.0000
  C   C6669     1.0  0.74595  0.97909  0.69918  1.0000
  H   H6635     1.0  0.94847  0.75449  0.71132  1.0000
  H   H6636     1.0  0.87729  0.64648  0.70472  1.0000
  H   H6637     1.0  0.98199  0.71118  0.73605  1.0000
  C   C6670     1.0  0.74960  0.96580  0.73300  1.0000
  Fe  Fe1116    1.0  0.74294  0.88750  0.77523  1.0000
  C   C6671     1.0  0.74500  0.57314  0.72536  1.0000
  H   H6638     1.0  0.78067  0.56711  0.70613  1.0000
  H   H6639     1.0  0.97354  0.69247  0.68927  1.0000
  C   C6672     1.0  0.78479  0.78995  0.60939  1.0000
  C   C6673     1.0  0.86288  0.65533  0.69983  1.0000
  C   C6674     1.0  0.74487  0.90792  0.74435  1.0000
  H   H6640     1.0  0.80466  0.71538  0.58750  1.0000
  Fe  Fe1117    1.0  0.74774  0.53242  0.76021  1.0000
  C   C6675     1.0  0.79040  0.60787  0.75948  1.0000
  C   C6676     1.0  0.75126  0.61271  0.66259  1.0000
  C   C6677     1.0  0.86213  0.73939  0.60782  1.0000
  S   S2226     1.0  0.78876  0.67264  0.58430  1.0000
  C   C6678     1.0  0.97409  0.71297  0.74073  1.0000
  C   C6679     1.0  0.96554  0.71159  0.73755  1.0000
  H   H6641     1.0  0.76741  0.66864  0.58184  1.0000
  C   C6680     1.0  0.90502  0.77052  0.65527  1.0000
  H   H6642     1.0  0.85533  0.80310  0.72518  1.0000
  H   H6643     1.0  0.85065  0.75363  0.60408  1.0000
  C   C6681     1.0  0.82534  0.63452  0.74755  1.0000
  H   H6644     1.0  0.78554  0.88488  0.69593  1.0000
  C   C6682     1.0  0.74498  0.57329  0.71499  1.0000
  H   H6645     1.0  0.78292  0.91084  0.70190  1.0000
  C   C6683     1.0  0.78824  0.71529  0.60724  1.0000
  N   N546      1.0  0.85327  0.72889  0.63742  1.0000
  C   C6684     1.0  0.80718  0.48318  0.69998  1.0000
  H   H6646     1.0  0.75016  0.62608  0.70797  1.0000
  S   S2227     1.0  0.75538  0.88068  0.76272  1.0000
  H   H6647     1.0  0.83403  0.90053  0.70561  1.0000
  C   C6685     1.0  0.83380  0.59025  0.69161  1.0000
  C   C6686     1.0  0.85210  0.87767  0.70705  1.0000
  C   C6687     1.0  0.84972  0.81031  0.72656  1.0000
  H   H6648     1.0  0.79951  0.74066  0.59801  1.0000
  H   H6649     1.0  0.86665  0.72384  0.64473  1.0000
  N   N547      1.0  0.76778  0.61468  0.73493  1.0000
  H   H6650     1.0  0.79030  0.97080  0.70509  1.0000
  S   S2228     1.0  0.78114  0.69051  0.60409  1.0000
  C   C6688     1.0  0.75798  0.84005  0.61461  1.0000
  H   H6651     1.0  0.86166  0.71324  0.63625  1.0000
  C   C6689     1.0  0.85668  0.74966  0.60859  1.0000
  C   C6690     1.0  0.84321  0.81564  0.71940  1.0000
  C   C6691     1.0  0.85640  0.80879  0.74223  1.0000
  Fe  Fe1118    1.0  0.77153  0.70617  0.59770  1.0000
  H   H6652     1.0  0.84525  0.89678  0.71158  1.0000
  S   S2229     1.0  0.81153  0.72566  0.61240  1.0000
  H   H6653     1.0  0.74891  0.85039  0.74077  1.0000
  H   H6654     1.0  0.85425  0.72864  0.65295  1.0000
  N   N548      1.0  0.84913  0.81421  0.73513  1.0000
  C   C6692     1.0  0.85909  0.72977  0.64480  1.0000
  S   S2230     1.0  0.96387  0.70193  0.71472  1.0000
  H   H6655     1.0  0.83120  0.82937  0.71540  1.0000
  H   H6656     1.0  0.79418  0.60972  0.72526  1.0000
  H   H6657     1.0  0.96698  0.70867  0.73054  1.0000
  N   N549      1.0  0.83462  0.61347  0.75421  1.0000
  H   H6658     1.0  0.83092  0.50147  0.68862  1.0000
  H   H6659     1.0  0.85539  0.87801  0.71344  1.0000
  C   C6693     1.0  0.83970  0.60238  0.75743  1.0000
  C   C6694     1.0  0.83609  0.82500  0.72105  1.0000
  S   S2231     1.0  0.85930  0.73249  0.59977  1.0000
  H   H6660     1.0  0.91938  0.76034  0.68530  1.0000
  C   C6695     1.0  0.84225  0.82345  0.73675  1.0000
  H   H6661     1.0  0.91768  0.71239  0.76696  1.0000
  C   C6696     1.0  0.76008  0.61422  0.74500  1.0000
  H   H6662     1.0  0.93084  0.77928  0.77385  1.0000
  H   H6663     1.0  0.78802  0.61663  0.70837  1.0000
  Fe  Fe1119    1.0  0.96674  0.71636  0.70233  1.0000
  H   H6664     1.0  0.76381  0.89704  0.67515  1.0000
  H   H6665     1.0  0.88291  0.76265  0.76573  1.0000
  H   H6666     1.0  0.78897  0.56134  0.77085  1.0000
  C   C6697     1.0  0.76766  0.89814  0.68078  1.0000
  H   H6667     1.0  0.82801  0.60703  0.68787  1.0000
  H   H6668     1.0  0.77683  0.88221  0.68312  1.0000
  S   S2232     1.0  0.74725  0.61471  0.77400  1.0000
  C   C6698     1.0  0.83556  0.82893  0.72980  1.0000
  C   C6699     1.0  0.78276  0.90242  0.70282  1.0000
  H   H6669     1.0  0.92410  0.71131  0.75354  1.0000
  H   H6670     1.0  0.90800  0.66487  0.74363  1.0000
  C   C6700     1.0  0.77498  0.88983  0.68523  1.0000
  H   H6671     1.0  0.75953  0.91436  0.68026  1.0000
  H   H6672     1.0  0.84080  0.59078  0.69381  1.0000
  H   H6673     1.0  0.75071  0.83492  0.71617  1.0000
  C   C6701     1.0  0.91702  0.71531  0.75857  1.0000
  H   H6674     1.0  0.90986  0.71316  0.75785  1.0000
  C   C6702     1.0  0.76529  0.90787  0.68363  1.0000
  C   C6703     1.0  0.83552  0.63178  0.74946  1.0000
  C   C6704     1.0  0.84010  0.62114  0.75271  1.0000
  Fe  Fe1120    1.0  0.77654  0.68471  0.59223  1.0000
  C   C6705     1.0  0.91668  0.66346  0.74046  1.0000
  H   H6675     1.0  0.93537  0.66707  0.72921  1.0000
  H   H6676     1.0  0.91809  0.66127  0.73274  1.0000
  H   H6677     1.0  0.90540  0.72927  0.74558  1.0000
  H   H6678     1.0  0.92051  0.65672  0.74596  1.0000
  C   C6706     1.0  0.79848  0.78188  0.58096  1.0000
  H   H6679     1.0  0.98187  0.74205  0.70477  1.0000
  H   H6680     1.0  0.75494  0.81470  0.62125  1.0000
  H   H6681     1.0  0.75985  0.93474  0.74125  1.0000
  C   C6707     1.0  0.97362  0.73762  0.72080  1.0000
  C   C6708     1.0  0.77991  0.89141  0.69245  1.0000
  C   C6709     1.0  0.82656  0.59936  0.68839  1.0000
  C   C6710     1.0  0.79156  0.90270  0.76131  1.0000
  H   H6682     1.0  0.93143  0.75665  0.67613  1.0000
  N   N550      1.0  0.92089  0.67280  0.73921  1.0000
  H   H6683     1.0  0.88920  0.68359  0.77326  1.0000
  N   N551      1.0  0.78857  0.79800  0.60198  1.0000
  H   H6684     1.0  0.76845  0.91675  0.69307  1.0000
  N   N552      1.0  0.91624  0.72674  0.75548  1.0000
  C   C6711     1.0  0.90991  0.73283  0.74870  1.0000
  H   H6685     1.0  0.81185  0.60560  0.68321  1.0000
  H   H6686     1.0  0.82390  0.71153  0.57992  1.0000
  N   N553      1.0  0.77769  0.90103  0.69506  1.0000
  C   C6712     1.0  0.93081  0.67333  0.73329  1.0000
  H   H6687     1.0  0.90733  0.68024  0.74907  1.0000
  H   H6688     1.0  0.75286  0.61204  0.74446  1.0000
  C   C6713     1.0  0.81747  0.59855  0.68586  1.0000
  H   H6689     1.0  0.80127  0.51914  0.66069  1.0000
  C   C6714     1.0  0.92575  0.78074  0.76809  1.0000
  H   H6690     1.0  0.78255  0.92430  0.76605  1.0000
  H   H6691     1.0  0.90371  0.74866  0.74077  1.0000
  C   C6715     1.0  0.92213  0.73120  0.75918  1.0000
  H   H6692     1.0  0.92730  0.72633  0.76437  1.0000
  C   C6716     1.0  0.90893  0.74378  0.74592  1.0000
  H   H6693     1.0  0.92420  0.79978  0.73441  1.0000
  C   C6717     1.0  0.75718  0.51596  0.72739  1.0000
  S   S2233     1.0  0.76832  0.70069  0.58485  1.0000
  N   N554      1.0  0.78550  0.90762  0.76925  1.0000
  C   C6718     1.0  0.98783  0.69805  0.68696  1.0000
  C   C6719     1.0  0.76086  0.92255  0.76378  1.0000
  S   S2234     1.0  0.75525  0.86538  0.67366  1.0000
  C   C6720     1.0  0.81573  0.58856  0.68662  1.0000
  H   H6694     1.0  0.83764  0.57340  0.69455  1.0000
  C   C6721     1.0  0.78943  0.89355  0.76005  1.0000
  C   C6722     1.0  0.92441  0.76312  0.67754  1.0000
  C   C6723     1.0  0.92135  0.74212  0.75659  1.0000
  C   C6724     1.0  0.77159  0.61950  0.71600  1.0000
  C   C6725     1.0  0.79715  0.85482  0.77243  1.0000
  H   H6695     1.0  0.84015  0.50436  0.67623  1.0000
  H   H6696     1.0  0.92475  0.75143  0.66418  1.0000
  N   N555      1.0  0.82296  0.57966  0.68961  1.0000
  C   C6726     1.0  0.91460  0.74843  0.75001  1.0000
  H   H6697     1.0  0.92581  0.74564  0.75981  1.0000
  H   H6698     1.0  0.74682  0.93477  0.74954  1.0000
  H   H6699     1.0  0.77835  0.89967  0.71091  1.0000
  H   H6700     1.0  0.79109  0.89793  0.70196  1.0000
  H   H6701     1.0  0.77395  0.52405  0.72505  1.0000
  H   H6702     1.0  0.84786  0.66189  0.69533  1.0000
  H   H6703     1.0  0.83999  0.63781  0.74813  1.0000
  N   N556      1.0  0.76367  0.51417  0.73513  1.0000
  C   C6727     1.0  0.91912  0.68958  0.74330  1.0000
  C   C6728     1.0  0.93511  0.68205  0.73219  1.0000
  H   H6704     1.0  0.91369  0.75691  0.74814  1.0000
  H   H6705     1.0  0.75808  0.84915  0.62561  1.0000
  S   S2235     1.0  0.95263  0.72720  0.70987  1.0000
  C   C6729     1.0  0.75552  0.91440  0.76505  1.0000
  H   H6706     1.0  0.74670  0.54123  0.73815  1.0000
  C   C6730     1.0  0.80242  0.77921  0.60815  1.0000
  H   H6707     1.0  0.75868  0.90860  0.76019  1.0000
  C   C6731     1.0  0.77193  0.51911  0.73276  1.0000
  H   H6708     1.0  0.75441  0.50420  0.74687  1.0000
  C   C6732     1.0  0.92921  0.69022  0.73724  1.0000
  H   H6709     1.0  0.91439  0.69588  0.74722  1.0000
  H   H6710     1.0  0.94290  0.68252  0.72730  1.0000
  C   C6733     1.0  0.77732  0.93728  0.71906  1.0000
  H   H6711     1.0  0.78223  0.79032  0.58279  1.0000
  C   C6734     1.0  0.77369  0.57061  0.70247  1.0000
  C   C6735     1.0  0.94629  0.78854  0.74434  1.0000
  H   H6712     1.0  0.77840  0.92067  0.72071  1.0000
  S   S2236     1.0  0.94603  0.75788  0.77584  1.0000
  H   H6713     1.0  0.82782  0.56283  0.69166  1.0000
  C   C6736     1.0  0.82088  0.56931  0.69036  1.0000
  H   H6714     1.0  0.81415  0.56776  0.69701  1.0000
  S   S2237     1.0  0.95769  0.71357  0.69173  1.0000
  H   H6715     1.0  0.75540  0.60562  0.66755  1.0000
  N   N557      1.0  0.91830  0.76597  0.66928  1.0000
  H   H6716     1.0  0.75920  0.95267  0.74157  1.0000
  C   C6737     1.0  0.77386  0.92856  0.71848  1.0000
  C   C6738     1.0  0.79651  0.73352  0.60047  1.0000
  C   C6739     1.0  0.76103  0.50803  0.74492  1.0000
  H   H6717     1.0  0.74965  0.52160  0.72954  1.0000
  H   H6718     1.0  0.78416  0.98139  0.76337  1.0000
  Fe  Fe1121    1.0  0.74642  0.86927  0.66090  1.0000
  H   H6719     1.0  0.78396  0.81476  0.59901  1.0000
  S   S2238     1.0  0.82924  0.74655  0.60087  1.0000
  H   H6720     1.0  0.91030  0.78086  0.67313  1.0000
  H   H6721     1.0  0.76894  0.62282  0.70864  1.0000
  S   S2239     1.0  0.75513  0.83485  0.64657  1.0000
  H   H6722     1.0  0.93854  0.75143  0.72895  1.0000
  H   H6723     1.0  0.93246  0.69703  0.73643  1.0000
  C   C6740     1.0  0.77148  0.94750  0.71623  1.0000
  H   H6724     1.0  0.81896  0.56904  0.68295  1.0000
  H   H6725     1.0  0.84464  0.64445  0.69582  1.0000
  S   S2240     1.0  0.75189  0.80050  0.60892  1.0000
  H   H6726     1.0  0.78392  0.52244  0.73853  1.0000
  C   C6741     1.0  0.77764  0.51817  0.74035  1.0000
  C   C6742     1.0  0.92911  0.79573  0.74011  1.0000
  H   H6727     1.0  0.77381  0.56544  0.69722  1.0000
  C   C6743     1.0  0.76390  0.57130  0.72057  1.0000
  S   S2241     1.0  0.89325  0.73883  0.77283  1.0000
  H   H6728     1.0  0.95077  0.73584  0.77469  1.0000
  S   S2242     1.0  0.79835  0.97551  0.74400  1.0000
  C   C6744     1.0  0.91114  0.77537  0.66821  1.0000
  C   C6745     1.0  0.76233  0.94903  0.71251  1.0000
  H   H6729     1.0  0.75428  0.81730  0.63895  1.0000
  H   H6730     1.0  0.75464  0.57171  0.73631  1.0000
  C   C6746     1.0  0.75430  0.83876  0.71999  1.0000
  H   H6731     1.0  0.77638  0.83974  0.63650  1.0000
  Fe  Fe1122    1.0  0.84461  0.73770  0.59286  1.0000
  Fe  Fe1123    1.0  0.82241  0.73389  0.59901  1.0000
  N   N558      1.0  0.76382  0.57138  0.71042  1.0000
  S   S2243     1.0  0.74059  0.85412  0.66596  1.0000
  S   S2244     1.0  0.83785  0.72440  0.59212  1.0000
  H   H6732     1.0  0.91302  0.75532  0.65170  1.0000
  C   C6747     1.0  0.75452  0.57207  0.72821  1.0000
  C   C6748     1.0  0.94459  0.74447  0.73156  1.0000
  H   H6733     1.0  0.94511  0.74474  0.73957  1.0000
  C   C6749     1.0  0.95552  0.74979  0.71405  1.0000
  S   S2245     1.0  0.77496  0.95833  0.71818  1.0000
  C   C6750     1.0  0.79450  0.59279  0.77346  1.0000
  H   H6734     1.0  0.82177  0.64272  0.74482  1.0000
  C   C6751     1.0  0.76435  0.61873  0.72568  1.0000
  S   S2246     1.0  0.75733  0.82890  0.60041  1.0000
  H   H6735     1.0  0.91080  0.70355  0.70224  1.0000
  H   H6736     1.0  0.89963  0.77215  0.65003  1.0000
  C   C6752     1.0  0.98255  0.68389  0.70108  1.0000
  C   C6753     1.0  0.76665  0.50683  0.75268  1.0000
  H   H6737     1.0  0.77970  0.60405  0.77423  1.0000
  C   C6754     1.0  0.78383  0.77509  0.59335  1.0000
  N   N559      1.0  0.95489  0.74449  0.72432  1.0000
  H   H6738     1.0  0.94198  0.73716  0.73204  1.0000
  C   C6755     1.0  0.77492  0.51205  0.75040  1.0000
  C   C6756     1.0  0.90436  0.77776  0.66124  1.0000
  H   H6739     1.0  0.76121  0.51940  0.71931  1.0000
  H   H6740     1.0  0.89806  0.71250  0.70405  1.0000
  H   H6741     1.0  0.74210  0.64735  0.66613  1.0000
  H   H6742     1.0  0.90207  0.69048  0.70045  1.0000
  C   C6757     1.0  0.86816  0.63636  0.70285  1.0000
  C   C6758     1.0  0.86621  0.76460  0.77226  1.0000
  N   N560      1.0  0.74613  0.62097  0.66862  1.0000
  H   H6743     1.0  0.84826  0.62585  0.70307  1.0000
  S   S2247     1.0  0.76196  0.80676  0.58335  1.0000
  H   H6744     1.0  0.75446  0.97776  0.69679  1.0000
  H   H6745     1.0  0.98777  0.70528  0.71447  1.0000
  N   N561      1.0  0.90184  0.70586  0.69064  1.0000
  H   H6746     1.0  0.78076  0.85646  0.63172  1.0000
  C   C6759     1.0  0.90511  0.70981  0.69812  1.0000
  Fe  Fe1124    1.0  0.82682  0.75413  0.58444  1.0000
  H   H6747     1.0  0.86312  0.86322  0.70414  1.0000
  Fe  Fe1125    1.0  0.75296  0.81526  0.59658  1.0000
  C   C6760     1.0  0.82215  0.52063  0.66949  1.0000
  Fe  Fe1126    1.0  0.75086  0.84968  0.67779  1.0000
  H   H6748     1.0  0.80207  0.80304  0.59139  1.0000
  H   H6749     1.0  0.96327  0.73443  0.73585  1.0000
  C   C6761     1.0  0.78449  0.72349  0.59938  1.0000
  S   S2248     1.0  0.74529  0.93811  0.69248  1.0000
  C   C6762     1.0  0.80780  0.51670  0.66472  1.0000
  H   H6750     1.0  0.75778  0.62201  0.74724  1.0000
  H   H6751     1.0  0.77231  0.84797  0.74081  1.0000
  C   C6763     1.0  0.90056  0.69568  0.69308  1.0000
  Fe  Fe1127    1.0  0.98451  0.75722  0.75368  1.0000
  H   H6752     1.0  0.77317  0.80819  0.60323  1.0000
  H   H6753     1.0  0.78719  0.85986  0.63996  1.0000
  C   C6764     1.0  0.76454  0.93010  0.71501  1.0000
  H   H6754     1.0  0.80490  0.97108  0.71286  1.0000
  C   C6765     1.0  0.78236  0.61610  0.71584  1.0000
  C   C6766     1.0  0.74125  0.96902  0.72777  1.0000
  S   S2249     1.0  0.74444  0.79150  0.59217  1.0000
  C   C6767     1.0  0.85688  0.62558  0.70115  1.0000
  H   H6755     1.0  0.78769  0.81633  0.66188  1.0000
  C   C6768     1.0  0.79419  0.83031  0.65684  1.0000
  H   H6756     1.0  0.94632  0.77957  0.76016  1.0000
  C   C6769     1.0  0.74629  0.63131  0.66397  1.0000
  N   N562      1.0  0.93067  0.78587  0.75756  1.0000
  C   C6770     1.0  0.88798  0.70029  0.76680  1.0000
  H   H6757     1.0  0.84336  0.60130  0.76422  1.0000
  N   N563      1.0  0.85897  0.63585  0.70065  1.0000
  H   H6758     1.0  0.86026  0.61942  0.70743  1.0000
  C   C6771     1.0  0.74856  0.84262  0.72895  1.0000
  C   C6772     1.0  0.74166  0.63920  0.66977  1.0000
  H   H6759     1.0  0.79213  0.71262  0.57835  1.0000
  C   C6773     1.0  0.85185  0.64488  0.69772  1.0000
  H   H6760     1.0  0.92454  0.77302  0.76778  1.0000
  C   C6774     1.0  0.78742  0.60173  0.76951  1.0000
  C   C6775     1.0  0.85365  0.65475  0.69735  1.0000
  C   C6776     1.0  0.76847  0.85391  0.73473  1.0000
  H   H6761     1.0  0.81195  0.62862  0.74744  1.0000
  C   C6777     1.0  0.78580  0.61217  0.72530  1.0000
  C   C6778     1.0  0.89601  0.70899  0.67449  1.0000
  C   C6779     1.0  0.74344  0.60104  0.70472  1.0000
  H   H6762     1.0  0.74871  0.91276  0.73699  1.0000
  H   H6763     1.0  0.79899  0.84510  0.65029  1.0000
  C   C6780     1.0  0.89712  0.69186  0.68617  1.0000
  S   S2250     1.0  0.77522  0.72224  0.59311  1.0000
  H   H6764     1.0  0.78795  0.75956  0.60286  1.0000
  H   H6765     1.0  0.90031  0.72063  0.67969  1.0000
  C   C6781     1.0  0.81397  0.52379  0.66399  1.0000
  C   C6782     1.0  0.80998  0.50650  0.67074  1.0000
  H   H6766     1.0  0.79501  0.85344  0.62935  1.0000
  H   H6767     1.0  0.89408  0.71434  0.66733  1.0000
  N   N564      1.0  0.78765  0.84346  0.64273  1.0000
  C   C6783     1.0  0.78782  0.82387  0.65639  1.0000
  H   H6768     1.0  0.79601  0.91793  0.76674  1.0000
  S   S2251     1.0  0.74717  0.84256  0.69506  1.0000
  C   C6784     1.0  0.81983  0.62664  0.74902  1.0000
  H   H6769     1.0  0.80700  0.75754  0.59532  1.0000
  H   H6770     1.0  0.87376  0.62920  0.70527  1.0000
  H   H6771     1.0  0.88903  0.70192  0.77382  1.0000
  C   C6785     1.0  0.80550  0.77261  0.58449  1.0000
  S   S2252     1.0  0.84283  0.74641  0.57637  1.0000
  C   C6786     1.0  0.96378  0.73855  0.72773  1.0000
  H   H6772     1.0  0.86421  0.66288  0.70001  1.0000
  C   C6787     1.0  0.75786  0.75484  0.60524  1.0000
  C   C6788     1.0  0.98063  0.69155  0.69212  1.0000
  H   H6773     1.0  0.78552  0.73910  0.59015  1.0000
  H   H6774     1.0  0.75444  0.57269  0.69947  1.0000
  H   H6775     1.0  0.94377  0.79718  0.72896  1.0000
  S   S2253     1.0  0.74467  0.49420  0.76916  1.0000
  H   H6776     1.0  0.81449  0.78629  0.59666  1.0000
  N   N565      1.0  0.74684  0.74405  0.60394  1.0000
  H   H6777     1.0  0.80988  0.58276  0.77011  1.0000
  H   H6778     1.0  0.95484  0.78705  0.74192  1.0000
  H   H6779     1.0  0.74129  0.59436  0.70350  1.0000
  C   C6789     1.0  0.94008  0.79424  0.73706  1.0000
  S   S2254     1.0  0.75991  0.91927  0.71463  1.0000
  C   C6790     1.0  0.92451  0.79143  0.75045  1.0000
  C   C6791     1.0  0.78763  0.91740  0.77022  1.0000
  H   H6780     1.0  0.74407  0.72859  0.61019  1.0000
  H   H6781     1.0  0.82030  0.61005  0.75339  1.0000
  Fe  Fe1128    1.0  0.83458  0.73386  0.57642  1.0000
  C   C6792     1.0  0.78762  0.78313  0.58542  1.0000
  S   S2255     1.0  0.98235  0.72194  0.69641  1.0000
  S   S2256     1.0  0.74101  0.86864  0.74872  1.0000
  H   H6782     1.0  0.74241  0.88672  0.67667  1.0000
  H   H6783     1.0  0.75293  0.73021  0.59748  1.0000
  C   C6793     1.0  0.97432  0.74288  0.71029  1.0000
  H   H6784     1.0  0.74069  0.61009  0.68249  1.0000
  C   C6794     1.0  0.74095  0.61827  0.67885  1.0000
  H   H6785     1.0  0.74068  0.91320  0.74995  1.0000
  S   S2257     1.0  0.75091  0.85743  0.77596  1.0000
  Fe  Fe1129    1.0  0.79936  0.73583  0.84568  1.0000
  S   S2258     1.0  0.80663  0.74488  0.85241  1.0000
  S   S2259     1.0  0.79177  0.74251  0.83178  1.0000
  Fe  Fe1130    1.0  0.80515  0.71547  0.86111  1.0000
  S   S2260     1.0  0.81323  0.72272  0.86918  1.0000
  S   S2261     1.0  0.80231  0.69892  0.86671  1.0000
  Fe  Fe1131    1.0  0.79921  0.73624  0.86825  1.0000
  S   S2262     1.0  0.78851  0.74516  0.88062  1.0000
  Fe  Fe1132    1.0  0.82005  0.73067  0.85259  1.0000
  S   S2263     1.0  0.83624  0.73461  0.84583  1.0000
  S   S2264     1.0  0.79072  0.72843  0.86129  1.0000
  S   S2265     1.0  0.81318  0.72220  0.84473  1.0000
  H   H6786     1.0  0.79370  0.68708  0.88867  1.0000
  S   S2266     1.0  0.76145  0.78732  0.82974  1.0000
  Fe  Fe1133    1.0  0.76873  0.67513  0.84529  1.0000
  S   S2267     1.0  0.77395  0.65908  0.85493  1.0000
  S   S2268     1.0  0.77802  0.68790  0.83815  1.0000
  S   S2269     1.0  0.76227  0.66920  0.83480  1.0000
  Fe  Fe1134    1.0  0.78522  0.75725  0.93468  1.0000
  S   S2270     1.0  0.76933  0.76449  0.93107  1.0000
  S   S2271     1.0  0.79651  0.74583  0.92483  1.0000
  Fe  Fe1135    1.0  0.77998  0.76749  0.95421  1.0000
  S   S2272     1.0  0.76366  0.77572  0.95153  1.0000
  S   S2273     1.0  0.78646  0.76488  0.96909  1.0000
  Fe  Fe1136    1.0  0.76300  0.76046  0.94833  1.0000
  H   H6787     1.0  0.74388  0.93549  0.78216  1.0000
  Fe  Fe1137    1.0  0.77151  0.77914  0.93422  1.0000
  C   C6795     1.0  0.80398  0.76343  0.88224  1.0000
  S   S2274     1.0  0.77873  0.75196  0.95195  1.0000
  S   S2275     1.0  0.78802  0.77215  0.93701  1.0000
  H   H6788     1.0  0.83031  0.72505  0.81361  1.0000
  H   H6789     1.0  0.78473  0.75633  0.84679  1.0000
  Fe  Fe1138    1.0  0.87901  0.72125  0.79748  1.0000
  S   S2276     1.0  0.89362  0.71447  0.78655  1.0000
  S   S2277     1.0  0.86948  0.71162  0.81128  1.0000
  Fe  Fe1139    1.0  0.89979  0.72839  0.78664  1.0000
  N   N566      1.0  0.78048  0.55916  0.78697  1.0000
  S   S2278     1.0  0.88586  0.73411  0.79887  1.0000
  Fe  Fe1140    1.0  0.75762  0.60245  0.80965  1.0000
  S   S2279     1.0  0.76622  0.60828  0.79322  1.0000
  S   S2280     1.0  0.75206  0.61160  0.82282  1.0000
  C   C6796     1.0  0.74523  0.69965  0.97227  1.0000
  S   S2281     1.0  0.76209  0.58762  0.78686  1.0000
  H   H6790     1.0  0.78253  0.62582  0.82231  1.0000
  Fe  Fe1141    1.0  0.77397  0.59123  0.79352  1.0000
  C   C6797     1.0  0.92698  0.75157  0.78228  1.0000
  H   H6791     1.0  0.74371  0.71111  0.84047  1.0000
  S   S2282     1.0  0.76638  0.58555  0.81043  1.0000
  S   S2283     1.0  0.75139  0.78396  0.86099  1.0000
  C   C6798     1.0  0.79841  0.78216  0.88919  1.0000
  H   H6792     1.0  0.90988  0.70753  0.80579  1.0000
  S   S2284     1.0  0.91721  0.72423  0.78675  1.0000
  H   H6793     1.0  0.91201  0.72376  0.80943  1.0000
  H   H6794     1.0  0.78071  0.68491  0.89611  1.0000
  H   H6795     1.0  0.76036  0.75893  0.84024  1.0000
  H   H6796     1.0  0.81085  0.75659  0.89598  1.0000
  C   C6799     1.0  0.76158  0.79851  0.89285  1.0000
  C   C6800     1.0  0.78252  0.70039  0.90378  1.0000
  C   C6801     1.0  0.84271  0.73328  0.80474  1.0000
  C   C6802     1.0  0.74720  0.92964  0.77735  1.0000
  H   H6797     1.0  0.88822  0.69354  0.82096  1.0000
  C   C6803     1.0  0.76119  0.68758  0.88432  1.0000
  S   S2285     1.0  0.79100  0.58546  0.78630  1.0000
  C   C6804     1.0  0.75522  0.67129  0.88748  1.0000
  H   H6798     1.0  0.77208  0.90788  0.78200  1.0000
  C   C6805     1.0  0.77232  0.55650  0.80539  1.0000
  H   H6799     1.0  0.79585  0.78945  0.89201  1.0000
  H   H6800     1.0  0.78239  0.69179  0.88271  1.0000
  N   N567      1.0  0.74124  0.63127  0.80336  1.0000
  C   C6806     1.0  0.78510  0.69055  0.89012  1.0000
  H   H6801     1.0  0.88071  0.70862  0.82826  1.0000
  C   C6807     1.0  0.94233  0.73827  0.77731  1.0000
  H   H6802     1.0  0.77779  0.77723  0.91162  1.0000
  H   H6803     1.0  0.76348  0.73016  0.84223  1.0000
  S   S2286     1.0  0.74966  0.75198  0.95477  1.0000
  H   H6804     1.0  0.74491  0.54948  0.78520  1.0000
  Fe  Fe1142    1.0  0.74636  0.70485  0.91289  1.0000
  H   H6805     1.0  0.77978  0.72680  0.88355  1.0000
  C   C6808     1.0  0.89749  0.72533  0.82115  1.0000
  C   C6809     1.0  0.78054  0.71941  0.88929  1.0000
  H   H6806     1.0  0.77895  0.72673  0.90214  1.0000
  H   H6807     1.0  0.80601  0.75602  0.87970  1.0000
  C   C6810     1.0  0.77347  0.78165  0.89652  1.0000
  H   H6808     1.0  0.75725  0.80456  0.88755  1.0000
  C   C6811     1.0  0.80676  0.76371  0.89144  1.0000
  H   H6809     1.0  0.74456  0.62610  0.83664  1.0000
  H   H6810     1.0  0.78320  0.69298  0.90950  1.0000
  H   H6811     1.0  0.78263  0.70995  0.87805  1.0000
  C   C6812     1.0  0.78214  0.70987  0.88624  1.0000
  C   C6813     1.0  0.76841  0.63247  0.83250  1.0000
  C   C6814     1.0  0.75765  0.63261  0.83638  1.0000
  C   C6815     1.0  0.75281  0.62616  0.83333  1.0000
  C   C6816     1.0  0.75861  0.61965  0.82623  1.0000
  C   C6817     1.0  0.76930  0.61972  0.82211  1.0000
  C   C6818     1.0  0.77419  0.62603  0.82532  1.0000
  H   H6812     1.0  0.88246  0.72495  0.83200  1.0000
  Fe  Fe1143    1.0  0.87876  0.74327  0.78499  1.0000
  H   H6813     1.0  0.77388  0.61472  0.81668  1.0000
  C   C6819     1.0  0.76115  0.79994  0.90297  1.0000
  Fe  Fe1144    1.0  0.75779  0.66230  0.86530  1.0000
  H   H6814     1.0  0.74827  0.76475  0.93385  1.0000
  H   H6815     1.0  0.90180  0.69144  0.81411  1.0000
  C   C6820     1.0  0.78098  0.70980  0.90709  1.0000
  C   C6821     1.0  0.77630  0.55138  0.78591  1.0000
  N   N568      1.0  0.78306  0.70053  0.89347  1.0000
  H   H6816     1.0  0.76618  0.85082  0.80130  1.0000
  S   S2287     1.0  0.87113  0.73073  0.78426  1.0000
  C   C6822     1.0  0.84539  0.72807  0.83628  1.0000
  C   C6823     1.0  0.85387  0.73260  0.82998  1.0000
  C   C6824     1.0  0.86114  0.72776  0.82212  1.0000
  C   C6825     1.0  0.86016  0.71817  0.82071  1.0000
  C   C6826     1.0  0.85180  0.71355  0.82714  1.0000
  C   C6827     1.0  0.84435  0.71854  0.83480  1.0000
  H   H6817     1.0  0.85473  0.73996  0.83110  1.0000
  H   H6818     1.0  0.86756  0.73139  0.81725  1.0000
  H   H6819     1.0  0.85102  0.70610  0.82615  1.0000
  H   H6820     1.0  0.83790  0.71493  0.83967  1.0000
  C   C6828     1.0  0.79530  0.69595  0.85894  1.0000
  C   C6829     1.0  0.79164  0.68652  0.86211  1.0000
  C   C6830     1.0  0.78599  0.68413  0.85597  1.0000
  C   C6831     1.0  0.78423  0.69105  0.84650  1.0000
  C   C6832     1.0  0.78794  0.70043  0.84332  1.0000
  C   C6833     1.0  0.79334  0.70294  0.84958  1.0000
  H   H6821     1.0  0.79317  0.68105  0.86931  1.0000
  H   H6822     1.0  0.78316  0.67687  0.85847  1.0000
  H   H6823     1.0  0.78664  0.70578  0.83598  1.0000
  H   H6824     1.0  0.79612  0.71022  0.84706  1.0000
  C   C6834     1.0  0.79079  0.74462  0.89307  1.0000
  C   C6835     1.0  0.78382  0.75165  0.89907  1.0000
  C   C6836     1.0  0.78557  0.75212  0.90872  1.0000
  C   C6837     1.0  0.79416  0.74537  0.91265  1.0000
  C   C6838     1.0  0.80104  0.73812  0.90675  1.0000
  C   C6839     1.0  0.79940  0.73778  0.89695  1.0000
  H   H6825     1.0  0.77718  0.75698  0.89611  1.0000
  H   H6826     1.0  0.78030  0.75784  0.91300  1.0000
  H   H6827     1.0  0.80773  0.73285  0.90972  1.0000
  H   H6828     1.0  0.80484  0.73231  0.89237  1.0000
  C   C6840     1.0  0.78402  0.75528  0.83132  1.0000
  C   C6841     1.0  0.77985  0.76034  0.82237  1.0000
  C   C6842     1.0  0.77321  0.77033  0.82188  1.0000
  C   C6843     1.0  0.77060  0.77529  0.83038  1.0000
  C   C6844     1.0  0.77483  0.77031  0.83935  1.0000
  C   C6845     1.0  0.78157  0.76027  0.83982  1.0000
  H   H6829     1.0  0.78173  0.75650  0.81580  1.0000
  H   H6830     1.0  0.76993  0.77415  0.81495  1.0000
  H   H6831     1.0  0.77280  0.77412  0.84595  1.0000
  N   N569      1.0  0.84278  0.74875  0.81034  1.0000
  S   S2288     1.0  0.77497  0.63994  0.83669  1.0000
  C   C6846     1.0  0.80384  0.77311  0.89498  1.0000
  H   H6832     1.0  0.79426  0.56538  0.77967  1.0000
  H   H6833     1.0  0.82228  0.73783  0.82533  1.0000
  C   C6847     1.0  0.76784  0.78936  0.88958  1.0000
  H   H6834     1.0  0.80035  0.76587  0.86330  1.0000
  C   C6848     1.0  0.78003  0.71936  0.89976  1.0000
  H   H6835     1.0  0.91204  0.74663  0.78731  1.0000
  S   S2289     1.0  0.86775  0.75894  0.78521  1.0000
  S   S2290     1.0  0.74636  0.83181  0.84408  1.0000
  S   S2291     1.0  0.76354  0.80349  0.84909  1.0000
  H   H6836     1.0  0.74600  0.69322  0.83743  1.0000
  S   S2292     1.0  0.74429  0.59980  0.80419  1.0000
  H   H6837     1.0  0.84445  0.76168  0.81577  1.0000
  C   C6849     1.0  0.76819  0.54844  0.80443  1.0000
  C   C6850     1.0  0.79574  0.78159  0.88003  1.0000
  S   S2293     1.0  0.74357  0.69833  0.95271  1.0000
  H   H6838     1.0  0.76314  0.54447  0.81119  1.0000
  C   C6851     1.0  0.74594  0.75745  0.93471  1.0000
  H   H6839     1.0  0.75411  0.74452  0.89434  1.0000
  H   H6840     1.0  0.76254  0.80861  0.82625  1.0000
  C   C6852     1.0  0.83391  0.74741  0.81797  1.0000
  H   H6841     1.0  0.83054  0.75270  0.82339  1.0000
  H   H6842     1.0  0.76856  0.84376  0.79104  1.0000
  H   H6843     1.0  0.75928  0.74975  0.90233  1.0000
  H   H6844     1.0  0.77045  0.55885  0.81289  1.0000
  H   H6845     1.0  0.84665  0.76335  0.80163  1.0000
  C   C6853     1.0  0.82921  0.73896  0.81915  1.0000
  Fe  Fe1145    1.0  0.75371  0.60421  0.78786  1.0000
  C   C6854     1.0  0.92046  0.74428  0.78449  1.0000
  H   H6846     1.0  0.77831  0.77457  0.89408  1.0000
  N   N570      1.0  0.76303  0.83520  0.80634  1.0000
  C   C6855     1.0  0.75882  0.82782  0.80455  1.0000
  C   C6856     1.0  0.76706  0.83323  0.81515  1.0000
  C   C6857     1.0  0.75864  0.81812  0.81166  1.0000
  C   C6858     1.0  0.76692  0.82365  0.82245  1.0000
  C   C6859     1.0  0.76272  0.81606  0.82065  1.0000
  C   C6860     1.0  0.89420  0.69731  0.81474  1.0000
  H   H6847     1.0  0.75549  0.82948  0.79764  1.0000
  H   H6848     1.0  0.89828  0.73259  0.82263  1.0000
  C   C6861     1.0  0.74322  0.55934  0.80669  1.0000
  H   H6849     1.0  0.76985  0.82221  0.82958  1.0000
  C   C6862     1.0  0.77851  0.56179  0.79654  1.0000
  H   H6850     1.0  0.75640  0.80706  0.90546  1.0000
  Fe  Fe1146    1.0  0.75372  0.58338  0.80363  1.0000
  C   C6863     1.0  0.75708  0.75138  0.89458  1.0000
  S   S2294     1.0  0.75108  0.71274  0.92308  1.0000
  N   N571      1.0  0.79843  0.77227  0.87675  1.0000
  C   C6864     1.0  0.74323  0.55006  0.79336  1.0000
  S   S2295     1.0  0.75041  0.65493  0.85665  1.0000
  C   C6865     1.0  0.84709  0.74193  0.80366  1.0000
  C   C6866     1.0  0.75663  0.68855  0.89476  1.0000
  H   H6851     1.0  0.79813  0.85336  0.78045  1.0000
  N   N572      1.0  0.75368  0.74551  0.84334  1.0000
  C   C6867     1.0  0.76689  0.79220  0.90987  1.0000
  C   C6868     1.0  0.83371  0.73180  0.81255  1.0000
  S   S2296     1.0  0.76934  0.78724  0.87682  1.0000
  H   H6852     1.0  0.78054  0.70965  0.91527  1.0000
  Fe  Fe1147    1.0  0.75550  0.79333  0.84462  1.0000
  H   H6853     1.0  0.78148  0.72682  0.95907  1.0000
  S   S2297     1.0  0.76651  0.79407  0.92248  1.0000
  N   N573      1.0  0.77042  0.72609  0.95068  1.0000
  C   C6869     1.0  0.76290  0.72081  0.95106  1.0000
  C   C6870     1.0  0.77487  0.73187  0.94132  1.0000
  C   C6871     1.0  0.75976  0.72114  0.94189  1.0000
  C   C6872     1.0  0.77168  0.73262  0.93206  1.0000
  C   C6873     1.0  0.76404  0.72726  0.93237  1.0000
  C   C6874     1.0  0.77310  0.72626  0.96045  1.0000
  H   H6854     1.0  0.75914  0.71645  0.95851  1.0000
  H   H6855     1.0  0.78084  0.73604  0.94096  1.0000
  H   H6856     1.0  0.75366  0.71707  0.94232  1.0000
  H   H6857     1.0  0.77499  0.73751  0.92475  1.0000
  H   H6858     1.0  0.76122  0.72813  0.92530  1.0000
  H   H6859     1.0  0.76794  0.73322  0.96350  1.0000
  H   H6860     1.0  0.77200  0.71898  0.96653  1.0000
  H   H6861     1.0  0.74984  0.69166  0.97272  1.0000
  N   N574      1.0  0.79543  0.66461  0.82986  1.0000
  C   C6875     1.0  0.79931  0.66747  0.83685  1.0000
  C   C6876     1.0  0.79420  0.65451  0.83147  1.0000
  C   C6877     1.0  0.80212  0.66010  0.84570  1.0000
  C   C6878     1.0  0.79699  0.64691  0.84020  1.0000
  C   C6879     1.0  0.80097  0.64975  0.84736  1.0000
  C   C6880     1.0  0.79218  0.67243  0.82077  1.0000
  H   H6862     1.0  0.80004  0.67554  0.83573  1.0000
  H   H6863     1.0  0.79083  0.65231  0.82611  1.0000
  H   H6864     1.0  0.80494  0.66249  0.85134  1.0000
  H   H6865     1.0  0.79572  0.63898  0.84156  1.0000
  H   H6866     1.0  0.80289  0.64399  0.85431  1.0000
  H   H6867     1.0  0.79454  0.68000  0.81977  1.0000
  H   H6868     1.0  0.79576  0.66943  0.81342  1.0000
  H   H6869     1.0  0.78344  0.67419  0.82194  1.0000
  C   C6881     1.0  0.74352  0.76286  0.84504  1.0000
  C   C6882     1.0  0.75178  0.77049  0.89261  1.0000
  C   C6883     1.0  0.93794  0.74862  0.77861  1.0000
  H   H6870     1.0  0.77083  0.78355  0.97484  1.0000
  H   H6871     1.0  0.74888  0.56457  0.79001  1.0000
  C   C6884     1.0  0.93588  0.73091  0.77986  1.0000
  H   H6872     1.0  0.85408  0.74308  0.79758  1.0000
  S   S2298     1.0  0.74609  0.56929  0.81116  1.0000
  H   H6873     1.0  0.76421  0.75203  0.88816  1.0000
  H   H6874     1.0  0.84639  0.72767  0.79968  1.0000
  S   S2299     1.0  0.75818  0.69915  0.89913  1.0000
  H   H6875     1.0  0.74654  0.78737  0.89086  1.0000
  C   C6885     1.0  0.74111  0.74137  0.94573  1.0000
  H   H6876     1.0  0.85637  0.75468  0.80872  1.0000
  H   H6877     1.0  0.75528  0.81224  0.81029  1.0000
  H   H6878     1.0  0.78600  0.91793  0.77860  1.0000
  C   C6886     1.0  0.76402  0.73855  0.84070  1.0000
  C   C6887     1.0  0.92493  0.73387  0.78342  1.0000
  H   H6879     1.0  0.79295  0.77925  0.86240  1.0000
  Fe  Fe1148    1.0  0.74717  0.67123  0.84674  1.0000
  H   H6880     1.0  0.75522  0.84910  0.79730  1.0000
  C   C6888     1.0  0.74544  0.55862  0.79607  1.0000
  H   H6881     1.0  0.78705  0.76861  0.87091  1.0000
  H   H6882     1.0  0.76419  0.76338  0.97552  1.0000
  C   C6889     1.0  0.77308  0.78308  0.90655  1.0000
  C   C6890     1.0  0.76044  0.67903  0.88067  1.0000
  C   C6891     1.0  0.79455  0.77148  0.86787  1.0000
  C   C6892     1.0  0.84775  0.75758  0.80910  1.0000
  S   S2300     1.0  0.74900  0.87593  0.78885  1.0000
  H   H6883     1.0  0.74790  0.68147  0.90966  1.0000
  H   H6884     1.0  0.80561  0.77333  0.90231  1.0000
  H   H6885     1.0  0.89149  0.69930  0.80722  1.0000
  H   H6886     1.0  0.79106  0.78854  0.87587  1.0000
  C   C6893     1.0  0.75076  0.67219  0.89797  1.0000
  S   S2301     1.0  0.75380  0.66069  0.88298  1.0000
  C   C6894     1.0  0.76327  0.84519  0.79864  1.0000
  H   H6887     1.0  0.75311  0.63746  0.84196  1.0000
  N   N575      1.0  0.89537  0.70690  0.81710  1.0000
  C   C6895     1.0  0.88771  0.71178  0.82427  1.0000
  C   C6896     1.0  0.90397  0.71116  0.81176  1.0000
  C   C6897     1.0  0.88865  0.72105  0.82641  1.0000
  C   C6898     1.0  0.90521  0.72037  0.81377  1.0000
  Fe  Fe1149    1.0  0.74755  0.81432  0.85099  1.0000
  Fe  Fe1150    1.0  0.76615  0.65325  0.84528  1.0000
  H   H6888     1.0  0.78164  0.56809  0.79735  1.0000
  H   H6889     1.0  0.76528  0.69350  0.87898  1.0000
  S   S2302     1.0  0.75320  0.67867  0.85624  1.0000
  C   C6899     1.0  0.75134  0.68086  0.90157  1.0000
  H   H6890     1.0  0.77023  0.83914  0.81667  1.0000
  Fe  Fe1151    1.0  0.75804  0.79518  0.86579  1.0000
  H   H6891     1.0  0.76768  0.74101  0.83224  1.0000
  H   H6892     1.0  0.76406  0.67834  0.87263  1.0000
  H   H6893     1.0  0.76668  0.53981  0.79377  1.0000
  H   H6894     1.0  0.76943  0.73900  0.84545  1.0000
  C   C6900     1.0  0.77017  0.54585  0.79464  1.0000
  H   H6895     1.0  0.74515  0.62991  0.78728  1.0000
  C   C6901     1.0  0.75321  0.75593  0.84266  1.0000
  H   H6896     1.0  0.74842  0.85168  0.82994  1.0000
  S   S2303     1.0  0.74267  0.80691  0.86823  1.0000
  C   C6902     1.0  0.74454  0.84773  0.82656  1.0000
  C   C6903     1.0  0.74434  0.78001  0.89154  1.0000
  H   H6897     1.0  0.76809  0.89159  0.78020  1.0000
  H   H6898     1.0  0.74322  0.77115  0.84442  1.0000
  C   C6904     1.0  0.74279  0.83762  0.83175  1.0000
  H   H6899     1.0  0.74654  0.69863  0.86989  1.0000
  N   N576      1.0  0.74906  0.76119  0.89339  1.0000
  H   H6900     1.0  0.74469  0.76059  0.91849  1.0000
  C   C6905     1.0  0.74505  0.75032  0.94444  1.0000
  H   H6901     1.0  0.75976  0.77058  0.89277  1.0000
  C   C6906     1.0  0.74127  0.70497  0.96315  1.0000
  C   C6907     1.0  0.78681  0.56502  0.77780  1.0000
  H   H6902     1.0  0.74677  0.66620  0.90329  1.0000
  H   H6903     1.0  0.74244  0.86070  0.81322  1.0000
  H   H6904     1.0  0.75758  0.62761  0.80315  1.0000
  H   H6905     1.0  0.93943  0.72285  0.77910  1.0000
  H   H6906     1.0  0.92353  0.75946  0.78356  1.0000
  C   C6908     1.0  0.75098  0.63462  0.80257  1.0000
  H   H6907     1.0  0.74620  0.76311  0.97439  1.0000
  H   H6908     1.0  0.75296  0.64022  0.79498  1.0000
  C   C6909     1.0  0.74179  0.92174  0.77842  1.0000
  H   H6909     1.0  0.74489  0.73348  0.84674  1.0000
  C   C6910     1.0  0.74371  0.75518  0.92607  1.0000
  C   C6911     1.0  0.74461  0.74171  0.84629  1.0000
  H   H6910     1.0  0.77760  0.54945  0.77829  1.0000
  C   C6912     1.0  0.74117  0.85285  0.81708  1.0000
  H   H6911     1.0  0.75028  0.63858  0.80906  1.0000
  S   S2304     1.0  0.77664  0.86285  0.78015  1.0000
  H   H6912     1.0  0.84923  0.76750  0.77641  1.0000
  Fe  Fe1152    1.0  0.76066  0.86839  0.77627  1.0000
