data_image0
_chemical_formula_structural       FeSC2HCHSCHSC3H4SHC2H2NCFeS2FeS2FeS2Fe2S3HSFeHSFeS2H3C6H4C7H5CH2CHC2HNFeHC2H2CHC2HCHCH2C2SCH3CHC3HC2HCHCHSHNHFeSC7H3C4HFeHSCSH3SH2SHC4FeS2FeSC2HC3HFeHCHCH2CH2C2NC2H2SCFeCNFeHFeC2SC3H2SH2NC2H3SH2C2H2C3HCH2CSHCSCH3CH2C4SC3FeCH2CH2CHFeHNH2CFeS2FeSHC2HNCSH2C2HC6H4C2HCSCHNHSFeC2H3CFeCH3SH2CHNSCH6C3HC4SCNH2FeH2CHSH3CSH4CHSHSCFeCH3CHFeS2FeHSFeS2FeS2FeSFeS2C2H2C7H5C7H3CH3CSH2CSCSC2NH2CH2C5H2CH3NC5H2C4H6N2HCSH2CHC2SCHCH3C2NCH2CHSHFeSHC3HC2H3C
_chemical_formula_sum              "Fe32 S64 C192 H192 N16"
_cell_length_a       34.1713
_cell_length_b       34.2733
_cell_length_c       32.1144
_cell_angle_alpha    91.8861
_cell_angle_beta     91.6621
_cell_angle_gamma    119.306

_space_group_name_H-M_alt    "P 1"
_space_group_IT_number       1

loop_
  _space_group_symop_operation_xyz
  'x, y, z'

loop_
  _atom_site_type_symbol
  _atom_site_label
  _atom_site_symmetry_multiplicity
  _atom_site_fract_x
  _atom_site_fract_y
  _atom_site_fract_z
  _atom_site_occupancy
  Fe  Fe1       1.0  0.07488  0.06552  0.24541  1.0000
  S   S1        1.0  0.14584  0.10761  0.27472  1.0000
  C   C1        1.0  0.15604  0.19353  0.28164  1.0000
  C   C2        1.0  0.21642  0.18391  0.31123  1.0000
  H   H1        1.0  0.12355  0.17984  0.26525  1.0000
  C   C3        1.0  0.17408  0.16553  0.29010  1.0000
  H   H2        1.0  0.16680  0.26124  0.28662  1.0000
  S   S2        1.0  0.03254  0.07761  0.19773  1.0000
  C   C4        1.0  0.18062  0.23966  0.29375  1.0000
  H   H3        1.0  0.05064  0.07766  0.06777  1.0000
  S   S3        1.0  0.01942  0.03356  0.28967  1.0000
  C   C5        1.0  0.03643  0.05401  0.04111  1.0000
  C   C6        1.0  0.22304  0.25794  0.31487  1.0000
  C   C7        1.0  0.24063  0.22971  0.32377  1.0000
  H   H4        1.0  0.10076  0.01830  0.31811  1.0000
  H   H5        1.0  0.23101  0.16280  0.31745  1.0000
  H   H6        1.0  0.20166  0.37087  0.32587  1.0000
  H   H7        1.0  0.13589  0.01681  0.27792  1.0000
  S   S4        1.0  0.25387  0.31601  0.32957  1.0000
  H   H8        1.0  0.19799  0.07535  0.32475  1.0000
  C   C8        1.0  0.04179  0.06951  0.00019  1.0000
  C   C9        1.0  0.19251  0.04825  0.34468  1.0000
  H   H9        1.0  0.17438  0.42059  0.49300  1.0000
  H   H10       1.0  0.21192  0.25309  0.54736  1.0000
  N   N1        1.0  0.20692  0.42015  0.43727  1.0000
  C   C10       1.0  0.24291  0.40358  0.38161  1.0000
  Fe  Fe2       1.0  0.05700  0.33325  0.51529  1.0000
  S   S5        1.0  0.09113  0.31757  0.46386  1.0000
  S   S6        1.0  0.09220  0.38206  0.56998  1.0000
  Fe  Fe3       1.0  0.35696  0.29274  0.42662  1.0000
  S   S7        1.0  0.37732  0.33770  0.37294  1.0000
  S   S8        1.0  0.35172  0.22474  0.42112  1.0000
  Fe  Fe4       1.0  0.32131  0.34696  0.47260  1.0000
  S   S9        1.0  0.33902  0.39610  0.42272  1.0000
  S   S10       1.0  0.28138  0.34821  0.52630  1.0000
  Fe  Fe5       1.0  0.31069  0.33511  0.37821  1.0000
  Fe  Fe6       1.0  0.40398  0.39410  0.42311  1.0000
  S   S11       1.0  0.47360  0.45490  0.41831  1.0000
  S   S12       1.0  0.28939  0.28706  0.42854  1.0000
  S   S13       1.0  0.38785  0.34855  0.47656  1.0000
  H   H11       1.0  0.48124  0.15539  0.55625  1.0000
  S   S14       1.0  0.37624  0.04128  0.53395  1.0000
  Fe  Fe7       1.0  0.04215  0.32625  0.60752  1.0000
  H   H12       1.0  0.23142  0.17838  0.40343  1.0000
  S   S15       1.0  0.28982  0.04051  0.57911  1.0000
  Fe  Fe8       1.0  0.36491  0.08241  0.58296  1.0000
  S   S16       1.0  0.40075  0.15745  0.58449  1.0000
  S   S17       1.0  0.37533  0.04859  0.63750  1.0000
  H   H13       1.0  0.22969  0.42874  0.50118  1.0000
  H   H14       1.0  0.26864  0.16893  0.46460  1.0000
  H   H15       1.0  0.45128  0.02046  0.50953  1.0000
  C   C11       1.0  0.36647  0.20702  0.46649  1.0000
  C   C12       1.0  0.35303  0.16154  0.46920  1.0000
  C   C13       1.0  0.36298  0.14612  0.50569  1.0000
  C   C14       1.0  0.38719  0.17634  0.53924  1.0000
  C   C15       1.0  0.40082  0.22189  0.53651  1.0000
  C   C16       1.0  0.39013  0.23720  0.50023  1.0000
  H   H16       1.0  0.33472  0.13815  0.44311  1.0000
  H   H17       1.0  0.35220  0.11091  0.50769  1.0000
  H   H18       1.0  0.41947  0.24529  0.56251  1.0000
  H   H19       1.0  0.40063  0.27233  0.49823  1.0000
  C   C17       1.0  0.20477  0.17753  0.42315  1.0000
  C   C18       1.0  0.14131  0.32010  0.48218  1.0000
  C   C19       1.0  0.15454  0.32844  0.52463  1.0000
  C   C20       1.0  0.19731  0.33624  0.53817  1.0000
  C   C21       1.0  0.22699  0.33578  0.50930  1.0000
  C   C22       1.0  0.21302  0.32567  0.46706  1.0000
  C   C23       1.0  0.17003  0.31716  0.45362  1.0000
  H   H20       1.0  0.13211  0.32936  0.54712  1.0000
  H   H21       1.0  0.20767  0.34346  0.57098  1.0000
  H   H22       1.0  0.23564  0.32565  0.44437  1.0000
  H   H23       1.0  0.15984  0.31018  0.42079  1.0000
  H   H24       1.0  0.50195  0.11146  0.49014  1.0000
  C   C24       1.0  0.20618  0.21672  0.48913  1.0000
  H   H25       1.0  0.18041  0.22309  0.47582  1.0000
  H   H26       1.0  0.13476  0.37261  0.35301  1.0000
  C   C25       1.0  0.16591  0.38672  0.37192  1.0000
  H   H27       1.0  0.22203  0.47370  0.48141  1.0000
  C   C26       1.0  0.22539  0.05524  0.37561  1.0000
  C   C27       1.0  0.25833  0.22758  0.54651  1.0000
  H   H28       1.0  0.25622  0.08725  0.37941  1.0000
  N   N2        1.0  0.22262  0.19416  0.46604  1.0000
  Fe  Fe9       1.0  0.03908  0.40226  0.55953  1.0000
  H   H29       1.0  0.13894  0.40422  0.42436  1.0000
  C   C28       1.0  0.22382  0.23378  0.52964  1.0000
  C   C29       1.0  0.48411  0.12755  0.61437  1.0000
  H   H30       1.0  0.27474  0.43319  0.44176  1.0000
  H   H31       1.0  0.17632  0.14275  0.42289  1.0000
  C   C30       1.0  0.25552  0.18673  0.48285  1.0000
  H   H32       1.0  0.27196  0.40279  0.36982  1.0000
  C   C31       1.0  0.20331  0.38583  0.35669  1.0000
  C   C32       1.0  0.27407  0.20354  0.52319  1.0000
  H   H33       1.0  0.25779  0.06188  0.66003  1.0000
  C   C33       1.0  0.48214  0.50159  0.49373  1.0000
  H   H34       1.0  0.19317  0.19919  0.40818  1.0000
  C   C34       1.0  0.47767  0.01291  0.51765  1.0000
  H   H35       1.0  0.27353  0.24341  0.33939  1.0000
  H   H36       1.0  0.30106  0.19866  0.53591  1.0000
  C   C35       1.0  0.20843  0.43688  0.48025  1.0000
  C   C36       1.0  0.16850  0.40464  0.41237  1.0000
  S   S18       1.0  0.05013  0.47356  0.56579  1.0000
  C   C37       1.0  0.24423  0.42079  0.42208  1.0000
  H   H37       1.0  0.44870  0.47524  0.49968  1.0000
  H   H38       1.0  0.05274  0.46318  0.47498  1.0000
  H   H39       1.0  0.27322  0.24193  0.57739  1.0000
  C   C38       1.0  0.50024  0.10312  0.63575  1.0000
  H   H40       1.0  0.46205  0.13758  0.62928  1.0000
  C   C39       1.0  0.49536  0.13779  0.57310  1.0000
  C   C40       1.0  0.05413  0.49484  0.48246  1.0000
  C   C41       1.0  0.50127  0.50013  0.45617  1.0000
  H   H41       1.0  0.51369  0.03958  0.46204  1.0000
  C   C42       1.0  0.51317  0.02379  0.49080  1.0000
  C   C43       1.0  0.05402  0.50800  0.52416  1.0000
  H   H42       1.0  0.24350  0.02524  0.42548  1.0000
  C   C44       1.0  0.21830  0.02057  0.40140  1.0000
  H   H43       1.0  0.12627  0.11225  0.91765  1.0000
  C   C45       1.0  0.05611  0.23498  0.71209  1.0000
  H   H44       1.0  0.21620  0.10063  0.68233  1.0000
  S   S19       1.0  0.05937  0.09847  0.80201  1.0000
  H   H45       1.0  0.19965  0.06578  0.81185  1.0000
  N   N3        1.0  0.14089  0.06128  0.89643  1.0000
  H   H46       1.0  0.20330  0.13959  0.80860  1.0000
  Fe  Fe10      1.0  0.07700  0.05215  0.76593  1.0000
  S   S20       1.0  0.14471  0.07852  0.73695  1.0000
  C   C46       1.0  0.18647  0.11803  0.83378  1.0000
  C   C47       1.0  0.18425  0.07639  0.83552  1.0000
  C   C48       1.0  0.03795  0.24678  0.67808  1.0000
  C   C49       1.0  0.11504  0.03038  0.92820  1.0000
  C   C50       1.0  0.16071  0.04802  0.86694  1.0000
  C   C51       1.0  0.20716  0.06808  0.69379  1.0000
  C   C52       1.0  0.17217  0.04842  0.72121  1.0000
  H   H47       1.0  0.06034  0.10515  0.99594  1.0000
  H   H48       1.0  0.08583  0.26059  0.72934  1.0000
  H   H49       1.0  0.16610  0.16281  0.86181  1.0000
  C   C53       1.0  0.23081  0.04614  0.68104  1.0000
  C   C54       1.0  0.14287  0.10208  0.89491  1.0000
  C   C55       1.0  0.16555  0.13098  0.86353  1.0000
  C   C56       1.0  0.03543  0.19051  0.72473  1.0000
  H   H50       1.0  0.04923  0.18215  0.75155  1.0000
  Fe  Fe11      1.0  0.02095  0.04032  0.84323  1.0000
  H   H51       1.0  0.11311  0.04877  0.95656  1.0000
  S   S21       1.0  0.03209  0.06152  0.91388  1.0000
  C   C57       1.0  0.02356  0.03948  0.96482  1.0000
  S   S22       1.0  0.01704  0.02744  0.72159  1.0000
  H   H52       1.0  0.49014  0.09328  0.66714  1.0000
  H   H53       1.0  0.15807  0.01518  0.86731  1.0000
  H   H54       1.0  0.13067  0.01017  0.93816  1.0000
  S   S23       1.0  0.06079  0.30417  0.66740  1.0000
  H   H55       1.0  0.04145  0.88884  0.24837  1.0000
  H   H56       1.0  0.09578  0.96582  0.29938  1.0000
  S   S24       1.0  0.06082  0.99986  0.21331  1.0000
  H   H57       1.0  0.07525  0.84035  0.26242  1.0000
  C   C58       1.0  0.05724  0.84682  0.28641  1.0000
  C   C59       1.0  0.05160  0.82612  0.32457  1.0000
  C   C60       1.0  0.11987  0.00172  0.30722  1.0000
  C   C61       1.0  0.03834  0.87455  0.27847  1.0000
  Fe  Fe12      1.0  0.05680  0.73628  0.47905  1.0000
  S   S25       1.0  0.09882  0.73084  0.42914  1.0000
  S   S26       1.0  0.09119  0.78212  0.53558  1.0000
  Fe  Fe13      1.0  0.05218  0.74181  0.38587  1.0000
  S   S27       1.0  0.05760  0.59680  0.41774  1.0000
  C   C62       1.0  0.13346  0.83389  0.51992  1.0000
  C   C63       1.0  0.13829  0.84310  0.47763  1.0000
  H   H58       1.0  0.11437  0.81937  0.45428  1.0000
  C   C64       1.0  0.05591  0.54936  0.53326  1.0000
  C   C65       1.0  0.05760  0.56397  0.45945  1.0000
  C   C66       1.0  0.05737  0.57707  0.50112  1.0000
  H   H59       1.0  0.05848  0.60859  0.50866  1.0000
  Fe  Fe14      1.0  0.04710  0.65735  0.42588  1.0000
  H   H60       1.0  0.16099  0.85832  0.58250  1.0000
  C   C67       1.0  0.11314  0.90549  0.62724  1.0000
  H   H61       1.0  0.05593  0.55989  0.56540  1.0000
  C   C68       1.0  0.08020  0.86032  0.62421  1.0000
  H   H62       1.0  0.14571  0.91639  0.61433  1.0000
  H   H63       1.0  0.08656  0.83566  0.60831  1.0000
  C   C69       1.0  0.17855  0.97963  0.39612  1.0000
  H   H64       1.0  0.17274  0.95269  0.41624  1.0000
  H   H65       1.0  0.12981  0.97176  0.64939  1.0000
  C   C70       1.0  0.02849  0.83504  0.35535  1.0000
  C   C71       1.0  0.14650  0.97369  0.36473  1.0000
  N   N4        1.0  0.15398  0.00772  0.33932  1.0000
  C   C72       1.0  0.03897  0.84690  0.64192  1.0000
  C   C73       1.0  0.10401  0.93673  0.64738  1.0000
  H   H66       1.0  0.11571  0.94163  0.36074  1.0000
  H   H67       1.0  0.02478  0.82045  0.38519  1.0000
  S   S28       1.0  0.07317  0.78897  0.33239  1.0000
  C   C74       1.0  0.03121  0.87900  0.66238  1.0000
  Fe  Fe15      1.0  0.38234  0.00450  0.58786  1.0000
  C   C75       1.0  0.05626  0.52287  0.45035  1.0000
  N   N5        1.0  0.06340  0.92328  0.66449  1.0000
  Fe  Fe16      1.0  0.30033  0.00319  0.63021  1.0000
  H   H68       1.0  0.05650  0.51246  0.41823  1.0000
  Fe  Fe17      1.0  0.30182  0.99513  0.53620  1.0000
  C   C76       1.0  0.16409  0.86540  0.54984  1.0000
  C   C77       1.0  0.47696  0.99306  0.55524  1.0000
  S   S29       1.0  0.43506  0.98200  0.59181  1.0000
  C   C78       1.0  0.26452  0.85700  0.46793  1.0000
  C   C79       1.0  0.19980  0.90560  0.53755  1.0000
  C   C80       1.0  0.20648  0.91350  0.49522  1.0000
  H   H69       1.0  0.22727  0.79970  0.57196  1.0000
  H   H70       1.0  0.35899  0.92043  0.52899  1.0000
  S   S30       1.0  0.30850  0.95497  0.58683  1.0000
  H   H71       1.0  0.19872  0.80754  0.44237  1.0000
  H   H72       1.0  0.35638  0.90612  0.47438  1.0000
  N   N6        1.0  0.29344  0.87267  0.50244  1.0000
  C   C81       1.0  0.28067  0.85220  0.53939  1.0000
  C   C82       1.0  0.17516  0.88255  0.46523  1.0000
  H   H73       1.0  0.30332  0.86485  0.56697  1.0000
  H   H74       1.0  0.18004  0.88819  0.43239  1.0000
  H   H75       1.0  0.27403  0.87414  0.43905  1.0000
  S   S31       1.0  0.25546  0.96020  0.47973  1.0000
  H   H76       1.0  0.49139  0.53797  0.55274  1.0000
  H   H77       1.0  0.17467  0.77053  0.50934  1.0000
  C   C83       1.0  0.20837  0.79865  0.50723  1.0000
  C   C84       1.0  0.33794  0.91211  0.49946  1.0000
  H   H78       1.0  0.33418  0.94167  0.49231  1.0000
  H   H79       1.0  0.22237  0.93016  0.56099  1.0000
  C   C85       1.0  0.23784  0.81516  0.54242  1.0000
  C   C86       1.0  0.22185  0.81944  0.46963  1.0000
  C   C87       1.0  0.50643  0.53719  0.52375  1.0000
  H   H80       1.0  0.51121  0.96767  0.59386  1.0000
  C   C88       1.0  0.51149  0.98320  0.56498  1.0000
  H   H81       1.0  0.08011  0.99110  0.68117  1.0000
  H   H82       1.0  0.17702  0.95264  0.73579  1.0000
  C   C89       1.0  0.18534  0.98483  0.72387  1.0000
  S   S32       1.0  0.24943  0.97604  0.68066  1.0000
  H   H83       1.0  0.02113  0.95142  0.67501  1.0000
  C   C90       1.0  0.05424  0.95594  0.68624  1.0000
  S   S33       1.0  0.04381  0.99648  0.80949  1.0000
  C   C91       1.0  0.22017  0.00446  0.69608  1.0000
  H   H84       1.0  0.13468  0.99126  0.75776  1.0000
  H   H85       1.0  0.05330  0.95108  0.72032  1.0000
  H   H86       1.0  0.08017  0.00753  0.91550  1.0000
  C   C92       1.0  0.16119  0.00655  0.73621  1.0000
  H   H87       1.0  0.78768  0.06920  0.27334  1.0000
  H   H88       1.0  0.85268  0.08092  0.23379  1.0000
  C   C93       1.0  0.95824  0.08249  0.06392  1.0000
  C   C94       1.0  0.94612  0.08386  0.13744  1.0000
  C   C95       1.0  0.96433  0.10668  0.10163  1.0000
  C   C96       1.0  0.84806  0.06613  0.26378  1.0000
  S   S34       1.0  0.92427  0.06380  0.24727  1.0000
  C   C97       1.0  0.81114  0.05964  0.28640  1.0000
  C   C98       1.0  0.87860  0.05331  0.27903  1.0000
  C   C99       1.0  0.92266  0.03699  0.13517  1.0000
  Fe  Fe18      1.0  0.97550  0.03984  0.24031  1.0000
  C   C100      1.0  0.87217  0.03461  0.31836  1.0000
  H   H89       1.0  0.95063  0.10226  0.16701  1.0000
  H   H90       1.0  0.97264  0.09975  0.03589  1.0000
  C   C101      1.0  0.93442  0.03564  0.06275  1.0000
  H   H91       1.0  0.98331  0.14301  0.10319  1.0000
  H   H92       1.0  0.89586  0.02504  0.33076  1.0000
  C   C102      1.0  0.80416  0.04107  0.32541  1.0000
  H   H93       1.0  0.90889  0.01957  0.16328  1.0000
  Fe  Fe19      1.0  0.01436  0.00972  0.16843  1.0000
  H   H94       1.0  0.93062  0.01709  0.03346  1.0000
  N   N7        1.0  0.91779  0.01352  0.09829  1.0000
  H   H95       1.0  0.56042  0.12884  0.50038  1.0000
  H   H96       1.0  0.80882  0.14175  0.42998  1.0000
  C   C103      1.0  0.95291  0.17864  0.40486  1.0000
  Fe  Fe20      1.0  0.73732  0.02541  0.50734  1.0000
  S   S35       1.0  0.79415  0.05709  0.55631  1.0000
  S   S36       1.0  0.72218  0.06383  0.46007  1.0000
  Fe  Fe21      1.0  0.96497  0.30537  0.54605  1.0000
  S   S37       1.0  0.89021  0.26531  0.53401  1.0000
  H   H97       1.0  0.54177  0.16954  0.50447  1.0000
  C   C104      1.0  0.53236  0.13427  0.51012  1.0000
  C   C105      1.0  0.93920  0.22877  0.44865  1.0000
  H   H98       1.0  0.98500  0.22186  0.62995  1.0000
  N   N8        1.0  0.52304  0.12515  0.55408  1.0000
  C   C106      1.0  0.52849  0.09043  0.61616  1.0000
  S   S38       1.0  0.01106  0.27672  0.55317  1.0000
  H   H99       1.0  0.97606  0.17005  0.39006  1.0000
  H   H100      1.0  0.81999  0.09662  0.41923  1.0000
  C   C107      1.0  0.83520  0.02898  0.34182  1.0000
  C   C108      1.0  0.89299  0.20009  0.44163  1.0000
  H   H101      1.0  0.54009  0.07019  0.63200  1.0000
  C   C109      1.0  0.86422  0.20801  0.54287  1.0000
  C   C110      1.0  0.81757  0.18219  0.53638  1.0000
  C   C111      1.0  0.79597  0.13596  0.54139  1.0000
  C   C112      1.0  0.82095  0.11532  0.55271  1.0000
  C   C113      1.0  0.86754  0.14121  0.56004  1.0000
  C   C114      1.0  0.88918  0.18752  0.55497  1.0000
  H   H102      1.0  0.79805  0.19792  0.52726  1.0000
  H   H103      1.0  0.75982  0.11637  0.53693  1.0000
  H   H104      1.0  0.88712  0.12544  0.56851  1.0000
  H   H105      1.0  0.92505  0.20708  0.56027  1.0000
  C   C115      1.0  0.54821  0.01474  0.50094  1.0000
  C   C116      1.0  0.99953  0.21333  0.65604  1.0000
  H   H106      1.0  0.89380  0.12018  0.37877  1.0000
  C   C117      1.0  0.90642  0.15057  0.39866  1.0000
  S   S39       1.0  0.99263  0.35149  0.60315  1.0000
  C   C118      1.0  0.53997  0.10216  0.57520  1.0000
  H   H107      1.0  0.83383  0.04527  0.63486  1.0000
  N   N9        1.0  0.87718  0.16129  0.41736  1.0000
  H   H108      1.0  0.56114  0.09120  0.55996  1.0000
  S   S40       1.0  0.59408  0.03283  0.46772  1.0000
  Fe  Fe22      1.0  0.64933  0.01323  0.46847  1.0000
  C   C119      1.0  0.64020  0.50386  0.49950  1.0000
  C   C120      1.0  0.58241  0.49829  0.54239  1.0000
  H   H109      1.0  0.86992  0.20913  0.45586  1.0000
  H   H110      1.0  0.56482  0.46006  0.44696  1.0000
  H   H111      1.0  0.81816  0.12966  0.37733  1.0000
  C   C121      1.0  0.96932  0.21786  0.43026  1.0000
  Fe  Fe23      1.0  0.72373  0.01449  0.41314  1.0000
  C   C122      1.0  0.82872  0.13101  0.41067  1.0000
  H   H112      1.0  0.90905  0.26694  0.63053  1.0000
  H   H113      1.0  0.65066  0.49314  0.47187  1.0000
  H   H114      1.0  0.95143  0.25922  0.46831  1.0000
  S   S41       1.0  0.75488  0.03286  0.35008  1.0000
  H   H115      1.0  0.94790  0.14401  0.65271  1.0000
  H   H116      1.0  0.88974  0.07376  0.61599  1.0000
  C   C123      1.0  0.56231  0.44834  0.47917  1.0000
  H   H117      1.0  0.96098  0.49730  0.42970  1.0000
  N   N10       1.0  0.59564  0.48446  0.50770  1.0000
  S   S42       1.0  0.00759  0.35722  0.50201  1.0000
  C   C124      1.0  0.86797  0.04890  0.63803  1.0000
  H   H118      1.0  0.54708  0.48358  0.54862  1.0000
  H   H119      1.0  0.56756  0.41885  0.47907  1.0000
  H   H120      1.0  0.83056  0.01500  0.37215  1.0000
  H   H121      1.0  0.96117  0.47720  0.50302  1.0000
  H   H122      1.0  0.00531  0.23991  0.43559  1.0000
  H   H123      1.0  0.85326  0.18638  0.63463  1.0000
  C   C125      1.0  0.91127  0.24846  0.65652  1.0000
  C   C126      1.0  0.94770  0.49888  0.49451  1.0000
  C   C127      1.0  0.88004  0.20313  0.65868  1.0000
  H   H124      1.0  0.52725  0.43720  0.48797  1.0000
  C   C128      1.0  0.98378  0.26908  0.75359  1.0000
  C   C129      1.0  0.91833  0.20162  0.72244  1.0000
  C   C130      1.0  0.94556  0.26964  0.68782  1.0000
  C   C131      1.0  0.97843  0.16909  0.66911  1.0000
  S   S43       1.0  0.96475  0.10297  0.72248  1.0000
  C   C132      1.0  0.99593  0.15751  0.70378  1.0000
  N   N11       1.0  0.94879  0.24613  0.72015  1.0000
  H   H125      1.0  0.97051  0.28050  0.77960  1.0000
  H   H126      1.0  0.92140  0.18278  0.74766  1.0000
  Fe  Fe24      1.0  0.99659  0.06929  0.76026  1.0000
  H   H127      1.0  0.99588  0.24653  0.76544  1.0000
  H   H128      1.0  0.86002  0.14397  0.69321  1.0000
  C   C133      1.0  0.88366  0.17941  0.69167  1.0000
  H   H129      1.0  0.97013  0.30478  0.68571  1.0000
  S   S44       1.0  0.95636  0.01367  0.80299  1.0000
  H   H130      1.0  0.92595  0.02411  0.66703  1.0000
  H   H131      1.0  0.88136  0.06192  0.67049  1.0000
  H   H132      1.0  0.01370  0.29862  0.74210  1.0000
  C   C134      1.0  0.01233  0.00804  0.04746  1.0000
  S   S45       1.0  0.95505  0.97277  0.20873  1.0000
  H   H133      1.0  0.90347  0.95021  0.07022  1.0000
  H   H134      1.0  0.76748  0.90373  0.32030  1.0000
  H   H135      1.0  0.74998  0.94443  0.31199  1.0000
  H   H136      1.0  0.85645  0.95195  0.09334  1.0000
  C   C135      1.0  0.99430  0.97804  0.01207  1.0000
  H   H137      1.0  0.97563  0.94239  0.01633  1.0000
  S   S46       1.0  0.00150  0.98613  0.09842  1.0000
  H   H138      1.0  0.90106  0.95174  0.12530  1.0000
  S   S47       1.0  0.98400  0.91119  0.29884  1.0000
  C   C136      1.0  0.01387  0.88205  0.30885  1.0000
  Fe  Fe25      1.0  0.00326  0.96866  0.25546  1.0000
  C   C137      1.0  0.89313  0.96440  0.09663  1.0000
  H   H139      1.0  0.92425  0.80210  0.30762  1.0000
  H   H140      1.0  0.95104  0.75145  0.31829  1.0000
  H   H141      1.0  0.90186  0.69848  0.32717  1.0000
  C   C138      1.0  0.60575  0.78021  0.55782  1.0000
  H   H142      1.0  0.61014  0.76851  0.46178  1.0000
  Fe  Fe26      1.0  0.66985  0.93616  0.46662  1.0000
  S   S48       1.0  0.63424  0.86091  0.46705  1.0000
  S   S49       1.0  0.64945  0.96754  0.41656  1.0000
  Fe  Fe27      1.0  0.96979  0.67661  0.42973  1.0000
  H   H143      1.0  0.83008  0.74856  0.42952  1.0000
  S   S50       1.0  0.89540  0.64388  0.41701  1.0000
  Fe  Fe28      1.0  0.73153  0.72738  0.50038  1.0000
  S   S51       1.0  0.68466  0.73587  0.54224  1.0000
  S   S52       1.0  0.74901  0.76482  0.44163  1.0000
  Fe  Fe29      1.0  0.74743  0.67118  0.56078  1.0000
  S   S53       1.0  0.70244  0.67571  0.60792  1.0000
  S   S54       1.0  0.78429  0.63356  0.57341  1.0000
  Fe  Fe30      1.0  0.65550  0.66240  0.55193  1.0000
  S   S55       1.0  0.58083  0.61391  0.55636  1.0000
  Fe  Fe31      1.0  0.73608  0.74862  0.59375  1.0000
  S   S56       1.0  0.69850  0.65297  0.50580  1.0000
  S   S57       1.0  0.78485  0.74492  0.55095  1.0000
  C   C139      1.0  0.55026  0.57123  0.51680  1.0000
  C   C140      1.0  0.56926  0.56978  0.47919  1.0000
  H   H144      1.0  0.68045  0.93502  0.34251  1.0000
  H   H145      1.0  0.60274  0.59584  0.47321  1.0000
  C   C141      1.0  0.87539  0.74015  0.38918  1.0000
  C   C142      1.0  0.81546  0.63612  0.53029  1.0000
  C   C143      1.0  0.85920  0.64293  0.53599  1.0000
  C   C144      1.0  0.88453  0.64633  0.50129  1.0000
  C   C145      1.0  0.86536  0.64117  0.46099  1.0000
  C   C146      1.0  0.82136  0.63340  0.45536  1.0000
  C   C147      1.0  0.79673  0.63166  0.48996  1.0000
  H   H146      1.0  0.87382  0.64673  0.56722  1.0000
  H   H147      1.0  0.91869  0.65275  0.50579  1.0000
  H   H148      1.0  0.80641  0.62919  0.42421  1.0000
  H   H149      1.0  0.76297  0.62610  0.48531  1.0000
  H   H150      1.0  0.63755  0.77624  0.35852  1.0000
  C   C148      1.0  0.69032  0.84224  0.34514  1.0000
  C   C149      1.0  0.66613  0.83473  0.45595  1.0000
  C   C150      1.0  0.71157  0.85948  0.44734  1.0000
  C   C151      1.0  0.73669  0.83777  0.44028  1.0000
  C   C152      1.0  0.71635  0.79124  0.44214  1.0000
  C   C153      1.0  0.67053  0.76630  0.44911  1.0000
  C   C154      1.0  0.64544  0.78800  0.45590  1.0000
  H   H151      1.0  0.72768  0.89527  0.44673  1.0000
  H   H152      1.0  0.77225  0.85717  0.43535  1.0000
  H   H153      1.0  0.65468  0.73023  0.45039  1.0000
  C   C155      1.0  0.59781  0.71536  0.61158  1.0000
  H   H154      1.0  0.55980  0.53383  0.42000  1.0000
  H   H155      1.0  0.60242  0.88071  0.35900  1.0000
  H   H156      1.0  0.90327  0.55964  0.53730  1.0000
  C   C156      1.0  0.83288  0.93395  0.59211  1.0000
  S   S58       1.0  0.00549  0.66767  0.37629  1.0000
  H   H157      1.0  0.53890  0.66959  0.57357  1.0000
  H   H158      1.0  0.65885  0.76764  0.64174  1.0000
  C   C157      1.0  0.93133  0.54943  0.39869  1.0000
  S   S59       1.0  0.74377  0.97995  0.45971  1.0000
  C   C158      1.0  0.67655  0.83597  0.59366  1.0000
  S   S60       1.0  0.66489  0.97831  0.51911  1.0000
  C   C159      1.0  0.63333  0.75942  0.61693  1.0000
  C   C160      1.0  0.65965  0.55228  0.56181  1.0000
  N   N12       1.0  0.93140  0.53836  0.44239  1.0000
  H   H159      1.0  0.94451  0.72802  0.36815  1.0000
  H   H160      1.0  0.60902  0.80513  0.53615  1.0000
  C   C161      1.0  0.56590  0.70396  0.57869  1.0000
  H   H161      1.0  0.68469  0.57897  0.58273  1.0000
  H   H162      1.0  0.82888  0.78827  0.64145  1.0000
  C   C162      1.0  0.54479  0.53458  0.44901  1.0000
  C   C163      1.0  0.56974  0.73654  0.55165  1.0000
  C   C164      1.0  0.62670  0.86944  0.35427  1.0000
  C   C165      1.0  0.85393  0.79712  0.38225  1.0000
  C   C166      1.0  0.89968  0.99892  0.64590  1.0000
  H   H163      1.0  0.71529  0.83149  0.34317  1.0000
  H   H164      1.0  0.68973  0.84580  0.62662  1.0000
  C   C167      1.0  0.86601  0.92608  0.60976  1.0000
  H   H165      1.0  0.90165  0.57704  0.46350  1.0000
  H   H166      1.0  0.60339  0.54458  0.59639  1.0000
  H   H167      1.0  0.80861  0.98099  0.58734  1.0000
  N   N13       1.0  0.86674  0.00615  0.62885  1.0000
  C   C168      1.0  0.89980  0.95882  0.63665  1.0000
  C   C169      1.0  0.83406  0.97469  0.60166  1.0000
  C   C170      1.0  0.90384  0.79027  0.33453  1.0000
  C   C171      1.0  0.88069  0.81224  0.34793  1.0000
  C   C172      1.0  0.67288  0.53788  0.52652  1.0000
  H   H168      1.0  0.86505  0.89432  0.60318  1.0000
  H   H169      1.0  0.96531  0.56158  0.38651  1.0000
  C   C173      1.0  0.61449  0.82461  0.35874  1.0000
  C   C174      1.0  0.67088  0.89997  0.34522  1.0000
  C   C175      1.0  0.85107  0.76074  0.40295  1.0000
  C   C176      1.0  0.91482  0.55520  0.47199  1.0000
  H   H170      1.0  0.92535  0.95276  0.65103  1.0000
  H   H171      1.0  0.66850  0.86160  0.58210  1.0000
  H   H172      1.0  0.87323  0.71212  0.40560  1.0000
  H   H173      1.0  0.99131  0.86872  0.37140  1.0000
  H   H174      1.0  0.70347  0.83604  0.57496  1.0000
  H   H175      1.0  0.58077  0.80097  0.36723  1.0000
  N   N14       1.0  0.90151  0.75512  0.35551  1.0000
  N   N15       1.0  0.63695  0.79114  0.59012  1.0000
  H   H176      1.0  0.80634  0.90847  0.57141  1.0000
  C   C177      1.0  0.64635  0.81075  0.35384  1.0000
  S   S61       1.0  0.75523  0.80834  0.63920  1.0000
  H   H177      1.0  0.59583  0.68978  0.63184  1.0000
  H   H178      1.0  0.70828  0.55337  0.52015  1.0000
  C   C178      1.0  0.91542  0.54523  0.51383  1.0000
  H   H179      1.0  0.83529  0.81337  0.39289  1.0000
  C   C179      1.0  0.93221  0.51703  0.52510  1.0000
  C   C180      1.0  0.92586  0.73223  0.34138  1.0000
  S   S62       1.0  0.00824  0.66224  0.47892  1.0000
  C   C181      1.0  0.61415  0.53262  0.56974  1.0000
  H   H180      1.0  0.76567  0.93723  0.36414  1.0000
  C   C182      1.0  0.74861  0.91937  0.33394  1.0000
  H   H181      1.0  0.92262  0.57646  0.39495  1.0000
  H   H182      1.0  0.57357  0.98677  0.54632  1.0000
  H   H183      1.0  0.54556  0.72782  0.52555  1.0000
  C   C183      1.0  0.00979  0.86280  0.34753  1.0000
  C   C184      1.0  0.54690  0.99394  0.53805  1.0000
  N   N16       1.0  0.70195  0.88613  0.34069  1.0000
  C   C185      1.0  0.83834  0.81765  0.66179  1.0000
  H   H184      1.0  0.90659  0.51939  0.37949  1.0000
  H   H185      1.0  0.93362  0.50946  0.55749  1.0000
  C   C186      1.0  0.94734  0.51022  0.45309  1.0000
  H   H186      1.0  0.01331  0.81182  0.63989  1.0000
  S   S63       1.0  0.01336  0.75101  0.43634  1.0000
  H   H187      1.0  0.88386  0.84093  0.33179  1.0000
  Fe  Fe32      1.0  0.98192  0.97405  0.76652  1.0000
  S   S64       1.0  0.94807  0.90402  0.73506  1.0000
  H   H188      1.0  0.87316  0.92297  0.73555  1.0000
  C   C187      1.0  0.89379  0.87754  0.70971  1.0000
  C   C188      1.0  0.82098  0.87180  0.69382  1.0000
  C   C189      1.0  0.88079  0.83931  0.68320  1.0000
  H   H189      1.0  0.79789  0.88451  0.69810  1.0000
  C   C190      1.0  0.99994  0.99351  0.97114  1.0000
  C   C191      1.0  0.86367  0.89374  0.71500  1.0000
  H   H190      1.0  0.98572  0.96980  0.94453  1.0000
  H   H191      1.0  0.90363  0.82624  0.67919  1.0000
  H   H192      1.0  0.99927  0.86840  0.67660  1.0000
  C   C192      1.0  0.80820  0.83377  0.66699  1.0000
