data_image0
_chemical_formula_structural       FeS2FeSFeSFeS3C5H2C2H5CH2C5NHCH2S2H3FeS2FeHFeSFeS3CNC2HC2HC3H5SCH2C3HCH2SNCH2CHCHC3HCHNH2C2HC4H3CH2CFeS2FeS2FeSFeHS2CFeS2NSCFeS2HSHFeS2FeS2FeCFeS3C5H5NHCHCHC7H4CHCFeCHSH2CH2C7H4C6H2CH2CH2NC3HC2H3FeHCH3CHCH2CH2CNC6H8NC6H2CHCHCHNHC2HCH4SC3H6CH4C2SC3FeS2FeS2FeSFeS3HCSHFeSHFeSFeCSCFeSHFeS2FeSFeS3CH3SNH2C8H4CHC6H4C6H4C5H3CFeHCSCH6NSCH3CHCHC2NCHSN2C6H9CH2C3HCHCH3C2HC2HCHCHC2HCHCH3CHC3HCH3CHNHC2SH4CH2C3HFeS2FeHFeS3FeHSC2SCSHSH2FeS2FeS2CFeCHS2HCNCHFeC2HC3HCH3C2HCNH3CH4SC6H5CFeHC5SH6NCS2HC2HCH5C4H2CH3CHCSCH3CH3C3H2FeS2FeHFeCS2FeS2HSCSHNHC2SHCSNFeS2H5C3H2CH2C2H2SFeSC3H2CHCH2NHCHC3HCHC5H3C6H4CFeNHC4HCHCH2SFeSHSH3FeSH2C2SH4CFeS2FeS2FeCFeS3FeCSFeS2FeSFeHS2HSFeSHFeSFeS2FeS2FeS2FeSFeS4FeS2FeS2FeSFeS3CHC6H4C6H4C2H2C2H2CH2C3H2CFeCHC3SHC3HC6H4C3H4C7H4CHC10H2CH4C3H4C2HC4H2CHSHNH2C2H3CH4CHC3SC2HCHCH3C5H3C2H2NHC2H4CNC3NC6H2CH5NC6H4CH3NC6H8CH6SC3NC6H4CH3C2NH2C2HC2HC2HC4HCHNC2HNH2C3NH2C2H2S2H2C2H2SCHCH2NSHNC2NCSH6C3HC3H2CH3CSCFeSCFeSFeSFeS3FeCHFeS2C2FeHS2FeSFeSCFeSFeS2FeS2FeSCFeSFeS3CFeS2FeS2FeSFeS3CHC3HC2H4C6H4C6H7C4H2CSH3C7H4C6H4C6H6C2HC4HSCH3CNC5H2CH2CHSHNH2C2NH2C2H2NH2FeH2CHNH2CH3CH3CH3C4HCH2CHCH2CHCNC2HCHCH3CSC3FeHCHNC6H2CH2C2H2CHC2H7NC6H2CHSH4CHCHCNH2C2H2NCHSCH3C2H2CH2CH2CH4CH4CH4CHCSHCFeS2HSFeS2FeS2FeSFeS3FeS2FeS2FeSFeS3FeS2FeS2FeSFeS3FeS2FeS2FeSFeS3FeS2FeSFeSFeHS3C6H4CSC5H4CSHNH2C6H4C3HCHCH7C6H4CH2CHNHC2HC6H4CH3C2HC2HC6H4C2H2FeSHC2H2C7H4NH2C2H2FeHC3HSC2H2CHC2NC3HCHCH2CH2C2H2C2HNC6H12C2HSNH2CHCHSC3H2CH2NC6H3CHC3HC3HC2HSCH2C3H2CHC4HCFeNCH5C2NCHCHCH2CH4NC2H2C4H5CSC4H2CHCHFeCH3CHC2HS2H2SFeS2FeS2FeCFeS3FeS2FeS2FeSFeS3FeS2FeSCFeSFeS3FeS2FeSCFeSFeS3FeS2FeSFeSFeS3CSNC6H4C5H4C2SH2CH2C6H4CH2CHC7H4C6H4C6H4C2H4C2HCNC7H6CNC5H12C3HCH2CNC6H8NC6H3CSH6C6H3SCH3CFeCS2C7H3C2HCH6CSH2C2H3C2H3NC2NC2H3C2HCHC2HC4HCH3NC3HC2HCH2C2HFeH2CH3CNH3C2HSCH3FeCHCNHCHC3H2CNFeHFeCH4SFeCHSCHC2HC2HCHCSHCSCFeSHSCHC3FeH2S2FeSCFeS2FeSFeSH2C3NHCHCH3SNCH2C2HCH2CH6FeHSC6H5FeHNFeHC4H2FeCHCH2CNCHCH2CNH6C3H4CHFeS2FeC2FeSCSHFeS2HCHCNC2FeS2FeSHFe2SHSC4SCH4C6HNHCSCH3CSC2HCHC2H2C2HC3HC6H4C3HCHCSC2H3CHCNH2CH2SH2NH3CNCHC5S2C2SNSHCH3CHNCHCHC3HSH4CH2CSHCHC2H2C2HC3SH2SHFeS2FeS2FeSFeS3FeS2FeS2FeSFeS3FeSCFeS2FeSFeS3C5H6C6H4C2H2C2H4C3HCH5C6H4CHC4H2C7H4NC4H5C2HCH3C2SCNCHC3H2CHFeCHCH5NC7H3C5HCH4NC2HCHC3HCH2CH3CHC2HNCHN2H2CH3SH2SHFeH2NSCHC4H2C3HCH2C2HNHCH4SFeS2FeS2FeSFeS3FeS2FeSCFeSFeS3FeS2FeS2FeSFeCS2CHC9H4CHCHCH2SHC7H4C2HN2H6C5H2C6H4C2H5CNH2CHC2HC3HC2HNH2C5HCHC2H3CH2CSCH4NHC2HCHSCHC3HCHNCH7CH2FeHCHCHC2HC3H2CHCH2NCHCHCHSFeH3FeS3HCHC5HCFeSCSCFeSH3CH2SFeCHS2HC4HCH
_chemical_formula_sum              "Fe192 S384 C1152 H1152 N96"
_cell_length_a       87.1999
_cell_length_b       86.5113
_cell_length_c       45.3422
_cell_angle_alpha    87.5357
_cell_angle_beta     87.1327
_cell_angle_gamma    108.74

_space_group_name_H-M_alt    "P 1"
_space_group_IT_number       1

loop_
  _space_group_symop_operation_xyz
  'x, y, z'

loop_
  _atom_site_type_symbol
  _atom_site_label
  _atom_site_symmetry_multiplicity
  _atom_site_fract_x
  _atom_site_fract_y
  _atom_site_fract_z
  _atom_site_occupancy
  Fe  Fe1       1.0  0.04702  0.45744  0.35531  1.0000
  S   S1        1.0  0.06579  0.44741  0.37381  1.0000
  S   S2        1.0  0.02242  0.44820  0.33595  1.0000
  Fe  Fe2       1.0  0.06436  0.49147  0.37381  1.0000
  S   S3        1.0  0.08427  0.48454  0.39432  1.0000
  Fe  Fe3       1.0  0.08451  0.47085  0.35305  1.0000
  S   S4        1.0  0.11051  0.47526  0.33325  1.0000
  Fe  Fe4       1.0  0.06448  0.46213  0.41339  1.0000
  S   S5        1.0  0.05764  0.45237  0.46147  1.0000
  S   S6        1.0  0.06573  0.47946  0.33168  1.0000
  S   S7        1.0  0.04475  0.47043  0.39583  1.0000
  C   C1        1.0  0.00678  0.42975  0.34717  1.0000
  C   C2        1.0  0.01850  0.50107  0.38042  1.0000
  C   C3        1.0  0.11220  0.48609  0.27366  1.0000
  C   C4        1.0  0.12058  0.48351  0.29793  1.0000
  C   C5        1.0  0.12066  0.49210  0.24592  1.0000
  H   H1        1.0  0.09005  0.47543  0.46682  1.0000
  H   H2        1.0  0.02584  0.49309  0.38159  1.0000
  C   C6        1.0  0.00469  0.48582  0.33966  1.0000
  C   C7        1.0  0.08338  0.47358  0.48817  1.0000
  H   H3        1.0  0.02221  0.41749  0.36622  1.0000
  H   H4        1.0  0.09914  0.48302  0.27598  1.0000
  H   H5        1.0  0.15906  0.49614  0.26389  1.0000
  H   H6        1.0  0.10207  0.50477  0.32016  1.0000
  H   H7        1.0  0.01022  0.46275  0.42400  1.0000
  C   C8        1.0  0.06715  0.46355  0.49119  1.0000
  H   H8        1.0  0.14421  0.48537  0.31262  1.0000
  H   H9        1.0  0.19249  0.50037  0.02038  1.0000
  C   C9        1.0  0.00990  0.41654  0.36155  1.0000
  C   C10       1.0  0.13763  0.49580  0.24201  1.0000
  C   C11       1.0  0.14607  0.49359  0.26647  1.0000
  C   C12       1.0  0.13758  0.48741  0.29413  1.0000
  C   C13       1.0  0.00791  0.41624  0.44167  1.0000
  N   N1        1.0  0.00733  0.49922  0.35962  1.0000
  H   H10       1.0  0.02253  0.44127  0.43192  1.0000
  C   C14       1.0  0.01039  0.43250  0.43207  1.0000
  H   H11       1.0  0.01553  0.48172  0.33706  1.0000
  H   H12       1.0  0.01802  0.41256  0.44861  1.0000
  S   S8        1.0  0.22915  0.50483  0.16856  1.0000
  S   S9        1.0  0.14748  0.50282  0.20605  1.0000
  H   H13       1.0  0.11395  0.49363  0.22719  1.0000
  H   H14       1.0  0.00471  0.45561  0.38783  1.0000
  H   H15       1.0  0.00223  0.48973  0.31725  1.0000
  Fe  Fe5       1.0  0.06284  0.45796  0.66940  1.0000
  S   S10       1.0  0.08908  0.46314  0.65280  1.0000
  S   S11       1.0  0.04504  0.43205  0.67539  1.0000
  Fe  Fe6       1.0  0.06630  0.49355  0.66862  1.0000
  H   H16       1.0  0.04612  0.45352  0.52167  1.0000
  Fe  Fe7       1.0  0.08385  0.48091  0.62025  1.0000
  S   S12       1.0  0.09389  0.48573  0.57219  1.0000
  Fe  Fe8       1.0  0.09530  0.48327  0.68504  1.0000
  S   S13       1.0  0.11893  0.49512  0.70825  1.0000
  S   S14       1.0  0.05761  0.47480  0.63526  1.0000
  S   S15       1.0  0.06945  0.47634  0.70440  1.0000
  C   C15       1.0  0.12786  0.49497  0.74293  1.0000
  N   N2        1.0  0.01830  0.49851  0.73966  1.0000
  C   C16       1.0  0.16237  0.46352  0.85787  1.0000
  C   C17       1.0  0.12791  0.48428  0.79367  1.0000
  H   H17       1.0  0.03849  0.41327  0.62091  1.0000
  C   C18       1.0  0.05870  0.46118  0.51915  1.0000
  C   C19       1.0  0.00447  0.50241  0.74519  1.0000
  H   H18       1.0  0.15079  0.46077  0.84672  1.0000
  C   C20       1.0  0.08299  0.47771  0.54124  1.0000
  C   C21       1.0  0.06655  0.46830  0.54407  1.0000
  C   C22       1.0  0.09126  0.48056  0.51310  1.0000
  H   H19       1.0  0.00714  0.47492  0.68176  1.0000
  H   H20       1.0  0.09477  0.44397  0.53869  1.0000
  H   H21       1.0  0.12199  0.47540  0.81163  1.0000
  H   H22       1.0  0.05999  0.46615  0.56554  1.0000
  H   H23       1.0  0.18117  0.47506  0.95029  1.0000
  S   S16       1.0  0.15202  0.49598  0.83220  1.0000
  C   C23       1.0  0.05445  0.42421  0.55416  1.0000
  H   H24       1.0  0.13854  0.47338  0.88154  1.0000
  H   H25       1.0  0.13647  0.48312  0.93159  1.0000
  C   C24       1.0  0.01791  0.44161  0.66885  1.0000
  C   C25       1.0  0.02397  0.42858  0.67254  1.0000
  C   C26       1.0  0.01311  0.41247  0.67350  1.0000
  H   H26       1.0  0.09272  0.44818  0.59239  1.0000
  C   C27       1.0  0.14776  0.47338  0.89672  1.0000
  H   H27       1.0  0.02608  0.45404  0.66806  1.0000
  H   H28       1.0  0.01769  0.40230  0.67634  1.0000
  S   S17       1.0  0.09212  0.50136  0.65049  1.0000
  N   N3        1.0  0.05342  0.42661  0.58376  1.0000
  C   C28       1.0  0.03772  0.42083  0.60092  1.0000
  H   H29       1.0  0.04368  0.41799  0.54298  1.0000
  H   H30       1.0  0.17157  0.47367  0.84444  1.0000
  C   C29       1.0  0.17252  0.46894  0.90699  1.0000
  H   H31       1.0  0.18300  0.46557  0.89986  1.0000
  C   C30       1.0  0.14305  0.49608  0.79753  1.0000
  H   H32       1.0  0.15790  0.48392  0.96629  1.0000
  C   C31       1.0  0.06698  0.43489  0.59755  1.0000
  C   C32       1.0  0.17154  0.47424  0.93552  1.0000
  C   C33       1.0  0.14648  0.47888  0.92503  1.0000
  H   H33       1.0  0.02784  0.41328  0.58802  1.0000
  C   C34       1.0  0.15845  0.47926  0.94452  1.0000
  H   H34       1.0  0.10872  0.47458  0.76414  1.0000
  N   N4        1.0  0.16065  0.46846  0.88807  1.0000
  H   H35       1.0  0.16612  0.45241  0.85793  1.0000
  H   H36       1.0  0.06609  0.43689  0.62095  1.0000
  C   C35       1.0  0.12032  0.48376  0.76668  1.0000
  C   C36       1.0  0.08208  0.44112  0.58163  1.0000
  H   H37       1.0  0.03431  0.43145  0.60835  1.0000
  C   C37       1.0  0.06938  0.43013  0.53763  1.0000
  C   C38       1.0  0.08325  0.43872  0.55149  1.0000
  C   C39       1.0  0.00620  0.48252  0.69970  1.0000
  C   C40       1.0  0.01921  0.48850  0.71752  1.0000
  H   H38       1.0  0.03010  0.48525  0.71323  1.0000
  H   H39       1.0  0.04321  0.50310  0.74865  1.0000
  H   H40       1.0  0.02889  0.49792  0.78056  1.0000
  C   C41       1.0  0.03188  0.50462  0.75849  1.0000
  H   H41       1.0  0.10397  0.48785  0.51065  1.0000
  H   H42       1.0  0.07008  0.42872  0.51395  1.0000
  C   C42       1.0  0.00119  0.43856  0.66634  1.0000
  Fe  Fe9       1.0  0.07351  0.60079  0.42284  1.0000
  S   S18       1.0  0.07252  0.59175  0.47011  1.0000
  S   S19       1.0  0.05140  0.59901  0.39715  1.0000
  Fe  Fe10      1.0  0.11082  0.61437  0.41610  1.0000
  S   S20       1.0  0.11275  0.60611  0.46334  1.0000
  S   S21       1.0  0.13533  0.62481  0.38937  1.0000
  Fe  Fe11      1.0  0.09303  0.58322  0.45478  1.0000
  S   S22       1.0  0.09314  0.55863  0.47205  1.0000
  Fe  Fe12      1.0  0.09223  0.61535  0.47558  1.0000
  H   H43       1.0  0.12610  0.53075  0.39219  1.0000
  S   S23       1.0  0.09270  0.59033  0.40659  1.0000
  S   S24       1.0  0.09166  0.62565  0.42923  1.0000
  C   C43       1.0  0.21090  0.63770  0.08923  1.0000
  Fe  Fe13      1.0  0.19218  0.53379  0.12908  1.0000
  S   S25       1.0  0.21601  0.54250  0.15031  1.0000
  S   S26       1.0  0.19038  0.54506  0.08317  1.0000
  N   N5        1.0  0.02124  0.60409  0.45759  1.0000
  S   S27       1.0  0.19677  0.52124  0.21181  1.0000
  C   C44       1.0  0.17050  0.53812  0.25531  1.0000
  Fe  Fe14      1.0  0.20171  0.54630  0.19011  1.0000
  S   S28       1.0  0.21055  0.56794  0.21793  1.0000
  S   S29       1.0  0.05937  0.51524  0.37261  1.0000
  H   H44       1.0  0.18384  0.54216  0.25765  1.0000
  S   S30       1.0  0.17840  0.53989  0.16777  1.0000
  H   H45       1.0  0.10097  0.55810  0.39410  1.0000
  Fe  Fe15      1.0  0.19562  0.68467  0.17250  1.0000
  S   S31       1.0  0.21610  0.67462  0.17363  1.0000
  S   S32       1.0  0.19471  0.69898  0.13004  1.0000
  Fe  Fe16      1.0  0.18168  0.66964  0.23541  1.0000
  S   S33       1.0  0.20150  0.65839  0.24048  1.0000
  S   S34       1.0  0.15871  0.66641  0.26533  1.0000
  Fe  Fe17      1.0  0.21827  0.68281  0.21998  1.0000
  C   C45       1.0  0.13034  0.65020  0.48063  1.0000
  Fe  Fe18      1.0  0.19760  0.65163  0.19330  1.0000
  S   S35       1.0  0.19282  0.62879  0.16841  1.0000
  S   S36       1.0  0.19872  0.69447  0.21779  1.0000
  S   S37       1.0  0.17687  0.66129  0.18949  1.0000
  C   C46       1.0  0.19308  0.68736  0.09847  1.0000
  C   C47       1.0  0.18767  0.67028  0.10159  1.0000
  C   C48       1.0  0.18607  0.66108  0.07647  1.0000
  C   C49       1.0  0.19578  0.68591  0.04475  1.0000
  C   C50       1.0  0.19695  0.69516  0.06995  1.0000
  H   H46       1.0  0.18456  0.66409  0.12336  1.0000
  H   H47       1.0  0.16714  0.71270  0.15176  1.0000
  H   H48       1.0  0.20106  0.70838  0.06733  1.0000
  H   H49       1.0  0.15382  0.58582  0.20163  1.0000
  H   H50       1.0  0.15974  0.68798  0.12753  1.0000
  N   N6        1.0  0.16575  0.55116  0.24073  1.0000
  H   H51       1.0  0.17670  0.70729  0.18287  1.0000
  C   C51       1.0  0.19037  0.66880  0.04800  1.0000
  H   H52       1.0  0.04722  0.61367  0.45320  1.0000
  C   C52       1.0  0.15687  0.57603  0.21308  1.0000
  H   H53       1.0  0.23182  0.72246  0.21427  1.0000
  C   C53       1.0  0.17328  0.56707  0.24683  1.0000
  C   C54       1.0  0.20660  0.58530  0.20352  1.0000
  C   C55       1.0  0.21114  0.59979  0.21844  1.0000
  C   C56       1.0  0.20703  0.61339  0.20794  1.0000
  C   C57       1.0  0.19822  0.61232  0.18275  1.0000
  C   C58       1.0  0.19357  0.59779  0.16813  1.0000
  C   C59       1.0  0.19801  0.58443  0.17814  1.0000
  H   H54       1.0  0.21779  0.60049  0.23814  1.0000
  H   H55       1.0  0.21064  0.62461  0.21931  1.0000
  H   H56       1.0  0.18640  0.59683  0.14910  1.0000
  H   H57       1.0  0.19459  0.57340  0.16639  1.0000
  C   C60       1.0  0.19017  0.53535  0.04930  1.0000
  H   H58       1.0  0.13961  0.55666  0.19185  1.0000
  C   C61       1.0  0.18732  0.60092  0.05070  1.0000
  Fe  Fe19      1.0  0.20942  0.51682  0.17002  1.0000
  C   C62       1.0  0.10409  0.51478  0.33469  1.0000
  H   H59       1.0  0.19901  0.69199  0.02289  1.0000
  S   S38       1.0  0.18613  0.50758  0.14645  1.0000
  H   H60       1.0  0.16396  0.53447  0.27743  1.0000
  H   H61       1.0  0.20295  0.58242  0.10350  1.0000
  C   C63       1.0  0.00865  0.56301  0.42490  1.0000
  H   H62       1.0  0.14731  0.53472  0.21739  1.0000
  H   H63       1.0  0.03323  0.57096  0.43945  1.0000
  C   C64       1.0  0.15345  0.54736  0.22193  1.0000
  C   C65       1.0  0.14118  0.63578  0.35417  1.0000
  C   C66       1.0  0.13095  0.64257  0.33928  1.0000
  C   C67       1.0  0.13649  0.65182  0.31211  1.0000
  C   C68       1.0  0.15221  0.65424  0.29926  1.0000
  C   C69       1.0  0.16235  0.64728  0.31401  1.0000
  C   C70       1.0  0.15689  0.63823  0.34136  1.0000
  H   H64       1.0  0.11886  0.64087  0.34881  1.0000
  H   H65       1.0  0.12854  0.65717  0.30100  1.0000
  H   H66       1.0  0.17448  0.64906  0.30457  1.0000
  H   H67       1.0  0.16495  0.63310  0.35266  1.0000
  C   C71       1.0  0.08077  0.54494  0.44917  1.0000
  C   C72       1.0  0.07092  0.55028  0.43058  1.0000
  C   C73       1.0  0.06379  0.54082  0.40761  1.0000
  C   C74       1.0  0.06607  0.52575  0.40395  1.0000
  C   C75       1.0  0.07463  0.51975  0.42426  1.0000
  C   C76       1.0  0.08219  0.52942  0.44669  1.0000
  H   H68       1.0  0.06921  0.56197  0.43321  1.0000
  H   H69       1.0  0.05691  0.54539  0.39224  1.0000
  C   C77       1.0  0.09772  0.53819  0.35171  1.0000
  H   H70       1.0  0.08974  0.52517  0.46100  1.0000
  H   H71       1.0  0.23034  0.71025  0.14175  1.0000
  C   C78       1.0  0.11532  0.51670  0.35623  1.0000
  H   H72       1.0  0.24580  0.75230  0.20481  1.0000
  H   H73       1.0  0.18315  0.57011  0.26149  1.0000
  N   N7        1.0  0.20422  0.62074  0.08100  1.0000
  C   C79       1.0  0.20732  0.60852  0.09727  1.0000
  C   C80       1.0  0.19424  0.61713  0.05812  1.0000
  C   C81       1.0  0.20059  0.59217  0.09047  1.0000
  H   H74       1.0  0.24765  0.53801  0.12008  1.0000
  C   C82       1.0  0.19052  0.58838  0.06704  1.0000
  C   C83       1.0  0.11149  0.55349  0.39254  1.0000
  H   H75       1.0  0.21484  0.61135  0.11598  1.0000
  H   H76       1.0  0.19155  0.62679  0.04549  1.0000
  H   H77       1.0  0.00364  0.55450  0.44382  1.0000
  Fe  Fe20      1.0  0.17396  0.51435  0.18719  1.0000
  H   H78       1.0  0.13536  0.67031  0.43208  1.0000
  C   C84       1.0  0.18867  0.54364  0.02272  1.0000
  H   H79       1.0  0.14628  0.65989  0.41033  1.0000
  H   H80       1.0  0.09046  0.54627  0.35016  1.0000
  H   H81       1.0  0.18513  0.57571  0.06180  1.0000
  C   C85       1.0  0.19157  0.51972  0.04820  1.0000
  H   H82       1.0  0.14378  0.65871  0.12706  1.0000
  C   C86       1.0  0.02538  0.57244  0.42259  1.0000
  H   H83       1.0  0.01335  0.53356  0.41397  1.0000
  H   H84       1.0  0.02996  0.51503  0.41628  1.0000
  C   C87       1.0  0.02131  0.58623  0.37763  1.0000
  H   H85       1.0  0.11317  0.54951  0.41546  1.0000
  H   H86       1.0  0.21215  0.64652  0.06993  1.0000
  C   C88       1.0  0.03163  0.58441  0.39920  1.0000
  N   N8        1.0  0.15478  0.68926  0.17383  1.0000
  C   C89       1.0  0.15349  0.68147  0.14795  1.0000
  C   C90       1.0  0.14748  0.68083  0.19976  1.0000
  C   C91       1.0  0.14445  0.66488  0.14753  1.0000
  C   C92       1.0  0.13829  0.66425  0.20014  1.0000
  C   C93       1.0  0.13678  0.65625  0.17383  1.0000
  C   C94       1.0  0.19140  0.51247  0.02089  1.0000
  H   H87       1.0  0.12129  0.65638  0.48105  1.0000
  H   H88       1.0  0.14907  0.68678  0.22053  1.0000
  H   H89       1.0  0.15643  0.64060  0.43359  1.0000
  H   H90       1.0  0.13294  0.65756  0.22098  1.0000
  H   H91       1.0  0.13004  0.64330  0.17399  1.0000
  H   H92       1.0  0.15871  0.71320  0.18858  1.0000
  H   H93       1.0  0.24238  0.53545  0.19749  1.0000
  H   H94       1.0  0.02595  0.59540  0.35953  1.0000
  N   N9        1.0  0.10864  0.53990  0.37299  1.0000
  C   C95       1.0  0.11746  0.52942  0.37533  1.0000
  C   C96       1.0  0.24454  0.72765  0.21809  1.0000
  C   C97       1.0  0.03711  0.60756  0.47005  1.0000
  C   C98       1.0  0.13627  0.65809  0.42770  1.0000
  C   C99       1.0  0.01973  0.61230  0.43198  1.0000
  C   C100      1.0  0.09521  0.52555  0.33240  1.0000
  H   H95       1.0  0.03795  0.61557  0.48880  1.0000
  H   H96       1.0  0.17532  0.59237  0.23734  1.0000
  C   C101      1.0  0.00465  0.60896  0.41984  1.0000
  H   H97       1.0  0.00362  0.61497  0.39889  1.0000
  C   C102      1.0  0.14898  0.55973  0.20751  1.0000
  H   H98       1.0  0.12241  0.56376  0.38409  1.0000
  C   C103      1.0  0.02086  0.51346  0.40019  1.0000
  H   H99       1.0  0.18153  0.64788  0.07914  1.0000
  N   N10       1.0  0.13908  0.64986  0.45487  1.0000
  H   H100      1.0  0.12490  0.65052  0.41854  1.0000
  C   C104      1.0  0.14988  0.64134  0.45420  1.0000
  C   C105      1.0  0.16477  0.70648  0.17430  1.0000
  H   H101      1.0  0.16765  0.52715  0.24207  1.0000
  C   C106      1.0  0.16894  0.57972  0.23317  1.0000
  H   H102      1.0  0.19271  0.51319  0.06842  1.0000
  H   H103      1.0  0.18753  0.55570  0.02326  1.0000
  H   H104      1.0  0.17945  0.59813  0.03249  1.0000
  H   H105      1.0  0.16076  0.62623  0.47912  1.0000
  S   S39       1.0  0.24393  0.69595  0.23278  1.0000
  C   C107      1.0  0.15237  0.63316  0.47990  1.0000
  C   C108      1.0  0.00482  0.57695  0.37996  1.0000
  C   C109      1.0  0.01161  0.52392  0.39876  1.0000
  H   H106      1.0  0.03034  0.62099  0.42014  1.0000
  H   H107      1.0  0.07590  0.50789  0.42224  1.0000
  H   H108      1.0  0.24974  0.69755  0.16161  1.0000
  H   H109      1.0  0.22310  0.64010  0.09782  1.0000
  H   H110      1.0  0.20274  0.64010  0.10682  1.0000
  H   H111      1.0  0.12205  0.50813  0.35836  1.0000
  C   C110      1.0  0.00792  0.59277  0.47203  1.0000
  H   H112      1.0  0.08605  0.52382  0.31639  1.0000
  H   H113      1.0  0.03902  0.59600  0.47787  1.0000
  H   H114      1.0  0.00912  0.58618  0.49220  1.0000
  H   H115      1.0  0.23935  0.74019  0.12932  1.0000
  C   C111      1.0  0.24788  0.73449  0.13735  1.0000
  C   C112      1.0  0.24857  0.51516  0.18068  1.0000
  S   S40       1.0  0.18896  0.65639  0.01758  1.0000
  C   C113      1.0  0.24281  0.71767  0.14437  1.0000
  C   C114      1.0  0.13274  0.64238  0.50681  1.0000
  C   C115      1.0  0.14375  0.63373  0.50637  1.0000
  Fe  Fe21      1.0  0.07929  0.60532  0.72944  1.0000
  S   S41       1.0  0.08324  0.58440  0.70672  1.0000
  S   S42       1.0  0.05353  0.60622  0.72979  1.0000
  Fe  Fe22      1.0  0.11536  0.62031  0.74062  1.0000
  S   S43       1.0  0.12144  0.60039  0.71726  1.0000
  S   S44       1.0  0.13856  0.63772  0.75747  1.0000
  Fe  Fe23      1.0  0.10468  0.60304  0.68279  1.0000
  S   S45       1.0  0.10926  0.59767  0.63505  1.0000
  Fe  Fe24      1.0  0.09950  0.58371  0.74291  1.0000
  S   S46       1.0  0.10099  0.56010  0.76266  1.0000
  S   S47       1.0  0.10022  0.62447  0.70353  1.0000
  S   S48       1.0  0.09397  0.60314  0.76825  1.0000
  H   H116      1.0  0.21752  0.56802  0.97415  1.0000
  C   C116      1.0  0.17505  0.69406  0.83787  1.0000
  S   S49       1.0  0.19052  0.53782  0.83174  1.0000
  H   H117      1.0  0.16850  0.56135  0.80669  1.0000
  Fe  Fe25      1.0  0.18858  0.52146  0.91404  1.0000
  S   S50       1.0  0.20540  0.54601  0.89703  1.0000
  H   H118      1.0  0.16274  0.68700  0.83338  1.0000
  Fe  Fe26      1.0  0.18438  0.54845  0.87310  1.0000
  S   S51       1.0  0.17552  0.57010  0.86926  1.0000
  Fe  Fe27      1.0  0.21033  0.53312  0.85756  1.0000
  C   C117      1.0  0.18778  0.69453  0.81742  1.0000
  S   S52       1.0  0.16690  0.52487  0.89347  1.0000
  C   C118      1.0  0.06114  0.57148  0.64936  1.0000
  Fe  Fe28      1.0  0.19561  0.66546  0.96922  1.0000
  S   S53       1.0  0.22130  0.67374  0.94936  1.0000
  H   H119      1.0  0.23722  0.51648  0.88423  1.0000
  Fe  Fe29      1.0  0.18141  0.66562  0.90774  1.0000
  S   S54       1.0  0.20609  0.67438  0.88359  1.0000
  S   S55       1.0  0.15690  0.65977  0.88723  1.0000
  Fe  Fe30      1.0  0.21153  0.65603  0.91452  1.0000
  S   S56       1.0  0.22422  0.63850  0.89943  1.0000
  Fe  Fe31      1.0  0.21372  0.69141  0.92046  1.0000
  S   S57       1.0  0.22709  0.71890  0.91534  1.0000
  S   S58       1.0  0.18648  0.64633  0.93653  1.0000
  S   S59       1.0  0.18837  0.68414  0.94249  1.0000
  C   C119      1.0  0.18981  0.52070  0.99437  1.0000
  H   H120      1.0  0.22371  0.54225  0.98413  1.0000
  H   H121      1.0  0.09756  0.56338  0.62114  1.0000
  H   H122      1.0  0.15586  0.56245  0.75875  1.0000
  S   S60       1.0  0.23662  0.54120  0.83853  1.0000
  N   N11       1.0  0.17810  0.70204  0.86344  1.0000
  H   H123      1.0  0.14537  0.62729  0.52645  1.0000
  H   H124      1.0  0.07388  0.57728  0.64236  1.0000
  C   C120      1.0  0.20369  0.70331  0.82319  1.0000
  C   C121      1.0  0.15675  0.55262  0.80292  1.0000
  C   C122      1.0  0.18938  0.58903  0.87705  1.0000
  C   C123      1.0  0.18380  0.60239  0.88005  1.0000
  C   C124      1.0  0.19449  0.61767  0.88633  1.0000
  C   C125      1.0  0.21083  0.61964  0.88998  1.0000
  C   C126      1.0  0.21652  0.60636  0.88635  1.0000
  C   C127      1.0  0.20580  0.59104  0.87997  1.0000
  H   H125      1.0  0.17112  0.60082  0.87794  1.0000
  H   H126      1.0  0.19010  0.62793  0.88820  1.0000
  H   H127      1.0  0.22921  0.60799  0.88856  1.0000
  H   H128      1.0  0.21023  0.58086  0.87702  1.0000
  C   C128      1.0  0.16475  0.70134  0.88499  1.0000
  H   H129      1.0  0.05910  0.60287  0.62842  1.0000
  C   C129      1.0  0.14327  0.64269  0.79428  1.0000
  C   C130      1.0  0.13126  0.64162  0.81661  1.0000
  C   C131      1.0  0.13565  0.64674  0.84502  1.0000
  C   C132      1.0  0.15203  0.65249  0.85170  1.0000
  C   C133      1.0  0.16403  0.65306  0.82963  1.0000
  C   C134      1.0  0.15967  0.64848  0.80095  1.0000
  H   H130      1.0  0.11861  0.63735  0.81174  1.0000
  H   H131      1.0  0.12627  0.64632  0.86189  1.0000
  H   H132      1.0  0.17669  0.65740  0.83446  1.0000
  H   H133      1.0  0.16907  0.64942  0.78379  1.0000
  C   C135      1.0  0.08706  0.54531  0.74359  1.0000
  C   C136      1.0  0.07187  0.54677  0.73866  1.0000
  C   C137      1.0  0.06165  0.53645  0.71965  1.0000
  C   C138      1.0  0.06651  0.52441  0.70609  1.0000
  C   C139      1.0  0.08126  0.52234  0.71255  1.0000
  C   C140      1.0  0.09164  0.53295  0.73078  1.0000
  H   H134      1.0  0.06817  0.55610  0.74912  1.0000
  H   H135      1.0  0.05009  0.53790  0.71543  1.0000
  H   H136      1.0  0.08500  0.51286  0.70298  1.0000
  H   H137      1.0  0.10349  0.53199  0.73359  1.0000
  C   C141      1.0  0.10399  0.60665  0.60298  1.0000
  C   C142      1.0  0.10718  0.60114  0.57541  1.0000
  C   C143      1.0  0.10280  0.60744  0.54925  1.0000
  C   C144      1.0  0.09259  0.62544  0.57781  1.0000
  C   C145      1.0  0.09665  0.61884  0.60415  1.0000
  H   H138      1.0  0.11314  0.59195  0.57425  1.0000
  H   H139      1.0  0.09437  0.62338  0.62523  1.0000
  H   H140      1.0  0.22906  0.58520  0.92813  1.0000
  C   C146      1.0  0.19367  0.71067  0.86928  1.0000
  Fe  Fe32      1.0  0.17387  0.51397  0.85274  1.0000
  H   H141      1.0  0.11045  0.51404  0.76641  1.0000
  C   C147      1.0  0.09882  0.53021  0.58470  1.0000
  S   S61       1.0  0.19425  0.50814  0.87527  1.0000
  C   C148      1.0  0.09096  0.52200  0.53516  1.0000
  H   H142      1.0  0.10136  0.52476  0.79167  1.0000
  H   H143      1.0  0.03443  0.51791  0.76125  1.0000
  H   H144      1.0  0.01606  0.55082  0.67564  1.0000
  H   H145      1.0  0.08331  0.54955  0.53423  1.0000
  H   H146      1.0  0.06263  0.54697  0.64906  1.0000
  H   H147      1.0  0.00367  0.51031  0.76277  1.0000
  N   N12       1.0  0.12673  0.53006  0.79366  1.0000
  S   S62       1.0  0.09101  0.62854  0.51726  1.0000
  C   C149      1.0  0.24801  0.72795  0.90414  1.0000
  H   H148      1.0  0.19615  0.71680  0.88976  1.0000
  H   H149      1.0  0.21904  0.71821  0.85414  1.0000
  H   H150      1.0  0.02774  0.58093  0.66923  1.0000
  C   C150      1.0  0.02871  0.55651  0.66786  1.0000
  H   H151      1.0  0.16622  0.69523  0.90621  1.0000
  C   C151      1.0  0.13358  0.52939  0.81998  1.0000
  H   H152      1.0  0.24379  0.74236  0.98195  1.0000
  C   C152      1.0  0.08817  0.54703  0.55481  1.0000
  C   C153      1.0  0.03993  0.57281  0.74084  1.0000
  N   N13       1.0  0.09291  0.53349  0.55860  1.0000
  C   C154      1.0  0.05841  0.59870  0.65209  1.0000
  H   H153      1.0  0.07079  0.60296  0.66031  1.0000
  S   S63       1.0  0.05439  0.51207  0.68082  1.0000
  N   N14       1.0  0.05151  0.58082  0.65568  1.0000
  N   N15       1.0  0.14605  0.60390  0.80454  1.0000
  C   C155      1.0  0.15355  0.61062  0.82895  1.0000
  C   C156      1.0  0.12949  0.59759  0.80520  1.0000
  C   C157      1.0  0.14442  0.61101  0.85500  1.0000
  C   C158      1.0  0.11998  0.59774  0.83090  1.0000
  C   C159      1.0  0.12753  0.60454  0.85591  1.0000
  C   C160      1.0  0.15581  0.60448  0.77698  1.0000
  H   H154      1.0  0.16666  0.61605  0.82821  1.0000
  H   H155      1.0  0.12350  0.59254  0.78571  1.0000
  H   H156      1.0  0.15040  0.61674  0.87407  1.0000
  H   H157      1.0  0.10685  0.59287  0.83116  1.0000
  H   H158      1.0  0.12032  0.60509  0.87580  1.0000
  H   H159      1.0  0.15857  0.61669  0.76512  1.0000
  H   H160      1.0  0.16739  0.60234  0.78157  1.0000
  H   H161      1.0  0.14922  0.59506  0.76208  1.0000
  H   H162      1.0  0.01908  0.59864  0.72341  1.0000
  C   C161      1.0  0.02695  0.55800  0.74318  1.0000
  H   H163      1.0  0.02925  0.54673  0.74897  1.0000
  H   H164      1.0  0.08716  0.63505  0.57877  1.0000
  C   C162      1.0  0.03542  0.57356  0.66433  1.0000
  C   C163      1.0  0.01110  0.55769  0.73812  1.0000
  C   C164      1.0  0.00830  0.57240  0.73079  1.0000
  H   H165      1.0  0.10128  0.51708  0.53369  1.0000
  C   C165      1.0  0.09558  0.61970  0.55026  1.0000
  H   H166      1.0  0.09059  0.52801  0.51317  1.0000
  C   C166      1.0  0.09604  0.55489  0.60371  1.0000
  H   H167      1.0  0.05202  0.57289  0.74501  1.0000
  H   H168      1.0  0.16453  0.71385  0.88889  1.0000
  H   H169      1.0  0.10525  0.60296  0.52825  1.0000
  C   C167      1.0  0.02132  0.58729  0.72881  1.0000
  C   C168      1.0  0.03721  0.58752  0.73366  1.0000
  H   H170      1.0  0.24784  0.75235  0.91170  1.0000
  C   C169      1.0  0.10055  0.54089  0.60758  1.0000
  C   C170      1.0  0.23228  0.57427  0.93284  1.0000
  H   H171      1.0  0.15275  0.69405  0.87747  1.0000
  C   C171      1.0  0.08966  0.55792  0.57727  1.0000
  H   H172      1.0  0.12899  0.54257  0.75127  1.0000
  C   C172      1.0  0.14864  0.54067  0.82500  1.0000
  H   H173      1.0  0.18528  0.68791  0.79746  1.0000
  C   C173      1.0  0.14967  0.55326  0.77617  1.0000
  C   C174      1.0  0.05486  0.55440  0.65286  1.0000
  H   H174      1.0  0.18711  0.54279  0.97521  1.0000
  C   C175      1.0  0.11067  0.51857  0.78902  1.0000
  H   H175      1.0  0.05107  0.60471  0.66529  1.0000
  C   C176      1.0  0.22565  0.56458  0.95884  1.0000
  H   H176      1.0  0.08602  0.56871  0.57402  1.0000
  H   H177      1.0  0.16212  0.51657  0.77638  1.0000
  H   H178      1.0  0.23892  0.57417  0.86798  1.0000
  C   C177      1.0  0.18844  0.53635  0.99540  1.0000
  H   H179      1.0  0.24823  0.71635  0.97106  1.0000
  C   C178      1.0  0.03855  0.54690  0.66220  1.0000
  C   C179      1.0  0.23927  0.54557  0.94427  1.0000
  C   C180      1.0  0.13449  0.54190  0.77199  1.0000
  H   H180      1.0  0.21372  0.70362  0.80776  1.0000
  C   C181      1.0  0.20668  0.71152  0.84920  1.0000
  H   H181      1.0  0.14895  0.51556  0.72874  1.0000
  H   H182      1.0  0.12754  0.51998  0.83716  1.0000
  H   H183      1.0  0.15401  0.54015  0.84589  1.0000
  C   C182      1.0  0.24953  0.52273  0.87538  1.0000
  H   H184      1.0  0.10538  0.53833  0.62817  1.0000
  N   N16       1.0  0.24220  0.56970  0.91312  1.0000
  H   H185      1.0  0.10232  0.51932  0.58787  1.0000
  C   C183      1.0  0.24785  0.57910  0.88474  1.0000
  C   C184      1.0  0.22911  0.55010  0.96445  1.0000
  S   S64       1.0  0.18990  0.51102  0.96059  1.0000
  H   H186      1.0  0.03362  0.53367  0.66553  1.0000
  H   H187      1.0  0.12579  0.64272  0.52718  1.0000
  H   H188      1.0  0.24182  0.53420  0.94812  1.0000
  H   H189      1.0  0.24940  0.59227  0.88671  1.0000
  C   C185      1.0  0.24578  0.55560  0.91864  1.0000
  H   H190      1.0  0.10743  0.50760  0.80467  1.0000
  H   H191      1.0  0.07956  0.51155  0.53990  1.0000
  C   C186      1.0  0.15048  0.50744  0.77395  1.0000
  C   C187      1.0  0.14297  0.50682  0.74688  1.0000
  C   C188      1.0  0.44173  0.44428  0.29654  1.0000
  H   H192      1.0  0.43757  0.39444  0.43584  1.0000
  Fe  Fe33      1.0  0.40804  0.45119  0.36192  1.0000
  S   S65       1.0  0.38685  0.45611  0.38523  1.0000
  S   S66       1.0  0.40568  0.42711  0.34236  1.0000
  Fe  Fe34      1.0  0.39559  0.48067  0.35975  1.0000
  H   H193      1.0  0.42048  0.37808  0.42606  1.0000
  Fe  Fe35      1.0  0.40483  0.46742  0.41863  1.0000
  S   S67       1.0  0.39708  0.45936  0.46687  1.0000
  S   S68       1.0  0.41513  0.47459  0.33342  1.0000
  S   S69       1.0  0.42533  0.46082  0.39661  1.0000
  Fe  Fe36      1.0  0.47213  0.38793  0.38328  1.0000
  H   H194      1.0  0.49707  0.35150  0.21730  1.0000
  S   S70       1.0  0.44532  0.37986  0.37682  1.0000
  C   C189      1.0  0.49790  0.38120  0.50395  1.0000
  C   C190      1.0  0.40689  0.46927  0.49742  1.0000
  S   S71       1.0  0.38174  0.49677  0.34080  1.0000
  C   C191      1.0  0.27764  0.49141  0.24102  1.0000
  S   S72       1.0  0.45541  0.01378  0.32595  1.0000
  H   H195      1.0  0.49548  0.31151  0.11585  1.0000
  S   S73       1.0  0.48238  0.40403  0.41985  1.0000
  H   H196      1.0  0.47899  0.10076  0.47919  1.0000
  H   H197      1.0  0.44710  0.04269  0.30031  1.0000
  Fe  Fe37      1.0  0.48298  0.07434  0.33658  1.0000
  S   S74       1.0  0.34695  0.49250  0.21957  1.0000
  S   S75       1.0  0.48155  0.09503  0.30462  1.0000
  Fe  Fe38      1.0  0.47568  0.05883  0.40065  1.0000
  S   S76       1.0  0.48237  0.03677  0.38898  1.0000
  S   S77       1.0  0.46686  0.06169  0.44755  1.0000
  C   C192      1.0  0.49039  0.31601  0.16115  1.0000
  Fe  Fe39      1.0  0.46858  0.03681  0.34858  1.0000
  C   C193      1.0  0.46341  0.43840  0.32259  1.0000
  H   H198      1.0  0.43580  0.43081  0.29661  1.0000
  S   S78       1.0  0.46015  0.05768  0.36171  1.0000
  S   S79       1.0  0.48587  0.37012  0.39204  1.0000
  H   H199      1.0  0.42860  0.41494  0.47068  1.0000
  C   C194      1.0  0.47862  0.45668  0.35735  1.0000
  N   N17       1.0  0.45427  0.44842  0.31793  1.0000
  C   C195      1.0  0.42440  0.38812  0.44140  1.0000
  H   H200      1.0  0.46330  0.03156  0.26950  1.0000
  Fe  Fe40      1.0  0.49764  0.38774  0.42589  1.0000
  C   C196      1.0  0.47731  0.05929  0.47915  1.0000
  C   C197      1.0  0.49111  0.10004  0.48100  1.0000
  H   H201      1.0  0.47177  0.47816  0.36347  1.0000
  C   C198      1.0  0.49272  0.05754  0.47663  1.0000
  C   C199      1.0  0.39484  0.40846  0.41619  1.0000
  C   C200      1.0  0.46914  0.04363  0.25871  1.0000
  H   H202      1.0  0.45030  0.47078  0.32803  1.0000
  C   C201      1.0  0.40341  0.39735  0.41908  1.0000
  H   H203      1.0  0.48282  0.43437  0.34637  1.0000
  H   H204      1.0  0.44882  0.49281  0.41992  1.0000
  H   H205      1.0  0.44715  0.44911  0.27400  1.0000
  C   C202      1.0  0.49682  0.32063  0.13212  1.0000
  C   C203      1.0  0.42108  0.48278  0.49378  1.0000
  H   H206      1.0  0.27031  0.49807  0.09452  1.0000
  C   C204      1.0  0.45729  0.46265  0.33210  1.0000
  N   N18       1.0  0.41537  0.39973  0.43849  1.0000
  H   H207      1.0  0.50088  0.17540  0.24776  1.0000
  H   H208      1.0  0.37467  0.47210  0.29648  1.0000
  H   H209      1.0  0.41348  0.43477  0.46677  1.0000
  C   C205      1.0  0.41061  0.42425  0.45331  1.0000
  H   H210      1.0  0.36085  0.47079  0.24950  1.0000
  H   H211      1.0  0.45012  0.06415  0.29769  1.0000
  H   H212      1.0  0.39186  0.43063  0.43158  1.0000
  H   H213      1.0  0.43258  0.00975  0.37747  1.0000
  S   S80       1.0  0.49018  0.05333  0.32071  1.0000
  C   C206      1.0  0.41779  0.41501  0.35176  1.0000
  C   C207      1.0  0.43159  0.42066  0.36804  1.0000
  C   C208      1.0  0.44076  0.41029  0.37474  1.0000
  C   C209      1.0  0.43582  0.39415  0.36590  1.0000
  C   C210      1.0  0.42201  0.38864  0.34990  1.0000
  C   C211      1.0  0.41323  0.39907  0.34248  1.0000
  H   H214      1.0  0.43519  0.43294  0.37542  1.0000
  H   H215      1.0  0.45133  0.41457  0.38745  1.0000
  H   H216      1.0  0.41805  0.37619  0.34318  1.0000
  H   H217      1.0  0.40261  0.39460  0.32992  1.0000
  H   H218      1.0  0.42264  0.38250  0.46432  1.0000
  C   C212      1.0  0.36997  0.48176  0.28970  1.0000
  Fe  Fe41      1.0  0.43061  0.48468  0.37039  1.0000
  H   H219      1.0  0.40068  0.38705  0.40515  1.0000
  C   C213      1.0  0.37153  0.49487  0.30762  1.0000
  C   C214      1.0  0.36216  0.48108  0.26306  1.0000
  C   C215      1.0  0.41906  0.41299  0.45543  1.0000
  C   C216      1.0  0.49084  0.06186  0.22630  1.0000
  C   C217      1.0  0.48439  0.07441  0.23115  1.0000
  S   S81       1.0  0.48995  0.40270  0.34694  1.0000
  H   H220      1.0  0.49394  0.33086  0.27767  1.0000
  H   H221      1.0  0.43188  0.44944  0.30231  1.0000
  H   H222      1.0  0.42642  0.48729  0.47179  1.0000
  H   H223      1.0  0.48798  0.03643  0.23634  1.0000
  H   H224      1.0  0.38573  0.40685  0.40008  1.0000
  H   H225      1.0  0.48398  0.30327  0.16773  1.0000
  N   N19       1.0  0.46320  0.05616  0.26406  1.0000
  C   C218      1.0  0.47035  0.07126  0.24990  1.0000
  S   S82       1.0  0.45558  0.50151  0.35722  1.0000
  S   S83       1.0  0.41181  0.49240  0.39545  1.0000
  H   H226      1.0  0.48106  0.11952  0.25998  1.0000
  C   C219      1.0  0.39843  0.42192  0.43355  1.0000
  C   C220      1.0  0.44881  0.05335  0.28434  1.0000
  H   H227      1.0  0.46552  0.08115  0.25384  1.0000
  C   C221      1.0  0.46943  0.46692  0.35215  1.0000
  H   H228      1.0  0.49037  0.08662  0.22095  1.0000
  H   H229      1.0  0.47413  0.37709  0.48820  1.0000
  H   H230      1.0  0.28887  0.50388  0.11289  1.0000
  H   H231      1.0  0.31140  0.48006  0.23118  1.0000
  H   H232      1.0  0.43782  0.05105  0.27166  1.0000
  C   C222      1.0  0.47566  0.44235  0.34246  1.0000
  C   C223      1.0  0.35619  0.49365  0.25373  1.0000
  C   C224      1.0  0.49300  0.11822  0.25797  1.0000
  C   C225      1.0  0.48311  0.04631  0.23993  1.0000
  H   H233      1.0  0.49591  0.35236  0.31338  1.0000
  H   H234      1.0  0.26488  0.48731  0.23668  1.0000
  C   C226      1.0  0.49276  0.32789  0.18198  1.0000
  H   H235      1.0  0.49924  0.48221  0.44690  1.0000
  H   H236      1.0  0.28210  0.47081  0.22127  1.0000
  H   H237      1.0  0.38564  0.49550  0.21225  1.0000
  C   C227      1.0  0.30372  0.48719  0.23784  1.0000
  H   H238      1.0  0.48810  0.45988  0.37279  1.0000
  C   C228      1.0  0.28730  0.48202  0.23229  1.0000
  S   S84       1.0  0.49759  0.07726  0.37677  1.0000
  C   C229      1.0  0.49670  0.10695  0.27739  1.0000
  H   H239      1.0  0.25858  0.49682  0.16605  1.0000
  H   H240      1.0  0.48811  0.32410  0.20472  1.0000
  H   H241      1.0  0.49459  0.09674  0.43464  1.0000
  C   C230      1.0  0.45934  0.50370  0.41661  1.0000
  H   H242      1.0  0.46106  0.42712  0.31137  1.0000
  H   H243      1.0  0.49809  0.05657  0.45504  1.0000
  H   H244      1.0  0.48317  0.00571  0.33855  1.0000
  C   C231      1.0  0.31032  0.50172  0.25167  1.0000
  C   C232      1.0  0.49988  0.09776  0.45593  1.0000
  C   C233      1.0  0.47051  0.06047  0.50741  1.0000
  H   H245      1.0  0.44992  0.44163  0.77566  1.0000
  H   H246      1.0  0.44986  0.37309  0.64732  1.0000
  Fe  Fe42      1.0  0.41154  0.45625  0.67256  1.0000
  S   S85       1.0  0.39798  0.47070  0.64836  1.0000
  S   S86       1.0  0.40315  0.42880  0.68071  1.0000
  Fe  Fe43      1.0  0.42252  0.48444  0.62569  1.0000
  H   H247      1.0  0.47390  0.12400  0.76149  1.0000
  Fe  Fe44      1.0  0.40495  0.48804  0.68520  1.0000
  C   C234      1.0  0.49769  0.10059  0.50852  1.0000
  S   S87       1.0  0.43534  0.46870  0.64740  1.0000
  S   S88       1.0  0.41637  0.47235  0.71100  1.0000
  Fe  Fe45      1.0  0.47261  0.39055  0.69814  1.0000
  S   S89       1.0  0.47633  0.36757  0.68248  1.0000
  S   S90       1.0  0.44994  0.39072  0.72416  1.0000
  H   H248      1.0  0.49649  0.45636  0.67398  1.0000
  S   S91       1.0  0.47193  0.37389  0.59682  1.0000
  C   C235      1.0  0.47314  0.43329  0.73250  1.0000
  S   S92       1.0  0.43096  0.49458  0.57833  1.0000
  H   H249      1.0  0.45849  0.05974  0.75947  1.0000
  N   N20       1.0  0.31027  0.49722  0.82215  1.0000
  H   H250      1.0  0.40892  0.37515  0.66852  1.0000
  C   C236      1.0  0.38075  0.50192  0.74076  1.0000
  C   C237      1.0  0.47053  0.09862  0.75437  1.0000
  S   S93       1.0  0.48400  0.04493  0.69270  1.0000
  H   H251      1.0  0.43032  0.35842  0.64294  1.0000
  C   C238      1.0  0.37136  0.48797  0.78928  1.0000
  S   S94       1.0  0.48922  0.03165  0.62636  1.0000
  N   N21       1.0  0.46090  0.44001  0.73367  1.0000
  Fe  Fe46      1.0  0.46956  0.03725  0.65292  1.0000
  S   S95       1.0  0.44425  0.01874  0.65242  1.0000
  S   S96       1.0  0.47626  0.06312  0.63257  1.0000
  H   H252      1.0  0.46039  0.37353  0.53861  1.0000
  H   H253      1.0  0.43585  0.43411  0.74740  1.0000
  H   H254      1.0  0.32020  0.48504  0.85420  1.0000
  H   H255      1.0  0.38931  0.45283  0.52917  1.0000
  H   H256      1.0  0.32948  0.49023  0.80196  1.0000
  C   C239      1.0  0.47923  0.06053  0.53279  1.0000
  C   C240      1.0  0.47491  0.11259  0.77063  1.0000
  C   C241      1.0  0.36593  0.50080  0.79828  1.0000
  H   H257      1.0  0.47431  0.46874  0.67687  1.0000
  H   H258      1.0  0.47403  0.06197  0.55425  1.0000
  C   C242      1.0  0.47340  0.37627  0.53606  1.0000
  H   H259      1.0  0.44562  0.42099  0.76385  1.0000
  H   H260      1.0  0.47929  0.06606  0.74377  1.0000
  C   C243      1.0  0.40996  0.39579  0.63952  1.0000
  C   C244      1.0  0.30830  0.48614  0.84847  1.0000
  H   H261      1.0  0.29989  0.47384  0.84449  1.0000
  H   H262      1.0  0.48071  0.07254  0.80032  1.0000
  S   S97       1.0  0.42846  0.50289  0.66030  1.0000
  Fe  Fe47      1.0  0.43914  0.48593  0.68364  1.0000
  S   S98       1.0  0.47926  0.40435  0.65434  1.0000
  C   C245      1.0  0.43974  0.39405  0.61847  1.0000
  C   C246      1.0  0.41925  0.40732  0.61771  1.0000
  C   C247      1.0  0.49495  0.05960  0.53008  1.0000
  H   H263      1.0  0.41495  0.41710  0.60965  1.0000
  H   H264      1.0  0.46621  0.09941  0.73250  1.0000
  C   C248      1.0  0.40027  0.46328  0.52616  1.0000
  H   H265      1.0  0.46450  0.07244  0.72554  1.0000
  C   C249      1.0  0.48653  0.45186  0.69083  1.0000
  H   H266      1.0  0.49604  0.34214  0.81327  1.0000
  H   H267      1.0  0.43463  0.36881  0.67708  1.0000
  N   N22       1.0  0.43075  0.38309  0.64051  1.0000
  H   H268      1.0  0.45176  0.45817  0.71530  1.0000
  C   C250      1.0  0.48234  0.37751  0.56133  1.0000
  H   H269      1.0  0.48903  0.09710  0.82953  1.0000
  C   C251      1.0  0.46841  0.06992  0.74773  1.0000
  C   C252      1.0  0.47410  0.45875  0.69238  1.0000
  C   C253      1.0  0.43662  0.37019  0.65254  1.0000
  H   H270      1.0  0.47275  0.42312  0.74774  1.0000
  C   C254      1.0  0.48143  0.11199  0.79797  1.0000
  H   H271      1.0  0.45134  0.39338  0.60988  1.0000
  C   C255      1.0  0.48333  0.09744  0.80888  1.0000
  C   C256      1.0  0.41597  0.38373  0.65086  1.0000
  C   C257      1.0  0.42837  0.49041  0.51875  1.0000
  C   C258      1.0  0.37879  0.48854  0.76071  1.0000
  C   C259      1.0  0.44745  0.43393  0.75637  1.0000
  H   H272      1.0  0.40228  0.46619  0.57311  1.0000
  H   H273      1.0  0.36993  0.47757  0.80457  1.0000
  H   H274      1.0  0.38302  0.47865  0.75415  1.0000
  C   C260      1.0  0.41707  0.41949  0.69334  1.0000
  C   C261      1.0  0.41145  0.40631  0.71445  1.0000
  C   C262      1.0  0.42171  0.39772  0.72355  1.0000
  C   C263      1.0  0.43756  0.40176  0.71089  1.0000
  C   C264      1.0  0.44319  0.41473  0.68919  1.0000
  C   C265      1.0  0.43305  0.42381  0.68086  1.0000
  H   H275      1.0  0.39907  0.40277  0.72392  1.0000
  H   H276      1.0  0.41725  0.38775  0.74034  1.0000
  H   H277      1.0  0.45541  0.41802  0.67929  1.0000
  H   H278      1.0  0.43740  0.43375  0.66405  1.0000
  C   C266      1.0  0.42162  0.48449  0.54752  1.0000
  Fe  Fe48      1.0  0.48449  0.38222  0.63878  1.0000
  N   N23       1.0  0.47252  0.08441  0.76518  1.0000
  H   H279      1.0  0.30343  0.49084  0.86808  1.0000
  C   C267      1.0  0.43421  0.40643  0.60696  1.0000
  C   C268      1.0  0.40761  0.47082  0.55111  1.0000
  C   C269      1.0  0.32181  0.49788  0.80010  1.0000
  C   C270      1.0  0.46137  0.45273  0.71424  1.0000
  H   H280      1.0  0.44156  0.41534  0.59004  1.0000
  C   C271      1.0  0.47873  0.08366  0.79213  1.0000
  H   H281      1.0  0.39850  0.39665  0.64850  1.0000
  C   C272      1.0  0.48610  0.43912  0.71108  1.0000
  H   H282      1.0  0.45858  0.06178  0.50960  1.0000
  H   H283      1.0  0.49077  0.10185  0.52829  1.0000
  S   S99       1.0  0.49753  0.40026  0.71473  1.0000
  Fe  Fe49      1.0  0.49697  0.05771  0.60838  1.0000
  S   S100      1.0  0.46311  0.49368  0.70386  1.0000
  H   H284      1.0  0.29063  0.50542  0.83619  1.0000
  S   S101      1.0  0.49582  0.09445  0.69323  1.0000
  H   H285      1.0  0.49572  0.43375  0.70999  1.0000
  H   H286      1.0  0.48564  0.12293  0.81018  1.0000
  H   H287      1.0  0.49555  0.35607  0.76430  1.0000
  Fe  Fe50      1.0  0.49275  0.07040  0.67049  1.0000
  S   S102      1.0  0.35721  0.49971  0.83485  1.0000
  H   H288      1.0  0.41103  0.49425  0.78298  1.0000
  H   H289      1.0  0.43929  0.50090  0.51582  1.0000
  C   C273      1.0  0.48116  0.37830  0.50747  1.0000
  C   C274      1.0  0.49915  0.38091  0.55778  1.0000
  S   S103      1.0  0.39092  0.50383  0.70519  1.0000
  H   H290      1.0  0.40409  0.50515  0.82829  1.0000
  H   H291      1.0  0.50093  0.30229  0.80221  1.0000
  H   H292      1.0  0.50019  0.31834  0.75609  1.0000
  H   H293      1.0  0.31348  0.84425  0.26195  1.0000
  C   C275      1.0  0.30401  0.82150  0.28804  1.0000
  Fe  Fe51      1.0  0.46798  0.67839  0.20804  1.0000
  S   S104      1.0  0.48737  0.66689  0.19884  1.0000
  S   S105      1.0  0.47691  0.70572  0.19422  1.0000
  Fe  Fe52      1.0  0.44269  0.64462  0.22280  1.0000
  S   S106      1.0  0.46040  0.63109  0.21457  1.0000
  S   S107      1.0  0.41588  0.63111  0.23349  1.0000
  Fe  Fe53      1.0  0.47719  0.65049  0.23999  1.0000
  C   C276      1.0  0.25997  0.53759  0.11849  1.0000
  Fe  Fe54      1.0  0.46890  0.64860  0.17449  1.0000
  S   S108      1.0  0.47460  0.63958  0.13041  1.0000
  S   S109      1.0  0.45897  0.66328  0.25110  1.0000
  S   S110      1.0  0.45013  0.66087  0.18098  1.0000
  Fe  Fe55      1.0  0.46755  0.79213  0.22561  1.0000
  C   C277      1.0  0.38759  0.90509  0.50537  1.0000
  S   S111      1.0  0.46201  0.76670  0.24855  1.0000
  Fe  Fe56      1.0  0.45060  0.81614  0.20489  1.0000
  S   S112      1.0  0.47400  0.83638  0.19355  1.0000
  S   S113      1.0  0.42833  0.82356  0.20074  1.0000
  Fe  Fe57      1.0  0.48222  0.81665  0.17394  1.0000
  S   S114      1.0  0.49839  0.95057  0.39872  1.0000
  Fe  Fe58      1.0  0.48168  0.82931  0.23754  1.0000
  H   H294      1.0  0.39046  0.55838  0.23283  1.0000
  S   S115      1.0  0.45804  0.79691  0.18214  1.0000
  S   S116      1.0  0.45768  0.80971  0.24912  1.0000
  H   H295      1.0  0.40122  0.76753  0.15697  1.0000
  S   S117      1.0  0.34434  0.53785  0.21415  1.0000
  Fe  Fe59      1.0  0.33465  0.52536  0.13330  1.0000
  S   S118      1.0  0.33645  0.55021  0.14829  1.0000
  H   H296      1.0  0.34701  0.93912  0.41557  1.0000
  Fe  Fe60      1.0  0.35841  0.54909  0.17129  1.0000
  S   S119      1.0  0.38409  0.56689  0.16623  1.0000
  Fe  Fe61      1.0  0.32209  0.53643  0.18926  1.0000
  S   S120      1.0  0.30009  0.54249  0.20728  1.0000
  S   S121      1.0  0.35768  0.52508  0.15297  1.0000
  Fe  Fe62      1.0  0.34074  0.78563  0.21067  1.0000
  S   S122      1.0  0.35127  0.80933  0.18386  1.0000
  S   S123      1.0  0.35816  0.77349  0.22778  1.0000
  Fe  Fe63      1.0  0.30628  0.78491  0.20252  1.0000
  S   S124      1.0  0.31475  0.80916  0.17570  1.0000
  S   S125      1.0  0.27886  0.77260  0.20744  1.0000
  Fe  Fe64      1.0  0.33224  0.79883  0.15236  1.0000
  S   S126      1.0  0.34265  0.80091  0.10501  1.0000
  Fe  Fe65      1.0  0.33315  0.81741  0.21005  1.0000
  S   S127      1.0  0.34232  0.84353  0.22507  1.0000
  S   S128      1.0  0.32293  0.77429  0.17727  1.0000
  S   S129      1.0  0.32327  0.79407  0.23873  1.0000
  S   S130      1.0  0.48881  0.60332  0.39046  1.0000
  Fe  Fe66      1.0  0.38193  0.89014  0.36788  1.0000
  S   S131      1.0  0.40132  0.88194  0.38760  1.0000
  S   S132      1.0  0.36050  0.86986  0.35186  1.0000
  Fe  Fe67      1.0  0.39917  0.92581  0.38171  1.0000
  S   S133      1.0  0.41968  0.91993  0.40175  1.0000
  S   S134      1.0  0.39881  0.95184  0.38407  1.0000
  Fe  Fe68      1.0  0.41844  0.90428  0.36326  1.0000
  S   S135      1.0  0.44045  0.90161  0.33931  1.0000
  Fe  Fe69      1.0  0.40068  0.89822  0.42467  1.0000
  S   S136      1.0  0.40509  0.88987  0.47081  1.0000
  S   S137      1.0  0.39928  0.91173  0.34097  1.0000
  S   S138      1.0  0.37984  0.90487  0.40721  1.0000
  C   C278      1.0  0.41577  0.96860  0.36995  1.0000
  H   H297      1.0  0.42427  0.95522  0.33759  1.0000
  C   C279      1.0  0.48335  0.93803  0.37812  1.0000
  C   C280      1.0  0.48481  0.92351  0.36785  1.0000
  C   C281      1.0  0.47190  0.91263  0.35433  1.0000
  C   C282      1.0  0.45755  0.91631  0.35119  1.0000
  C   C283      1.0  0.45643  0.93120  0.36006  1.0000
  C   C284      1.0  0.46929  0.94202  0.37362  1.0000
  H   H298      1.0  0.47720  0.64656  0.02218  1.0000
  H   H299      1.0  0.47284  0.90116  0.34729  1.0000
  H   H300      1.0  0.44553  0.93429  0.35685  1.0000
  H   H301      1.0  0.46809  0.95322  0.38130  1.0000
  C   C285      1.0  0.34984  0.84989  0.25986  1.0000
  C   C286      1.0  0.35899  0.86640  0.26246  1.0000
  C   C287      1.0  0.36351  0.87242  0.29029  1.0000
  C   C288      1.0  0.35837  0.86211  0.31602  1.0000
  C   C289      1.0  0.34960  0.84551  0.31333  1.0000
  C   C290      1.0  0.34569  0.83934  0.28536  1.0000
  H   H302      1.0  0.36232  0.87466  0.24286  1.0000
  H   H303      1.0  0.37030  0.88520  0.29188  1.0000
  H   H304      1.0  0.34561  0.83741  0.33306  1.0000
  H   H305      1.0  0.33894  0.82655  0.28368  1.0000
  C   C291      1.0  0.33177  0.80047  0.07293  1.0000
  C   C292      1.0  0.33966  0.80027  0.04526  1.0000
  H   H306      1.0  0.43390  0.89419  0.43150  1.0000
  H   H307      1.0  0.27025  0.56072  0.13771  1.0000
  C   C293      1.0  0.30774  0.80061  0.04792  1.0000
  C   C294      1.0  0.31571  0.80053  0.07424  1.0000
  H   H308      1.0  0.35206  0.80020  0.04401  1.0000
  H   H309      1.0  0.35820  0.53296  0.07251  1.0000
  C   C295      1.0  0.33475  0.52355  0.05493  1.0000
  H   H310      1.0  0.30954  0.80075  0.09542  1.0000
  H   H311      1.0  0.29050  0.74651  0.23043  1.0000
  C   C296      1.0  0.26110  0.50843  0.17608  1.0000
  C   C297      1.0  0.35870  0.94012  0.40344  1.0000
  C   C298      1.0  0.47083  0.91333  0.45522  1.0000
  H   H312      1.0  0.29301  0.83029  0.19300  1.0000
  H   H313      1.0  0.48355  0.67192  0.34731  1.0000
  C   C299      1.0  0.29858  0.83696  0.21225  1.0000
  Fe  Fe70      1.0  0.34258  0.51397  0.19485  1.0000
  C   C300      1.0  0.47872  0.62503  0.31568  1.0000
  H   H314      1.0  0.49159  0.92358  0.48072  1.0000
  C   C301      1.0  0.28040  0.53188  0.19645  1.0000
  C   C302      1.0  0.26777  0.53840  0.20182  1.0000
  C   C303      1.0  0.27697  0.51682  0.18361  1.0000
  S   S139      1.0  0.49580  0.81826  0.12885  1.0000
  H   H315      1.0  0.27025  0.54997  0.21199  1.0000
  C   C304      1.0  0.39261  0.54691  0.23800  1.0000
  C   C305      1.0  0.50022  0.86092  0.29806  1.0000
  C   C306      1.0  0.31573  0.80053  0.02023  1.0000
  H   H316      1.0  0.49650  0.54310  0.40477  1.0000
  C   C307      1.0  0.40949  0.80946  0.21340  1.0000
  C   C308      1.0  0.39625  0.81514  0.21724  1.0000
  C   C309      1.0  0.38069  0.80411  0.22433  1.0000
  C   C310      1.0  0.37808  0.78730  0.22597  1.0000
  C   C311      1.0  0.39145  0.78163  0.22395  1.0000
  C   C312      1.0  0.40723  0.79275  0.21797  1.0000
  H   H317      1.0  0.39798  0.82808  0.21434  1.0000
  H   H318      1.0  0.37065  0.80864  0.22833  1.0000
  H   H319      1.0  0.38953  0.76862  0.22582  1.0000
  H   H320      1.0  0.41747  0.78833  0.21537  1.0000
  C   C313      1.0  0.48668  0.81843  0.09459  1.0000
  C   C314      1.0  0.47330  0.82386  0.09199  1.0000
  C   C315      1.0  0.46725  0.82522  0.06404  1.0000
  H   H321      1.0  0.35337  0.51660  0.26472  1.0000
  H   H322      1.0  0.47372  0.71319  0.28675  1.0000
  H   H323      1.0  0.46790  0.82747  0.11140  1.0000
  H   H324      1.0  0.45717  0.82985  0.06224  1.0000
  C   C316      1.0  0.46514  0.81283  0.33874  1.0000
  C   C317      1.0  0.40706  0.61230  0.21737  1.0000
  C   C318      1.0  0.41664  0.60509  0.20096  1.0000
  C   C319      1.0  0.40937  0.59077  0.18655  1.0000
  C   C320      1.0  0.39245  0.58359  0.18806  1.0000
  C   C321      1.0  0.38280  0.59047  0.20509  1.0000
  C   C322      1.0  0.39012  0.60480  0.21974  1.0000
  H   H325      1.0  0.42965  0.61066  0.19892  1.0000
  H   H326      1.0  0.41693  0.58548  0.17353  1.0000
  H   H327      1.0  0.36972  0.58504  0.20639  1.0000
  H   H328      1.0  0.38261  0.61030  0.23244  1.0000
  C   C323      1.0  0.47034  0.64797  0.09684  1.0000
  H   H329      1.0  0.38587  0.82746  0.15361  1.0000
  C   C324      1.0  0.36252  0.92231  0.33056  1.0000
  C   C325      1.0  0.47297  0.65017  0.04279  1.0000
  C   C326      1.0  0.47503  0.64279  0.06992  1.0000
  C   C327      1.0  0.47744  0.61571  0.34255  1.0000
  C   C328      1.0  0.47145  0.72221  0.20840  1.0000
  C   C329      1.0  0.46069  0.72015  0.23329  1.0000
  C   C330      1.0  0.45778  0.73386  0.24513  1.0000
  C   C331      1.0  0.46526  0.74970  0.23180  1.0000
  C   C332      1.0  0.47568  0.75168  0.20643  1.0000
  C   C333      1.0  0.47885  0.73803  0.19499  1.0000
  H   H330      1.0  0.45475  0.70804  0.24360  1.0000
  H   H331      1.0  0.44962  0.73219  0.26465  1.0000
  C   C334      1.0  0.43090  0.99789  0.36885  1.0000
  H   H332      1.0  0.49580  0.92053  0.37061  1.0000
  H   H333      1.0  0.37485  0.81921  0.12203  1.0000
  H   H334      1.0  0.40472  0.52646  0.29308  1.0000
  H   H335      1.0  0.31163  0.84328  0.20544  1.0000
  C   C335      1.0  0.47968  0.52626  0.43685  1.0000
  C   C336      1.0  0.46552  0.51006  0.38797  1.0000
  C   C337      1.0  0.47915  0.52407  0.38381  1.0000
  H   H336      1.0  0.46789  0.62549  0.30555  1.0000
  H   H337      1.0  0.45927  0.66420  0.11700  1.0000
  H   H338      1.0  0.29269  0.84626  0.21713  1.0000
  H   H339      1.0  0.48723  0.73981  0.17577  1.0000
  C   C338      1.0  0.26310  0.52384  0.10805  1.0000
  C   C339      1.0  0.49413  0.70959  0.26276  1.0000
  H   H340      1.0  0.36636  0.51742  0.31236  1.0000
  C   C340      1.0  0.47425  0.82087  0.03840  1.0000
  C   C341      1.0  0.48716  0.66931  0.32472  1.0000
  C   C342      1.0  0.41828  0.98407  0.38115  1.0000
  C   C343      1.0  0.27266  0.55030  0.12844  1.0000
  H   H341      1.0  0.48166  0.86966  0.31738  1.0000
  H   H342      1.0  0.27628  0.71675  0.24125  1.0000
  C   C344      1.0  0.47975  0.71220  0.11593  1.0000
  H   H343      1.0  0.25301  0.51378  0.10148  1.0000
  S   S140      1.0  0.49229  0.81109  0.21708  1.0000
  H   H344      1.0  0.45494  0.77657  0.30613  1.0000
  N   N24       1.0  0.48796  0.81006  0.31009  1.0000
  H   H345      1.0  0.46631  0.86868  0.26757  1.0000
  H   H346      1.0  0.48361  0.78813  0.28721  1.0000
  C   C345      1.0  0.29400  0.80523  0.28872  1.0000
  C   C346      1.0  0.48142  0.81898  0.32803  1.0000
  H   H347      1.0  0.48156  0.76378  0.19597  1.0000
  H   H348      1.0  0.31092  0.82611  0.30687  1.0000
  H   H349      1.0  0.27446  0.70209  0.18780  1.0000
  C   C347      1.0  0.30538  0.83171  0.26259  1.0000
  H   H350      1.0  0.26791  0.75710  0.13652  1.0000
  H   H351      1.0  0.28613  0.70702  0.15242  1.0000
  H   H352      1.0  0.28692  0.74390  0.15567  1.0000
  H   H353      1.0  0.40067  0.51019  0.18706  1.0000
  C   C348      1.0  0.40086  0.52913  0.27158  1.0000
  H   H354      1.0  0.39599  0.83060  0.11691  1.0000
  C   C349      1.0  0.28079  0.71211  0.17081  1.0000
  C   C350      1.0  0.49137  0.61495  0.35618  1.0000
  C   C351      1.0  0.25195  0.53016  0.19373  1.0000
  S   S141      1.0  0.48779  0.53690  0.46743  1.0000
  C   C352      1.0  0.30036  0.51092  0.25982  1.0000
  C   C353      1.0  0.47862  0.79502  0.30223  1.0000
  H   H355      1.0  0.44286  0.79257  0.33884  1.0000
  C   C354      1.0  0.39809  0.54392  0.26537  1.0000
  H   H356      1.0  0.47653  0.71971  0.09830  1.0000
  C   C355      1.0  0.36411  0.93348  0.35255  1.0000
  H   H357      1.0  0.37206  0.94598  0.34780  1.0000
  H   H358      1.0  0.36912  0.92613  0.30916  1.0000
  H   H359      1.0  0.36435  0.95300  0.39450  1.0000
  C   C356      1.0  0.36009  0.53441  0.02462  1.0000
  C   C357      1.0  0.47922  0.91531  0.48102  1.0000
  C   C358      1.0  0.44722  0.90031  0.42762  1.0000
  C   C359      1.0  0.28831  0.54924  0.12745  1.0000
  C   C360      1.0  0.25384  0.71055  0.15544  1.0000
  H   H360      1.0  0.45562  0.67722  0.06930  1.0000
  H   H361      1.0  0.46555  0.60907  0.35290  1.0000
  H   H362      1.0  0.48074  0.63337  0.07004  1.0000
  C   C361      1.0  0.44077  0.99645  0.34455  1.0000
  C   C362      1.0  0.46620  0.66279  0.04252  1.0000
  H   H363      1.0  0.48677  0.70854  0.05868  1.0000
  H   H364      1.0  0.28027  0.80534  0.22010  1.0000
  N   N25       1.0  0.48992  0.68348  0.30379  1.0000
  H   H365      1.0  0.29308  0.79706  0.30805  1.0000
  C   C363      1.0  0.45557  0.79742  0.33108  1.0000
  C   C364      1.0  0.49421  0.87018  0.31765  1.0000
  H   H366      1.0  0.29072  0.72095  0.18190  1.0000
  H   H367      1.0  0.45996  0.82011  0.35246  1.0000
  H   H368      1.0  0.40010  0.55300  0.28179  1.0000
  H   H369      1.0  0.49133  0.85724  0.01593  1.0000
  C   C365      1.0  0.48388  0.98431  0.40269  1.0000
  N   N26       1.0  0.45534  0.90270  0.45537  1.0000
  C   C366      1.0  0.35164  0.53066  0.05267  1.0000
  C   C367      1.0  0.28694  0.81004  0.23915  1.0000
  C   C368      1.0  0.27460  0.73639  0.15217  1.0000
  N   N27       1.0  0.44355  0.53845  0.43032  1.0000
  C   C369      1.0  0.45054  0.55402  0.43867  1.0000
  C   C370      1.0  0.44451  0.53504  0.40121  1.0000
  C   C371      1.0  0.45876  0.56665  0.41764  1.0000
  C   C372      1.0  0.45304  0.54729  0.37973  1.0000
  C   C373      1.0  0.46020  0.56320  0.38806  1.0000
  C   C374      1.0  0.43471  0.52556  0.45283  1.0000
  H   H370      1.0  0.44983  0.55675  0.46173  1.0000
  H   H371      1.0  0.43898  0.52275  0.39440  1.0000
  C   C375      1.0  0.48179  0.70592  0.28530  1.0000
  H   H372      1.0  0.45422  0.54437  0.35687  1.0000
  H   H373      1.0  0.46689  0.57287  0.37170  1.0000
  H   H374      1.0  0.43127  0.51325  0.44387  1.0000
  H   H375      1.0  0.44244  0.52535  0.47156  1.0000
  H   H376      1.0  0.42343  0.52768  0.46129  1.0000
  N   N28       1.0  0.41951  0.85614  0.27836  1.0000
  C   C376      1.0  0.42895  0.87062  0.28831  1.0000
  C   C377      1.0  0.42656  0.84619  0.26427  1.0000
  C   C378      1.0  0.44590  0.87529  0.28477  1.0000
  C   C379      1.0  0.44347  0.85054  0.26023  1.0000
  C   C380      1.0  0.45318  0.86517  0.27062  1.0000
  C   C381      1.0  0.40176  0.85175  0.28135  1.0000
  H   H377      1.0  0.42340  0.87865  0.29911  1.0000
  H   H378      1.0  0.41915  0.83484  0.25597  1.0000
  H   H379      1.0  0.45335  0.88673  0.29292  1.0000
  H   H380      1.0  0.44901  0.84267  0.24886  1.0000
  C   C382      1.0  0.47971  0.69262  0.30554  1.0000
  H   H381      1.0  0.39577  0.83828  0.28149  1.0000
  H   H382      1.0  0.39768  0.85581  0.30245  1.0000
  H   H383      1.0  0.39748  0.85761  0.26260  1.0000
  N   N29       1.0  0.41334  0.62124  0.13571  1.0000
  C   C383      1.0  0.42948  0.62348  0.12976  1.0000
  C   C384      1.0  0.40180  0.60783  0.12639  1.0000
  C   C385      1.0  0.43442  0.61189  0.11480  1.0000
  C   C386      1.0  0.40631  0.59597  0.11147  1.0000
  C   C387      1.0  0.42274  0.59802  0.10574  1.0000
  C   C388      1.0  0.40842  0.63355  0.15137  1.0000
  H   H384      1.0  0.43866  0.63412  0.13701  1.0000
  H   H385      1.0  0.38900  0.60586  0.13152  1.0000
  H   H386      1.0  0.44725  0.61361  0.11062  1.0000
  H   H387      1.0  0.39711  0.58499  0.10536  1.0000
  H   H388      1.0  0.42642  0.58880  0.09465  1.0000
  H   H389      1.0  0.41704  0.63886  0.16837  1.0000
  H   H390      1.0  0.40801  0.64350  0.13548  1.0000
  H   H391      1.0  0.39636  0.62804  0.16360  1.0000
  C   C389      1.0  0.26389  0.74394  0.14120  1.0000
  H   H392      1.0  0.41035  0.98540  0.39928  1.0000
  H   H393      1.0  0.45224  0.89276  0.41324  1.0000
  H   H394      1.0  0.48398  0.52896  0.36165  1.0000
  H   H395      1.0  0.27765  0.78677  0.26429  1.0000
  H   H396      1.0  0.31334  0.51490  0.03051  1.0000
  H   H397      1.0  0.47684  0.92023  0.43498  1.0000
  S   S142      1.0  0.46619  0.67457  0.00980  1.0000
  C   C390      1.0  0.48732  0.81494  0.04110  1.0000
  C   C391      1.0  0.48614  0.53221  0.40823  1.0000
  C   C392      1.0  0.39795  0.51746  0.25030  1.0000
  N   N30       1.0  0.39066  0.80672  0.13777  1.0000
  C   C393      1.0  0.40654  0.80756  0.13930  1.0000
  C   C394      1.0  0.37848  0.79209  0.14317  1.0000
  C   C395      1.0  0.41060  0.79344  0.14555  1.0000
  C   C396      1.0  0.38208  0.77777  0.15003  1.0000
  C   C397      1.0  0.39826  0.77847  0.15102  1.0000
  C   C398      1.0  0.38666  0.82176  0.13234  1.0000
  H   H398      1.0  0.41618  0.81925  0.13645  1.0000
  H   H399      1.0  0.36587  0.79142  0.14252  1.0000
  H   H400      1.0  0.42320  0.79427  0.14735  1.0000
  H   H401      1.0  0.37235  0.76633  0.15530  1.0000
  C   C399      1.0  0.42611  0.96704  0.34649  1.0000
  H   H402      1.0  0.48732  0.72064  0.13133  1.0000
  H   H403      1.0  0.46982  0.68956  0.32252  1.0000
  H   H404      1.0  0.37942  0.50856  0.18772  1.0000
  C   C400      1.0  0.46292  0.66009  0.09648  1.0000
  C   C401      1.0  0.27770  0.74135  0.22703  1.0000
  N   N31       1.0  0.35621  0.92861  0.37992  1.0000
  H   H405      1.0  0.46483  0.98430  0.37409  1.0000
  H   H406      1.0  0.29818  0.55882  0.13593  1.0000
  C   C402      1.0  0.49120  0.70126  0.07405  1.0000
  C   C403      1.0  0.26918  0.75145  0.21663  1.0000
  H   H407      1.0  0.44909  0.91228  0.41557  1.0000
  C   C404      1.0  0.33168  0.80023  0.01906  1.0000
  C   C405      1.0  0.35279  0.90609  0.33674  1.0000
  H   H408      1.0  0.36709  0.93752  0.41918  1.0000
  C   C406      1.0  0.49356  0.69197  0.12316  1.0000
  C   C407      1.0  0.43837  0.98095  0.33355  1.0000
  H   H409      1.0  0.44591  0.97970  0.31472  1.0000
  C   C408      1.0  0.26961  0.72448  0.23315  1.0000
  C   C409      1.0  0.46235  0.78841  0.31283  1.0000
  C   C410      1.0  0.46086  0.66745  0.06941  1.0000
  C   C411      1.0  0.47762  0.98956  0.37789  1.0000
  H   H410      1.0  0.35174  0.89716  0.32021  1.0000
  C   C412      1.0  0.46658  0.51171  0.44110  1.0000
  H   H411      1.0  0.48868  0.83112  0.33356  1.0000
  N   N32       1.0  0.29700  0.82589  0.23849  1.0000
  C   C413      1.0  0.34667  0.91271  0.38615  1.0000
  C   C414      1.0  0.49918  0.69089  0.06268  1.0000
  H   H412      1.0  0.47607  0.97477  0.41812  1.0000
  N   N33       1.0  0.26944  0.71993  0.15950  1.0000
  H   H413      1.0  0.33775  0.88846  0.36994  1.0000
  H   H414      1.0  0.29542  0.80090  0.04900  1.0000
  C   C415      1.0  0.34482  0.90122  0.36468  1.0000
  C   C416      1.0  0.25309  0.71749  0.22813  1.0000
  C   C417      1.0  0.28534  0.79946  0.26420  1.0000
  N   N34       1.0  0.27846  0.52282  0.10750  1.0000
  H   H415      1.0  0.34089  0.90870  0.40815  1.0000
  H   H416      1.0  0.30318  0.53454  0.11626  1.0000
  C   C418      1.0  0.29103  0.53538  0.11662  1.0000
  C   C419      1.0  0.39838  0.89611  0.50446  1.0000
  H   H417      1.0  0.50067  0.69008  0.03892  1.0000
  H   H418      1.0  0.46170  0.50692  0.46328  1.0000
  S   S143      1.0  0.49639  0.64682  0.26959  1.0000
  S   S144      1.0  0.32365  0.51802  0.08965  1.0000
  H   H419      1.0  0.38329  0.90861  0.48501  1.0000
  H   H420      1.0  0.37318  0.53956  0.02307  1.0000
  C   C420      1.0  0.48791  0.00156  0.35790  1.0000
  C   C421      1.0  0.49362  0.81394  0.06898  1.0000
  H   H421      1.0  0.43550  0.88546  0.48102  1.0000
  H   H422      1.0  0.49286  0.81154  0.02162  1.0000
  S   S145      1.0  0.48669  0.84801  0.27393  1.0000
  C   C422      1.0  0.32639  0.52047  0.02897  1.0000
  H   H423      1.0  0.46412  0.57903  0.42426  1.0000
  C   C423      1.0  0.38981  0.53495  0.21727  1.0000
  H   H424      1.0  0.30563  0.52233  0.27018  1.0000
  H   H425      1.0  0.46835  0.70460  0.12854  1.0000
  N   N35       1.0  0.39226  0.52036  0.22375  1.0000
  S   S146      1.0  0.31931  0.51166  0.17339  1.0000
  H   H426      1.0  0.49117  0.69214  0.14683  1.0000
  N   N36       1.0  0.28424  0.50570  0.25448  1.0000
  C   C424      1.0  0.27379  0.51496  0.26487  1.0000
  C   C425      1.0  0.44779  0.89390  0.48086  1.0000
  N   N37       1.0  0.48848  0.70168  0.10398  1.0000
  C   C426      1.0  0.49400  0.63385  0.30222  1.0000
  S   S147      1.0  0.49133  0.58277  0.46305  1.0000
  H   H427      1.0  0.28048  0.52833  0.26294  1.0000
  H   H428      1.0  0.47745  0.65868  0.31714  1.0000
  H   H429      1.0  0.38559  0.53739  0.19603  1.0000
  H   H430      1.0  0.49940  0.88719  0.35254  1.0000
  H   H431      1.0  0.26945  0.51116  0.28832  1.0000
  H   H432      1.0  0.28647  0.51156  0.17961  1.0000
  C   C427      1.0  0.28167  0.50830  0.09697  1.0000
  C   C428      1.0  0.36523  0.50725  0.29859  1.0000
  C   C429      1.0  0.38946  0.50808  0.20156  1.0000
  H   H433      1.0  0.28882  0.51139  0.07527  1.0000
  C   C430      1.0  0.25252  0.74457  0.21270  1.0000
  C   C431      1.0  0.35783  0.50680  0.27158  1.0000
  C   C432      1.0  0.45582  0.89562  0.50711  1.0000
  H   H434      1.0  0.26313  0.51302  0.25128  1.0000
  H   H435      1.0  0.39979  0.50585  0.25560  1.0000
  C   C433      1.0  0.47170  0.90631  0.50705  1.0000
  H   H436      1.0  0.49828  0.66574  0.32626  1.0000
  H   H437      1.0  0.49567  0.71967  0.24655  1.0000
  H   H438      1.0  0.32311  0.50585  0.25584  1.0000
  C   C434      1.0  0.50040  0.99116  0.40711  1.0000
  S   S148      1.0  0.47366  0.56061  0.76128  1.0000
  C   C435      1.0  0.34892  0.85564  0.66494  1.0000
  Fe  Fe71      1.0  0.46683  0.66573  0.96340  1.0000
  S   S149      1.0  0.44499  0.66505  0.93853  1.0000
  C   C436      1.0  0.47275  0.98562  0.62608  1.0000
  Fe  Fe72      1.0  0.48406  0.65710  0.90819  1.0000
  S   S150      1.0  0.46364  0.65632  0.87968  1.0000
  Fe  Fe73      1.0  0.46327  0.67910  0.90217  1.0000
  S   S151      1.0  0.46159  0.70173  0.87701  1.0000
  Fe  Fe74      1.0  0.44758  0.64250  0.91891  1.0000
  S   S152      1.0  0.42966  0.61681  0.92105  1.0000
  S   S153      1.0  0.48502  0.68087  0.92778  1.0000
  S   S154      1.0  0.46816  0.64218  0.94665  1.0000
  Fe  Fe75      1.0  0.48582  0.79417  0.92001  1.0000
  C   C437      1.0  0.47085  0.52994  0.64160  1.0000
  H   H439      1.0  0.41665  0.53464  0.74748  1.0000
  Fe  Fe76      1.0  0.45992  0.80712  0.89859  1.0000
  S   S155      1.0  0.47019  0.83133  0.91805  1.0000
  S   S156      1.0  0.43819  0.80116  0.87110  1.0000
  C   C438      1.0  0.33482  0.52444  0.00091  1.0000
  C   C439      1.0  0.48435  0.60548  0.84363  1.0000
  Fe  Fe77      1.0  0.47409  0.81702  0.95816  1.0000
  H   H440      1.0  0.38076  0.82530  0.93794  1.0000
  S   S157      1.0  0.48364  0.80702  0.87696  1.0000
  S   S158      1.0  0.46131  0.79273  0.94015  1.0000
  Fe  Fe78      1.0  0.35030  0.51966  0.85804  1.0000
  S   S159      1.0  0.33761  0.53644  0.83939  1.0000
  Fe  Fe79      1.0  0.35107  0.53366  0.92012  1.0000
  S   S160      1.0  0.33827  0.55112  0.90576  1.0000
  C   C440      1.0  0.27198  0.75254  0.89810  1.0000
  Fe  Fe80      1.0  0.32199  0.53026  0.88230  1.0000
  S   S161      1.0  0.29436  0.52024  0.89009  1.0000
  Fe  Fe81      1.0  0.35509  0.55572  0.86478  1.0000
  S   S162      1.0  0.36939  0.58170  0.84795  1.0000
  S   S163      1.0  0.36867  0.53925  0.88010  1.0000
  Fe  Fe82      1.0  0.33697  0.81352  0.88340  1.0000
  S   S164      1.0  0.34382  0.79092  0.87563  1.0000
  S   S165      1.0  0.34741  0.83835  0.85698  1.0000
  Fe  Fe83      1.0  0.31994  0.79927  0.94502  1.0000
  S   S166      1.0  0.32590  0.77620  0.94101  1.0000
  C   C441      1.0  0.39926  0.54184  0.81183  1.0000
  Fe  Fe84      1.0  0.35038  0.79220  0.92293  1.0000
  S   S167      1.0  0.37196  0.78929  0.94491  1.0000
  Fe  Fe85      1.0  0.31826  0.77691  0.89471  1.0000
  S   S168      1.0  0.30281  0.75212  0.88023  1.0000
  S   S169      1.0  0.34501  0.81538  0.93010  1.0000
  S   S170      1.0  0.31086  0.79940  0.89931  1.0000
  C   C442      1.0  0.48469  0.55275  0.67110  1.0000
  Fe  Fe86      1.0  0.38819  0.88600  0.69599  1.0000
  S   S171      1.0  0.39484  0.88121  0.64913  1.0000
  S   S172      1.0  0.37236  0.86238  0.72202  1.0000
  Fe  Fe87      1.0  0.40980  0.92239  0.68702  1.0000
  S   S173      1.0  0.41760  0.91988  0.64027  1.0000
  S   S174      1.0  0.42419  0.94551  0.70831  1.0000
  Fe  Fe88      1.0  0.39174  0.90517  0.63549  1.0000
  S   S175      1.0  0.38032  0.90990  0.59356  1.0000
  Fe  Fe89      1.0  0.42010  0.89634  0.65771  1.0000
  S   S176      1.0  0.44288  0.89126  0.64362  1.0000
  S   S177      1.0  0.38312  0.90925  0.68157  1.0000
  S   S178      1.0  0.41395  0.89944  0.70510  1.0000
  C   C443      1.0  0.42998  0.96555  0.69125  1.0000
  H   H441      1.0  0.40780  0.96210  0.66972  1.0000
  C   C444      1.0  0.38768  0.90480  0.55940  1.0000
  C   C445      1.0  0.39862  0.89601  0.55843  1.0000
  C   C446      1.0  0.40386  0.89161  0.53111  1.0000
  H   H442      1.0  0.27199  0.77677  0.00269  1.0000
  C   C447      1.0  0.30203  0.51719  0.79446  1.0000
  C   C448      1.0  0.38219  0.90932  0.53277  1.0000
  H   H443      1.0  0.40295  0.89245  0.57874  1.0000
  H   H444      1.0  0.41216  0.88463  0.53067  1.0000
  H   H445      1.0  0.33345  0.50925  0.75790  1.0000
  H   H446      1.0  0.37375  0.91615  0.53331  1.0000
  C   C449      1.0  0.48471  0.93383  0.67163  1.0000
  C   C450      1.0  0.48790  0.92234  0.65359  1.0000
  C   C451      1.0  0.47505  0.90936  0.64441  1.0000
  C   C452      1.0  0.45903  0.90800  0.65310  1.0000
  C   C453      1.0  0.45592  0.91980  0.67042  1.0000
  C   C454      1.0  0.46872  0.93269  0.67966  1.0000
  H   H447      1.0  0.47182  0.59192  0.78428  1.0000
  H   H448      1.0  0.47750  0.90040  0.63066  1.0000
  H   H449      1.0  0.44367  0.91892  0.67729  1.0000
  H   H450      1.0  0.46616  0.94153  0.69362  1.0000
  C   C455      1.0  0.35454  0.84465  0.81938  1.0000
  C   C456      1.0  0.36271  0.86136  0.81179  1.0000
  C   C457      1.0  0.36855  0.86701  0.78233  1.0000
  C   C458      1.0  0.36614  0.85600  0.75994  1.0000
  C   C459      1.0  0.35806  0.83928  0.76756  1.0000
  C   C460      1.0  0.35240  0.83360  0.79707  1.0000
  H   H451      1.0  0.36446  0.87003  0.82882  1.0000
  H   H452      1.0  0.37468  0.87990  0.77692  1.0000
  H   H453      1.0  0.35610  0.83063  0.75048  1.0000
  H   H454      1.0  0.34615  0.82073  0.80246  1.0000
  H   H455      1.0  0.44570  0.77140  0.88682  1.0000
  H   H456      1.0  0.27741  0.76563  0.89916  1.0000
  H   H457      1.0  0.29419  0.52468  0.79267  1.0000
  C   C461      1.0  0.41185  0.53273  0.77039  1.0000
  C   C462      1.0  0.28162  0.53883  0.85286  1.0000
  C   C463      1.0  0.27863  0.52651  0.87548  1.0000
  C   C464      1.0  0.26252  0.51849  0.88659  1.0000
  H   H458      1.0  0.29449  0.76764  0.96904  1.0000
  H   H459      1.0  0.43881  0.74945  0.88422  1.0000
  C   C465      1.0  0.46087  0.87973  0.70394  1.0000
  S   S179      1.0  0.33382  0.51231  0.89971  1.0000
  H   H460      1.0  0.40160  0.83089  0.94543  1.0000
  H   H461      1.0  0.35527  0.87952  0.60136  1.0000
  H   H462      1.0  0.27253  0.78139  0.96355  1.0000
  C   C466      1.0  0.37495  0.51456  0.74954  1.0000
  C   C467      1.0  0.41990  0.79872  0.89138  1.0000
  C   C468      1.0  0.41956  0.79990  0.92200  1.0000
  C   C469      1.0  0.40475  0.79735  0.93814  1.0000
  C   C470      1.0  0.39031  0.79385  0.92366  1.0000
  C   C471      1.0  0.39069  0.79314  0.89291  1.0000
  C   C472      1.0  0.40549  0.79539  0.87680  1.0000
  H   H463      1.0  0.43066  0.80256  0.93332  1.0000
  H   H464      1.0  0.40444  0.79789  0.96196  1.0000
  H   H465      1.0  0.37955  0.79037  0.88169  1.0000
  H   H466      1.0  0.40578  0.79453  0.85305  1.0000
  C   C473      1.0  0.41444  0.60744  0.89728  1.0000
  C   C474      1.0  0.40931  0.61621  0.87537  1.0000
  C   C475      1.0  0.39575  0.60816  0.85958  1.0000
  C   C476      1.0  0.38723  0.59143  0.86587  1.0000
  C   C477      1.0  0.39273  0.58276  0.88729  1.0000
  C   C478      1.0  0.40633  0.59066  0.90261  1.0000
  H   H467      1.0  0.41544  0.62920  0.87122  1.0000
  H   H468      1.0  0.39158  0.61498  0.84303  1.0000
  H   H469      1.0  0.38626  0.57005  0.89283  1.0000
  H   H470      1.0  0.41023  0.58380  0.91952  1.0000
  C   C479      1.0  0.46891  0.72095  0.89272  1.0000
  C   C480      1.0  0.47681  0.72263  0.91908  1.0000
  C   C481      1.0  0.48393  0.73824  0.92956  1.0000
  C   C482      1.0  0.48304  0.75232  0.91412  1.0000
  C   C483      1.0  0.47476  0.75063  0.88816  1.0000
  C   C484      1.0  0.46773  0.73500  0.87753  1.0000
  H   H471      1.0  0.47771  0.71195  0.93115  1.0000
  H   H472      1.0  0.37638  0.52494  0.73421  1.0000
  H   H473      1.0  0.47432  0.76142  0.87572  1.0000
  H   H474      1.0  0.46174  0.73382  0.85701  1.0000
  H   H475      1.0  0.44815  0.75811  0.91661  1.0000
  H   H476      1.0  0.39434  0.55067  0.82151  1.0000
  C   C485      1.0  0.31415  0.51836  0.77233  1.0000
  C   C486      1.0  0.35147  0.87543  0.62433  1.0000
  H   H477      1.0  0.29394  0.54511  0.84411  1.0000
  C   C487      1.0  0.39615  0.75653  0.90581  1.0000
  C   C488      1.0  0.46986  0.54093  0.74924  1.0000
  C   C489      1.0  0.48193  0.53351  0.74966  1.0000
  C   C490      1.0  0.47965  0.51867  0.73643  1.0000
  H   H478      1.0  0.44593  0.53896  0.73645  1.0000
  S   S180      1.0  0.46701  0.82428  0.00347  1.0000
  C   C491      1.0  0.45519  0.53315  0.73697  1.0000
  H   H479      1.0  0.49038  0.97617  0.71315  1.0000
  H   H480      1.0  0.46351  0.52890  0.56866  1.0000
  H   H481      1.0  0.38648  0.75594  0.89128  1.0000
  C   C492      1.0  0.28723  0.74183  0.96320  1.0000
  N   N38       1.0  0.39708  0.83415  0.89993  1.0000
  C   C493      1.0  0.38564  0.83374  0.88014  1.0000
  C   C494      1.0  0.41243  0.83486  0.89021  1.0000
  C   C495      1.0  0.38928  0.83353  0.84980  1.0000
  C   C496      1.0  0.41649  0.83465  0.86000  1.0000
  C   C497      1.0  0.40479  0.83392  0.83972  1.0000
  H   H482      1.0  0.43705  0.98591  0.56757  1.0000
  H   H483      1.0  0.37357  0.83350  0.88775  1.0000
  C   C498      1.0  0.39292  0.83437  0.93160  1.0000
  H   H484      1.0  0.48870  0.56943  0.61859  1.0000
  H   H485      1.0  0.42851  0.83459  0.85252  1.0000
  C   C499      1.0  0.46879  0.96922  0.63599  1.0000
  H   H486      1.0  0.45446  0.61264  0.80723  1.0000
  S   S181      1.0  0.49392  0.77177  0.92620  1.0000
  H   H487      1.0  0.49609  0.90373  0.72724  1.0000
  N   N39       1.0  0.26895  0.75650  0.97622  1.0000
  H   H488      1.0  0.25348  0.55190  0.90289  1.0000
  H   H489      1.0  0.47441  0.55465  0.68423  1.0000
  C   C500      1.0  0.43463  0.98585  0.59185  1.0000
  C   C501      1.0  0.47673  0.55042  0.59063  1.0000
  N   N40       1.0  0.34531  0.88458  0.64246  1.0000
  H   H490      1.0  0.35340  0.58772  0.91580  1.0000
  H   H491      1.0  0.27616  0.71608  0.95783  1.0000
  C   C502      1.0  0.48219  0.55647  0.61771  1.0000
  C   C503      1.0  0.25250  0.53502  0.85272  1.0000
  H   H492      1.0  0.47743  0.96496  0.64752  1.0000
  H   H493      1.0  0.46274  0.61574  0.89960  1.0000
  N   N41       1.0  0.41112  0.51880  0.78669  1.0000
  H   H494      1.0  0.40623  0.55532  0.76950  1.0000
  H   H495      1.0  0.25229  0.70549  0.89444  1.0000
  Fe  Fe90      1.0  0.49986  0.57444  0.74917  1.0000
  H   H496      1.0  0.25341  0.77105  0.98360  1.0000
  H   H497      1.0  0.33797  0.80013  0.99792  1.0000
  C   C504      1.0  0.45611  0.89946  0.73609  1.0000
  H   H498      1.0  0.48931  0.54418  0.68408  1.0000
  N   N42       1.0  0.47717  0.88583  0.70743  1.0000
  H   H499      1.0  0.40434  0.75997  0.97812  1.0000
  H   H500      1.0  0.49266  0.60364  0.78856  1.0000
  C   C505      1.0  0.26860  0.54302  0.84151  1.0000
  H   H501      1.0  0.49282  0.99764  0.70503  1.0000
  H   H502      1.0  0.39324  0.52528  0.85081  1.0000
  H   H503      1.0  0.33969  0.86132  0.70658  1.0000
  C   C506      1.0  0.28437  0.75636  0.96975  1.0000
  H   H504      1.0  0.39705  0.58155  0.99531  1.0000
  H   H505      1.0  0.37648  0.56785  0.99679  1.0000
  H   H506      1.0  0.28173  0.71889  0.88074  1.0000
  C   C507      1.0  0.45009  0.88629  0.71850  1.0000
  H   H507      1.0  0.35874  0.85389  0.62111  1.0000
  H   H508      1.0  0.35435  0.91043  0.63826  1.0000
  H   H509      1.0  0.34451  0.90119  0.60660  1.0000
  C   C508      1.0  0.26646  0.77211  0.98188  1.0000
  C   C509      1.0  0.41953  0.97066  0.67375  1.0000
  C   C510      1.0  0.44501  0.97693  0.69692  1.0000
  C   C511      1.0  0.46130  0.99086  0.61162  1.0000
  H   H510      1.0  0.35088  0.84467  0.67414  1.0000
  C   C512      1.0  0.28166  0.74318  0.88934  1.0000
  H   H511      1.0  0.45308  0.97311  0.71071  1.0000
  H   H512      1.0  0.39076  0.56710  0.96724  1.0000
  C   C513      1.0  0.44963  0.99323  0.68501  1.0000
  H   H513      1.0  0.32827  0.52194  0.98107  1.0000
  C   C514      1.0  0.46515  0.52350  0.61494  1.0000
  H   H514      1.0  0.37030  0.61700  0.91005  1.0000
  H   H515      1.0  0.33241  0.90170  0.63957  1.0000
  C   C515      1.0  0.49479  0.86396  0.95776  1.0000
  H   H516      1.0  0.48450  0.99427  0.62991  1.0000
  C   C516      1.0  0.45689  0.61451  0.85396  1.0000
  N   N43       1.0  0.44631  0.98010  0.60740  1.0000
  C   C517      1.0  0.44242  0.96395  0.61665  1.0000
  C   C518      1.0  0.36380  0.59229  0.92894  1.0000
  H   H517      1.0  0.44609  0.61799  0.85788  1.0000
  C   C519      1.0  0.45285  0.51823  0.72402  1.0000
  H   H518      1.0  0.49909  0.87990  0.70348  1.0000
  C   C520      1.0  0.48003  0.60864  0.87233  1.0000
  H   H519      1.0  0.43548  0.99844  0.59788  1.0000
  H   H520      1.0  0.39492  0.62696  0.93851  1.0000
  H   H521      1.0  0.31584  0.52681  0.75312  1.0000
  C   C521      1.0  0.37330  0.60874  0.92572  1.0000
  S   S182      1.0  0.30562  0.80079  0.98738  1.0000
  C   C522      1.0  0.46168  0.61147  0.82546  1.0000
  C   C523      1.0  0.27419  0.72732  0.96394  1.0000
  C   C524      1.0  0.35173  0.53132  0.99865  1.0000
  Fe  Fe91      1.0  0.49422  0.83060  0.89907  1.0000
  H   H522      1.0  0.45026  0.94561  0.63913  1.0000
  C   C525      1.0  0.40482  0.51626  0.81541  1.0000
  H   H523      1.0  0.44981  0.88864  0.52729  1.0000
  N   N44       1.0  0.38193  0.58716  0.96340  1.0000
  C   C526      1.0  0.39128  0.60330  0.96047  1.0000
  C   C527      1.0  0.36830  0.58161  0.94807  1.0000
  C   C528      1.0  0.45355  0.95832  0.63121  1.0000
  C   C529      1.0  0.36768  0.51408  0.77821  1.0000
  C   C530      1.0  0.46521  0.51119  0.72317  1.0000
  C   C531      1.0  0.38686  0.57543  0.98169  1.0000
  H   H524      1.0  0.40250  0.60763  0.97152  1.0000
  H   H525      1.0  0.42152  0.83511  0.90583  1.0000
  C   C532      1.0  0.46620  0.61318  0.87747  1.0000
  H   H526      1.0  0.36356  0.52403  0.78481  1.0000
  H   H527      1.0  0.43052  0.95539  0.61340  1.0000
  C   C533      1.0  0.40591  0.54444  0.78268  1.0000
  C   C534      1.0  0.48317  0.89870  0.72475  1.0000
  H   H528      1.0  0.38171  0.75729  0.94539  1.0000
  H   H529      1.0  0.38007  0.83302  0.83428  1.0000
  C   C535      1.0  0.38706  0.61434  0.94173  1.0000
  H   H530      1.0  0.27102  0.55258  0.82404  1.0000
  C   C536      1.0  0.47277  0.90574  0.73926  1.0000
  C   C537      1.0  0.35339  0.86085  0.63529  1.0000
  H   H531      1.0  0.49037  0.73944  0.94958  1.0000
  H   H532      1.0  0.40769  0.83358  0.81626  1.0000
  H   H533      1.0  0.49304  0.53923  0.76013  1.0000
  H   H534      1.0  0.45832  0.51060  0.61415  1.0000
  H   H535      1.0  0.33682  0.88719  0.68634  1.0000
  H   H536      1.0  0.39273  0.84672  0.93691  1.0000
  H   H537      1.0  0.44791  0.90504  0.74660  1.0000
  N   N45       1.0  0.42391  0.75861  0.91235  1.0000
  C   C538      1.0  0.42144  0.75954  0.94219  1.0000
  C   C539      1.0  0.41158  0.75737  0.89414  1.0000
  C   C540      1.0  0.40619  0.75886  0.95457  1.0000
  C   C541      1.0  0.46808  0.53382  0.58934  1.0000
  C   C542      1.0  0.25852  0.72748  0.97141  1.0000
  C   C543      1.0  0.43992  0.75944  0.89942  1.0000
  H   H538      1.0  0.43133  0.76100  0.95656  1.0000
  H   H539      1.0  0.41376  0.75740  0.87036  1.0000
  C   C544      1.0  0.39346  0.75727  0.93623  1.0000
  H   H540      1.0  0.46429  0.00366  0.60438  1.0000
  S   S183      1.0  0.36290  0.53626  0.96394  1.0000
  H   H541      1.0  0.36113  0.56873  0.94997  1.0000
  H   H542      1.0  0.50023  0.92358  0.64630  1.0000
  H   H543      1.0  0.48195  0.85669  0.96441  1.0000
  H   H544      1.0  0.47768  0.91617  0.75242  1.0000
  C   C545      1.0  0.25609  0.74229  0.97738  1.0000
  H   H545      1.0  0.44158  0.51237  0.71425  1.0000
  C   C546      1.0  0.34263  0.86502  0.68322  1.0000
  H   H546      1.0  0.45614  0.87008  0.68906  1.0000
  C   C547      1.0  0.39872  0.52766  0.82835  1.0000
  N   N46       1.0  0.47935  0.54622  0.64268  1.0000
  H   H547      1.0  0.25973  0.57821  0.87640  1.0000
  H   H548      1.0  0.42195  0.97797  0.59814  1.0000
  C   C548      1.0  0.25521  0.74498  0.90509  1.0000
  C   C549      1.0  0.34401  0.90022  0.63121  1.0000
  H   H549      1.0  0.47911  0.55860  0.57085  1.0000
  H   H550      1.0  0.48916  0.51314  0.73611  1.0000
  N   N47       1.0  0.47535  0.60716  0.82057  1.0000
  C   C550      1.0  0.48834  0.87931  0.69084  1.0000
  H   H551      1.0  0.46835  0.52185  0.66143  1.0000
  S   S184      1.0  0.49886  0.81779  0.94067  1.0000
  C   C551      1.0  0.27436  0.72621  0.88769  1.0000
  H   H552      1.0  0.47959  0.61378  0.77436  1.0000
  H   H553      1.0  0.29942  0.74196  0.95658  1.0000
  H   H554      1.0  0.47827  0.90751  0.52703  1.0000
  C   C552      1.0  0.42393  0.98707  0.66264  1.0000
  C   C553      1.0  0.25766  0.71859  0.89535  1.0000
  H   H555      1.0  0.41653  0.50674  0.74939  1.0000
  H   H556      1.0  0.48243  0.86626  0.68651  1.0000
  C   C554      1.0  0.34110  0.87965  0.67166  1.0000
  H   H557      1.0  0.41556  0.99101  0.64985  1.0000
  H   H558      1.0  0.43724  0.88159  0.71505  1.0000
  C   C555      1.0  0.48000  0.60391  0.79052  1.0000
  H   H559      1.0  0.49664  0.87711  0.96043  1.0000
  H   H560      1.0  0.48757  0.60799  0.89036  1.0000
  C   C556      1.0  0.32403  0.50855  0.77501  1.0000
  H   H561      1.0  0.49376  0.71871  0.82985  1.0000
  H   H562      1.0  0.26008  0.50889  0.90401  1.0000
  H   H563      1.0  0.49322  0.65571  0.83549  1.0000
  H   H564      1.0  0.49542  0.84497  0.82714  1.0000
  C   C557      1.0  0.43903  0.99840  0.66800  1.0000
  H   H565      1.0  0.49257  0.88654  0.66944  1.0000
  H   H566      1.0  0.49519  0.60207  0.83981  1.0000
  H   H567      1.0  0.46125  0.00184  0.68941  1.0000
  H   H568      1.0  0.49819  0.85894  0.77716  1.0000
  C   C558      1.0  0.41775  0.50685  0.77371  1.0000
  H   H569      1.0  0.49690  0.86228  0.93387  1.0000
  H   H570      1.0  0.49972  0.64892  0.78461  1.0000
  H   H571      1.0  0.49474  0.56459  0.66804  1.0000
  H   H572      1.0  0.48756  0.68857  0.85019  1.0000
  C   C559      1.0  0.49860  0.98798  0.70273  1.0000
  H   H573      1.0  0.43077  0.50988  0.77807  1.0000
  C   C560      1.0  0.30015  0.50635  0.81921  1.0000
  S   S185      1.0  0.50051  0.94952  0.68489  1.0000
  H   H574      1.0  0.50035  0.98665  0.67866  1.0000
  C   C561      1.0  0.50096  0.69311  0.85156  1.0000
  Fe  Fe92      1.0  0.59329  0.48319  0.43828  1.0000
  S   S186      1.0  0.57584  0.45796  0.44889  1.0000
  S   S187      1.0  0.61921  0.49133  0.45060  1.0000
  H   H575      1.0  0.66101  0.16041  0.35779  1.0000
  S   S188      1.0  0.51201  0.44478  0.38107  1.0000
  Fe  Fe93      1.0  0.53643  0.32525  0.19962  1.0000
  S   S189      1.0  0.56210  0.32701  0.20820  1.0000
  S   S190      1.0  0.51668  0.32573  0.23419  1.0000
  Fe  Fe94      1.0  0.54189  0.32179  0.13242  1.0000
  S   S191      1.0  0.56800  0.32405  0.13623  1.0000
  S   S192      1.0  0.52862  0.31608  0.09021  1.0000
  Fe  Fe95      1.0  0.55874  0.30675  0.17659  1.0000
  S   S193      1.0  0.56831  0.28523  0.18055  1.0000
  Fe  Fe96      1.0  0.56877  0.34391  0.16708  1.0000
  S   S194      1.0  0.58584  0.36998  0.16277  1.0000
  S   S195      1.0  0.53253  0.30363  0.17135  1.0000
  S   S196      1.0  0.54316  0.34306  0.16003  1.0000
  Fe  Fe97      1.0  0.53445  0.16809  0.10451  1.0000
  S   S197      1.0  0.54927  0.19435  0.10806  1.0000
  S   S198      1.0  0.52242  0.16019  0.06167  1.0000
  Fe  Fe98      1.0  0.53796  0.15861  0.17001  1.0000
  S   S199      1.0  0.55333  0.18444  0.17766  1.0000
  S   S200      1.0  0.53571  0.13888  0.20719  1.0000
  Fe  Fe99      1.0  0.53560  0.19240  0.15193  1.0000
  S   S201      1.0  0.52456  0.21169  0.16544  1.0000
  Fe  Fe100     1.0  0.56573  0.18419  0.13335  1.0000
  S   S202      1.0  0.59261  0.19480  0.12189  1.0000
  S   S203      1.0  0.51920  0.16664  0.14711  1.0000
  S   S204      1.0  0.55194  0.15793  0.12690  1.0000
  Fe  Fe101     1.0  0.67999  0.17806  0.15734  1.0000
  S   S205      1.0  0.67785  0.20293  0.16186  1.0000
  S   S206      1.0  0.67218  0.16523  0.11507  1.0000
  Fe  Fe102     1.0  0.68705  0.17494  0.22312  1.0000
  S   S207      1.0  0.68605  0.20012  0.23127  1.0000
  S   S208      1.0  0.69044  0.15956  0.26307  1.0000
  Fe  Fe103     1.0  0.66396  0.19268  0.20506  1.0000
  S   S209      1.0  0.63974  0.19364  0.22310  1.0000
  Fe  Fe104     1.0  0.70036  0.20808  0.18738  1.0000
  S   S210      1.0  0.71920  0.23278  0.17242  1.0000
  S   S211      1.0  0.66435  0.16733  0.19909  1.0000
  S   S212      1.0  0.70325  0.18341  0.18069  1.0000
  Fe  Fe105     1.0  0.66894  0.45255  0.24509  1.0000
  S   S213      1.0  0.68288  0.43455  0.24858  1.0000
  S   S214      1.0  0.65127  0.45410  0.28328  1.0000
  Fe  Fe106     1.0  0.67293  0.45445  0.17638  1.0000
  S   S215      1.0  0.68658  0.43661  0.17598  1.0000
  S   S216      1.0  0.66379  0.46234  0.13423  1.0000
  Fe  Fe107     1.0  0.66825  0.42231  0.21158  1.0000
  S   S217      1.0  0.65609  0.39494  0.21077  1.0000
  Fe  Fe108     1.0  0.70018  0.45070  0.21251  1.0000
  S   S218      1.0  0.72755  0.45731  0.20188  1.0000
  S   S219      1.0  0.65369  0.43923  0.20980  1.0000
  S   S220      1.0  0.68721  0.46967  0.21109  1.0000
  Fe  Fe109     1.0  0.62552  0.09660  0.39144  1.0000
  S   S221      1.0  0.62193  0.10566  0.43648  1.0000
  S   S222      1.0  0.63158  0.11163  0.34673  1.0000
  Fe  Fe110     1.0  0.60391  0.06056  0.41158  1.0000
  S   S223      1.0  0.59890  0.06710  0.45761  1.0000
  Fe  Fe111     1.0  0.59601  0.08975  0.43665  1.0000
  S   S224      1.0  0.57395  0.09712  0.44555  1.0000
  Fe  Fe112     1.0  0.62525  0.08231  0.45466  1.0000
  H   H576      1.0  0.68539  0.17393  0.32476  1.0000
  S   S225      1.0  0.59907  0.08235  0.39101  1.0000
  S   S226      1.0  0.63082  0.07411  0.40937  1.0000
  S   S227      1.0  0.52710  0.05074  0.36199  1.0000
  C   C562      1.0  0.55980  0.08390  0.42450  1.0000
  C   C563      1.0  0.56037  0.06811  0.42103  1.0000
  C   C564      1.0  0.55023  0.05790  0.40195  1.0000
  C   C565      1.0  0.53924  0.06336  0.38673  1.0000
  C   C566      1.0  0.53856  0.07913  0.39031  1.0000
  C   C567      1.0  0.54884  0.08941  0.40925  1.0000
  H   H577      1.0  0.56883  0.06377  0.43268  1.0000
  H   H578      1.0  0.55110  0.04588  0.39885  1.0000
  H   H579      1.0  0.53075  0.08372  0.37735  1.0000
  H   H580      1.0  0.54883  0.10183  0.41108  1.0000
  C   C568      1.0  0.63717  0.15568  0.34233  1.0000
  S   S228      1.0  0.58922  0.03772  0.38960  1.0000
  C   C569      1.0  0.67365  0.46121  0.09976  1.0000
  C   C570      1.0  0.68855  0.45835  0.09810  1.0000
  C   C571      1.0  0.69602  0.45724  0.07042  1.0000
  C   C572      1.0  0.67357  0.46144  0.04579  1.0000
  C   C573      1.0  0.66625  0.46290  0.07350  1.0000
  H   H581      1.0  0.69445  0.45722  0.11811  1.0000
  H   H582      1.0  0.55574  0.17105  0.26089  1.0000
  H   H583      1.0  0.65479  0.46526  0.07461  1.0000
  H   H584      1.0  0.73554  0.22780  0.22550  1.0000
  C   C574      1.0  0.50526  0.34073  0.27859  1.0000
  S   S229      1.0  0.63809  0.08058  0.49633  1.0000
  H   H585      1.0  0.53767  0.08308  0.47552  1.0000
  N   N48       1.0  0.50142  0.34390  0.17414  1.0000
  H   H586      1.0  0.73115  0.45238  0.26546  1.0000
  H   H587      1.0  0.57897  0.10210  0.31597  1.0000
  C   C575      1.0  0.67413  0.14542  0.28539  1.0000
  C   C576      1.0  0.67726  0.13864  0.31233  1.0000
  C   C577      1.0  0.66450  0.12803  0.33129  1.0000
  C   C578      1.0  0.64845  0.12395  0.32329  1.0000
  C   C579      1.0  0.64539  0.13048  0.29609  1.0000
  C   C580      1.0  0.65809  0.14122  0.27738  1.0000
  H   H588      1.0  0.68963  0.14173  0.31872  1.0000
  H   H589      1.0  0.66708  0.12310  0.35209  1.0000
  H   H590      1.0  0.63305  0.12746  0.28962  1.0000
  H   H591      1.0  0.65546  0.14627  0.25677  1.0000
  C   C581      1.0  0.68012  0.17389  0.07909  1.0000
  C   C582      1.0  0.69423  0.18743  0.07469  1.0000
  C   C583      1.0  0.70073  0.19337  0.04576  1.0000
  H   H592      1.0  0.53165  0.22152  0.09641  1.0000
  C   C584      1.0  0.67232  0.16669  0.05428  1.0000
  H   H593      1.0  0.70035  0.19307  0.09357  1.0000
  C   C585      1.0  0.52096  0.36561  0.30058  1.0000
  H   H594      1.0  0.52838  0.01927  0.41125  1.0000
  H   H595      1.0  0.66147  0.15613  0.05748  1.0000
  H   H596      1.0  0.74342  0.48614  0.25270  1.0000
  H   H597      1.0  0.74281  0.22615  0.12975  1.0000
  H   H598      1.0  0.66776  0.46269  0.02570  1.0000
  H   H599      1.0  0.63835  0.42927  0.13775  1.0000
  H   H600      1.0  0.72851  0.26668  0.23299  1.0000
  C   C586      1.0  0.60544  0.19510  0.15075  1.0000
  C   C587      1.0  0.62226  0.20095  0.14441  1.0000
  C   C588      1.0  0.63282  0.20049  0.16652  1.0000
  C   C589      1.0  0.62662  0.19442  0.19525  1.0000
  C   C590      1.0  0.60978  0.18877  0.20177  1.0000
  C   C591      1.0  0.59918  0.18895  0.17947  1.0000
  H   H601      1.0  0.62719  0.20579  0.12230  1.0000
  H   H602      1.0  0.64576  0.20509  0.16139  1.0000
  H   H603      1.0  0.60492  0.18403  0.22395  1.0000
  H   H604      1.0  0.58623  0.18423  0.18448  1.0000
  C   C592      1.0  0.74311  0.45379  0.22227  1.0000
  H   H605      1.0  0.65856  0.18638  0.27705  1.0000
  H   H606      1.0  0.54996  0.38901  0.36277  1.0000
  C   C593      1.0  0.53310  0.16196  0.02659  1.0000
  H   H607      1.0  0.63437  0.43479  0.10152  1.0000
  N   N49       1.0  0.54423  0.38538  0.40939  1.0000
  H   H608      1.0  0.64693  0.42660  0.05835  1.0000
  C   C594      1.0  0.51506  0.09581  0.45882  1.0000
  C   C595      1.0  0.69303  0.18608  0.02093  1.0000
  H   H609      1.0  0.62579  0.41361  0.11588  1.0000
  C   C596      1.0  0.60567  0.37621  0.17469  1.0000
  C   C597      1.0  0.61417  0.39300  0.17369  1.0000
  C   C598      1.0  0.62967  0.39876  0.18436  1.0000
  C   C599      1.0  0.63694  0.38779  0.19582  1.0000
  C   C600      1.0  0.62857  0.37092  0.19634  1.0000
  C   C601      1.0  0.61290  0.36511  0.18589  1.0000
  H   H610      1.0  0.60855  0.40162  0.16529  1.0000
  H   H611      1.0  0.63584  0.41169  0.18398  1.0000
  H   H612      1.0  0.63412  0.36233  0.20516  1.0000
  H   H613      1.0  0.60641  0.35211  0.18667  1.0000
  C   C602      1.0  0.53950  0.31927  0.05518  1.0000
  H   H614      1.0  0.55937  0.41316  0.45975  1.0000
  H   H615      1.0  0.62748  0.45402  0.32907  1.0000
  H   H616      1.0  0.51364  0.05698  0.49966  1.0000
  C   C603      1.0  0.56519  0.41710  0.41273  1.0000
  C   C604      1.0  0.55644  0.32538  0.05261  1.0000
  H   H617      1.0  0.61637  0.18819  0.07626  1.0000
  C   C605      1.0  0.59261  0.49862  0.31122  1.0000
  C   C606      1.0  0.55033  0.20738  0.24228  1.0000
  H   H618      1.0  0.56312  0.32849  0.07214  1.0000
  C   C607      1.0  0.55590  0.26475  0.17737  1.0000
  C   C608      1.0  0.56315  0.25244  0.17541  1.0000
  C   C609      1.0  0.55371  0.23610  0.17188  1.0000
  C   C610      1.0  0.53688  0.23194  0.17057  1.0000
  C   C611      1.0  0.52960  0.24418  0.17307  1.0000
  C   C612      1.0  0.53906  0.26053  0.17622  1.0000
  H   H619      1.0  0.57617  0.25560  0.17633  1.0000
  H   H620      1.0  0.55946  0.22678  0.17000  1.0000
  H   H621      1.0  0.51658  0.24104  0.17226  1.0000
  H   H622      1.0  0.53330  0.26981  0.17803  1.0000
  C   C613      1.0  0.51873  0.34117  0.25973  1.0000
  C   C614      1.0  0.56255  0.41024  0.38539  1.0000
  H   H623      1.0  0.52730  0.36730  0.38594  1.0000
  H   H624      1.0  0.55586  0.07701  0.33137  1.0000
  Fe  Fe113     1.0  0.50459  0.38626  0.35808  1.0000
  S   S230      1.0  0.58715  0.50405  0.45741  1.0000
  H   H625      1.0  0.60591  0.16860  0.06238  1.0000
  C   C615      1.0  0.65048  0.46920  0.30824  1.0000
  C   C616      1.0  0.66267  0.48438  0.30821  1.0000
  H   H626      1.0  0.55597  0.29239  0.08069  1.0000
  H   H627      1.0  0.67312  0.48725  0.29255  1.0000
  C   C617      1.0  0.67828  0.41481  0.08037  1.0000
  C   C618      1.0  0.55755  0.45542  0.43211  1.0000
  C   C619      1.0  0.55650  0.46659  0.40966  1.0000
  C   C620      1.0  0.54232  0.46359  0.39443  1.0000
  C   C621      1.0  0.52913  0.44945  0.40185  1.0000
  C   C622      1.0  0.52982  0.43880  0.42547  1.0000
  C   C623      1.0  0.54403  0.44176  0.44050  1.0000
  H   H628      1.0  0.56668  0.47737  0.40350  1.0000
  H   H629      1.0  0.54175  0.47197  0.37643  1.0000
  H   H630      1.0  0.51941  0.42822  0.43219  1.0000
  H   H631      1.0  0.54451  0.43339  0.45856  1.0000
  N   N50       1.0  0.65096  0.42132  0.10315  1.0000
  H   H632      1.0  0.61819  0.15100  0.18280  1.0000
  H   H633      1.0  0.52273  0.36609  0.42489  1.0000
  C   C624      1.0  0.53418  0.20130  0.23494  1.0000
  C   C625      1.0  0.52380  0.11510  0.25257  1.0000
  H   H634      1.0  0.59832  0.36758  0.24636  1.0000
  H   H635      1.0  0.64372  0.16301  0.15113  1.0000
  Fe  Fe114     1.0  0.50312  0.05498  0.36228  1.0000
  H   H636      1.0  0.59177  0.14969  0.16244  1.0000
  C   C626      1.0  0.63698  0.46572  0.32880  1.0000
  C   C627      1.0  0.52504  0.48676  0.44109  1.0000
  C   C628      1.0  0.55752  0.40784  0.43843  1.0000
  H   H637      1.0  0.57300  0.42965  0.41404  1.0000
  S   S231      1.0  0.69823  0.45659  0.01018  1.0000
  C   C629      1.0  0.58096  0.09040  0.31877  1.0000
  C   C630      1.0  0.53703  0.09352  0.48845  1.0000
  H   H638      1.0  0.61614  0.06258  0.30626  1.0000
  H   H639      1.0  0.63134  0.14668  0.36034  1.0000
  C   C631      1.0  0.74247  0.30312  0.19289  1.0000
  H   H640      1.0  0.51505  0.36111  0.13965  1.0000
  C   C632      1.0  0.54705  0.39188  0.43637  1.0000
  C   C633      1.0  0.53292  0.36877  0.40761  1.0000
  N   N51       1.0  0.59922  0.07467  0.31884  1.0000
  C   C634      1.0  0.62809  0.15907  0.31995  1.0000
  C   C635      1.0  0.68851  0.45865  0.04421  1.0000
  C   C636      1.0  0.65398  0.16344  0.34070  1.0000
  H   H641      1.0  0.52725  0.16100  0.24774  1.0000
  C   C637      1.0  0.74689  0.25897  0.17231  1.0000
  H   H642      1.0  0.52386  0.47412  0.43745  1.0000
  C   C638      1.0  0.67911  0.18245  0.31653  1.0000
  H   H643      1.0  0.51774  0.35879  0.20241  1.0000
  H   H644      1.0  0.52821  0.20986  0.22748  1.0000
  C   C639      1.0  0.63569  0.47717  0.34920  1.0000
  H   H645      1.0  0.55697  0.16947  0.04286  1.0000
  H   H646      1.0  0.57791  0.33239  0.02306  1.0000
  C   C640      1.0  0.53103  0.31548  0.02944  1.0000
  C   C641      1.0  0.67433  0.41304  0.11081  1.0000
  H   H647      1.0  0.72263  0.28088  0.18842  1.0000
  H   H648      1.0  0.65760  0.41498  0.14555  1.0000
  C   C642      1.0  0.51122  0.49129  0.44648  1.0000
  C   C643      1.0  0.73584  0.27923  0.22664  1.0000
  H   H649      1.0  0.60386  0.02185  0.43330  1.0000
  N   N52       1.0  0.62641  0.40210  0.26612  1.0000
  C   C644      1.0  0.61924  0.41336  0.25753  1.0000
  C   C645      1.0  0.61893  0.38582  0.26271  1.0000
  C   C646      1.0  0.60439  0.40843  0.24433  1.0000
  C   C647      1.0  0.60399  0.38045  0.24993  1.0000
  C   C648      1.0  0.59676  0.39185  0.24048  1.0000
  C   C649      1.0  0.64183  0.40736  0.28033  1.0000
  H   H650      1.0  0.62511  0.42627  0.26052  1.0000
  H   H651      1.0  0.62037  0.07402  0.33903  1.0000
  H   H652      1.0  0.59895  0.41741  0.23681  1.0000
  H   H653      1.0  0.62771  0.17630  0.05917  1.0000
  H   H654      1.0  0.58546  0.38784  0.22953  1.0000
  H   H655      1.0  0.64862  0.42047  0.27451  1.0000
  H   H656      1.0  0.63956  0.40565  0.30474  1.0000
  H   H657      1.0  0.64983  0.40034  0.27284  1.0000
  H   H658      1.0  0.56089  0.23608  0.10166  1.0000
  H   H659      1.0  0.56374  0.29015  0.11645  1.0000
  H   H660      1.0  0.55120  0.49523  0.43594  1.0000
  H   H661      1.0  0.50301  0.36751  0.18833  1.0000
  C   C650      1.0  0.54975  0.17971  0.25401  1.0000
  C   C651      1.0  0.66048  0.41627  0.12186  1.0000
  H   H662      1.0  0.56089  0.05054  0.33967  1.0000
  S   S232      1.0  0.59912  0.49461  0.39207  1.0000
  N   N53       1.0  0.52619  0.18480  0.23632  1.0000
  H   H663      1.0  0.54088  0.38489  0.45643  1.0000
  H   H664      1.0  0.68429  0.18648  0.29352  1.0000
  C   C652      1.0  0.52746  0.01059  0.39353  1.0000
  H   H665      1.0  0.56828  0.41741  0.36524  1.0000
  C   C653      1.0  0.63586  0.17022  0.29641  1.0000
  H   H666      1.0  0.59904  0.47956  0.28979  1.0000
  S   S233      1.0  0.52331  0.38102  0.32629  1.0000
  C   C654      1.0  0.53440  0.36608  0.28160  1.0000
  C   C655      1.0  0.64796  0.49228  0.34937  1.0000
  C   C656      1.0  0.73739  0.24426  0.18754  1.0000
  H   H667      1.0  0.62525  0.47426  0.36488  1.0000
  H   H668      1.0  0.64645  0.48714  0.48828  1.0000
  C   C657      1.0  0.50942  0.17851  0.22775  1.0000
  H   H669      1.0  0.75032  0.21981  0.16225  1.0000
  H   H670      1.0  0.68187  0.19322  0.33018  1.0000
  N   N54       1.0  0.61711  0.16783  0.10287  1.0000
  C   C658      1.0  0.60291  0.16090  0.11984  1.0000
  C   C659      1.0  0.63164  0.16858  0.11388  1.0000
  C   C660      1.0  0.60302  0.15462  0.14875  1.0000
  C   C661      1.0  0.63217  0.16228  0.14256  1.0000
  C   C662      1.0  0.61780  0.15541  0.16018  1.0000
  C   C663      1.0  0.61680  0.17560  0.07364  1.0000
  H   H671      1.0  0.59144  0.16086  0.11151  1.0000
  H   H672      1.0  0.64299  0.17428  0.10074  1.0000
  H   H673      1.0  0.61510  0.15290  0.32070  1.0000
  C   C664      1.0  0.73259  0.28720  0.20150  1.0000
  H   H674      1.0  0.70761  0.45516  0.06938  1.0000
  C   C665      1.0  0.67865  0.17284  0.02531  1.0000
  C   C666      1.0  0.53329  0.35398  0.26118  1.0000
  C   C667      1.0  0.52017  0.12648  0.23333  1.0000
  H   H675      1.0  0.51790  0.31076  0.03119  1.0000
  C   C668      1.0  0.51215  0.10534  0.27434  1.0000
  C   C669      1.0  0.50431  0.00832  0.36322  1.0000
  C   C670      1.0  0.50552  0.33699  0.12424  1.0000
  H   H676      1.0  0.74288  0.26298  0.15202  1.0000
  C   C671      1.0  0.66823  0.41949  0.06137  1.0000
  C   C672      1.0  0.55005  0.16665  0.02350  1.0000
  H   H677      1.0  0.57081  0.20101  0.25688  1.0000
  S   S234      1.0  0.51730  0.40253  0.39265  1.0000
  C   C673      1.0  0.53363  0.17406  0.24636  1.0000
  H   H678      1.0  0.54348  0.29052  0.11444  1.0000
  H   H679      1.0  0.52253  0.26743  0.09703  1.0000
  C   C674      1.0  0.53099  0.26059  0.09789  1.0000
  C   C675      1.0  0.53604  0.23475  0.09703  1.0000
  C   C676      1.0  0.52521  0.24360  0.09590  1.0000
  H   H680      1.0  0.68921  0.41278  0.07153  1.0000
  H   H681      1.0  0.56454  0.00853  0.37604  1.0000
  C   C677      1.0  0.55213  0.39419  0.38415  1.0000
  H   H682      1.0  0.71186  0.20359  0.04261  1.0000
  C   C678      1.0  0.55780  0.25989  0.10227  1.0000
  C   C679      1.0  0.50633  0.35291  0.29887  1.0000
  C   C680      1.0  0.55246  0.24293  0.10003  1.0000
  C   C681      1.0  0.63658  0.42481  0.11512  1.0000
  H   H683      1.0  0.54576  0.37585  0.28273  1.0000
  C   C682      1.0  0.55288  0.28624  0.10324  1.0000
  Fe  Fe115     1.0  0.50125  0.41746  0.38430  1.0000
  N   N55       1.0  0.54705  0.26845  0.10147  1.0000
  C   C683      1.0  0.56801  0.07634  0.32754  1.0000
  H   H684      1.0  0.57050  0.26611  0.10549  1.0000
  H   H685      1.0  0.54374  0.35450  0.24676  1.0000
  H   H686      1.0  0.53936  0.35970  0.41054  1.0000
  H   H687      1.0  0.74017  0.30938  0.17320  1.0000
  H   H688      1.0  0.50638  0.18760  0.21305  1.0000
  C   C684      1.0  0.66142  0.49583  0.32872  1.0000
  C   C685      1.0  0.55818  0.19648  0.25171  1.0000
  N   N56       1.0  0.66153  0.17421  0.31736  1.0000
  C   C686      1.0  0.58455  0.01722  0.40374  1.0000
  H   H689      1.0  0.51240  0.23729  0.09402  1.0000
  C   C687      1.0  0.65447  0.42260  0.07321  1.0000
  H   H690      1.0  0.57964  0.49289  0.30995  1.0000
  C   C688      1.0  0.74222  0.45269  0.25322  1.0000
  H   H691      1.0  0.62474  0.37694  0.26909  1.0000
  H   H692      1.0  0.55676  0.22045  0.24014  1.0000
  C   C689      1.0  0.61579  0.07389  0.31654  1.0000
  H   H693      1.0  0.62424  0.08455  0.30303  1.0000
  H   H694      1.0  0.58871  0.04928  0.33158  1.0000
  H   H695      1.0  0.51102  0.34054  0.10190  1.0000
  H   H696      1.0  0.53577  0.11388  0.25074  1.0000
  N   N57       1.0  0.52128  0.09603  0.48598  1.0000
  C   C690      1.0  0.58657  0.06083  0.32743  1.0000
  C   C691      1.0  0.65267  0.17779  0.29554  1.0000
  H   H697      1.0  0.62899  0.17294  0.27871  1.0000
  H   H698      1.0  0.60664  0.10040  0.30837  1.0000
  C   C692      1.0  0.57080  0.06144  0.33195  1.0000
  C   C693      1.0  0.62011  0.49869  0.30185  1.0000
  C   C694      1.0  0.59659  0.08935  0.31451  1.0000
  C   C695      1.0  0.50153  0.05780  0.50197  1.0000
  H   H699      1.0  0.73539  0.46673  0.01905  1.0000
  H   H700      1.0  0.73827  0.49114  0.21686  1.0000
  H   H701      1.0  0.52154  0.09350  0.43939  1.0000
  H   H702      1.0  0.68203  0.40943  0.12590  1.0000
  H   H703      1.0  0.50183  0.06422  0.21207  1.0000
  C   C696      1.0  0.56482  0.32762  0.02463  1.0000
  S   S235      1.0  0.50793  0.38221  0.46861  1.0000
  C   C697      1.0  0.60348  0.49116  0.29993  1.0000
  C   C698      1.0  0.74273  0.23915  0.21364  1.0000
  C   C699      1.0  0.74785  0.49478  0.23290  1.0000
  C   C700      1.0  0.59384  0.01262  0.42453  1.0000
  H   H704      1.0  0.51520  0.09672  0.28898  1.0000
  H   H705      1.0  0.62870  0.49299  0.29326  1.0000
  C   C701      1.0  0.74909  0.28726  0.24268  1.0000
  H   H706      1.0  0.50764  0.16742  0.21505  1.0000
  C   C702      1.0  0.50775  0.34853  0.14568  1.0000
  H   H707      1.0  0.53483  0.01758  0.37365  1.0000
  Fe  Fe116     1.0  0.62458  0.50459  0.40548  1.0000
  C   C703      1.0  0.50461  0.12788  0.23600  1.0000
  H   H708      1.0  0.67137  0.42125  0.03770  1.0000
  H   H709      1.0  0.54702  0.10466  0.47978  1.0000
  H   H710      1.0  0.50153  0.13641  0.22124  1.0000
  C   C704      1.0  0.54037  0.49856  0.44043  1.0000
  H   H711      1.0  0.51211  0.01787  0.34782  1.0000
  C   C705      1.0  0.50494  0.35605  0.19658  1.0000
  C   C706      1.0  0.64925  0.49513  0.50644  1.0000
  H   H712      1.0  0.51191  0.19827  0.94014  1.0000
  S   S236      1.0  0.60997  0.47949  0.71569  1.0000
  S   S237      1.0  0.56691  0.47383  0.75321  1.0000
  H   H713      1.0  0.52402  0.32691  0.71975  1.0000
  H   H714      1.0  0.54968  0.06704  0.64747  1.0000
  S   S238      1.0  0.51961  0.43838  0.65811  1.0000
  Fe  Fe117     1.0  0.57924  0.34062  0.86000  1.0000
  S   S239      1.0  0.55993  0.34609  0.88783  1.0000
  S   S240      1.0  0.60265  0.36035  0.84374  1.0000
  Fe  Fe118     1.0  0.56086  0.30332  0.86374  1.0000
  S   S241      1.0  0.54041  0.30622  0.89281  1.0000
  S   S242      1.0  0.56654  0.28039  0.85102  1.0000
  Fe  Fe119     1.0  0.54266  0.32793  0.86061  1.0000
  C   C707      1.0  0.56073  0.44012  0.62701  1.0000
  Fe  Fe120     1.0  0.55963  0.32428  0.91725  1.0000
  S   S243      1.0  0.56784  0.32684  0.96438  1.0000
  S   S244      1.0  0.56216  0.32397  0.83057  1.0000
  S   S245      1.0  0.57981  0.31980  0.89001  1.0000
  Fe  Fe121     1.0  0.55098  0.16488  0.88896  1.0000
  S   S246      1.0  0.56293  0.18945  0.86532  1.0000
  S   S247      1.0  0.55996  0.16435  0.93533  1.0000
  Fe  Fe122     1.0  0.53673  0.14946  0.83063  1.0000
  S   S248      1.0  0.54774  0.17338  0.80384  1.0000
  S   S249      1.0  0.52599  0.12396  0.81238  1.0000
  Fe  Fe123     1.0  0.56992  0.17586  0.82898  1.0000
  S   S250      1.0  0.59529  0.18036  0.80919  1.0000
  Fe  Fe124     1.0  0.53971  0.18500  0.84306  1.0000
  S   S251      1.0  0.52727  0.20453  0.84295  1.0000
  S   S252      1.0  0.55953  0.15153  0.85363  1.0000
  S   S253      1.0  0.52701  0.16079  0.86870  1.0000
  Fe  Fe125     1.0  0.67855  0.17030  0.88492  1.0000
  S   S254      1.0  0.68094  0.19339  0.85786  1.0000
  S   S255      1.0  0.66464  0.14496  0.86969  1.0000
  Fe  Fe126     1.0  0.69133  0.18927  0.94046  1.0000
  S   S256      1.0  0.69340  0.21332  0.91688  1.0000
  C   C708      1.0  0.74272  0.46673  0.91230  1.0000
  Fe  Fe127     1.0  0.66959  0.20009  0.89876  1.0000
  S   S257      1.0  0.64866  0.21003  0.89915  1.0000
  Fe  Fe128     1.0  0.70472  0.20437  0.87879  1.0000
  S   S258      1.0  0.72811  0.22044  0.85361  1.0000
  S   S259      1.0  0.66641  0.17685  0.92555  1.0000
  S   S260      1.0  0.70349  0.18054  0.90249  1.0000
  Fe  Fe129     1.0  0.67082  0.45946  0.90974  1.0000
  S   S261      1.0  0.67308  0.43719  0.88855  1.0000
  S   S262      1.0  0.65464  0.47321  0.89124  1.0000
  Fe  Fe130     1.0  0.68595  0.45200  0.96690  1.0000
  S   S263      1.0  0.68823  0.42894  0.94951  1.0000
  C   C709      1.0  0.55641  0.32388  0.99883  1.0000
  Fe  Fe131     1.0  0.69787  0.44415  0.90731  1.0000
  S   S264      1.0  0.72087  0.44091  0.88666  1.0000
  Fe  Fe132     1.0  0.66354  0.42441  0.93300  1.0000
  S   S265      1.0  0.64273  0.40091  0.94351  1.0000
  S   S266      1.0  0.69644  0.46756  0.92495  1.0000
  S   S267      1.0  0.66034  0.44624  0.95393  1.0000
  Fe  Fe133     1.0  0.63189  0.09891  0.72100  1.0000
  S   S268      1.0  0.61130  0.10554  0.70235  1.0000
  S   S269      1.0  0.65201  0.11947  0.73982  1.0000
  Fe  Fe134     1.0  0.61841  0.06369  0.70153  1.0000
  S   S270      1.0  0.59692  0.06798  0.68235  1.0000
  Fe  Fe135     1.0  0.61440  0.09164  0.66285  1.0000
  S   S271      1.0  0.61023  0.10023  0.61677  1.0000
  Fe  Fe136     1.0  0.59592  0.08128  0.72327  1.0000
  S   S272      1.0  0.57243  0.07930  0.74793  1.0000
  S   S273      1.0  0.63632  0.08681  0.67950  1.0000
  S   S274      1.0  0.61614  0.07524  0.74451  1.0000
  C   C710      1.0  0.64972  0.06924  0.78205  1.0000
  S   S275      1.0  0.52057  0.02797  0.67992  1.0000
  N   N58       1.0  0.55718  0.42652  0.67547  1.0000
  C   C711      1.0  0.55726  0.06399  0.73240  1.0000
  C   C712      1.0  0.56042  0.05010  0.72270  1.0000
  C   C713      1.0  0.54887  0.03868  0.70738  1.0000
  C   C714      1.0  0.53424  0.04123  0.70169  1.0000
  C   C715      1.0  0.53088  0.05485  0.71220  1.0000
  C   C716      1.0  0.54235  0.06618  0.72777  1.0000
  H   H715      1.0  0.57184  0.04824  0.72674  1.0000
  H   H716      1.0  0.55154  0.02821  0.69911  1.0000
  H   H717      1.0  0.51956  0.05684  0.70795  1.0000
  H   H718      1.0  0.53994  0.07696  0.73515  1.0000
  C   C717      1.0  0.61832  0.09472  0.58368  1.0000
  C   C718      1.0  0.62878  0.08538  0.58395  1.0000
  C   C719      1.0  0.63482  0.08117  0.55708  1.0000
  C   C720      1.0  0.74585  0.26006  0.90251  1.0000
  C   C721      1.0  0.61375  0.09954  0.55638  1.0000
  H   H719      1.0  0.63237  0.08156  0.60479  1.0000
  H   H720      1.0  0.64308  0.07414  0.55743  1.0000
  H   H721      1.0  0.60566  0.10675  0.55594  1.0000
  H   H722      1.0  0.64691  0.49314  0.58173  1.0000
  C   C722      1.0  0.61135  0.49775  0.54407  1.0000
  C   C723      1.0  0.74012  0.45199  0.89865  1.0000
  S   S276      1.0  0.51060  0.39141  0.64962  1.0000
  H   H723      1.0  0.61592  0.09886  0.50875  1.0000
  H   H724      1.0  0.73286  0.47166  0.91540  1.0000
  C   C724      1.0  0.50697  0.34641  0.79870  1.0000
  H   H725      1.0  0.61481  0.40995  0.79844  1.0000
  H   H726      1.0  0.60851  0.49124  0.52415  1.0000
  C   C725      1.0  0.66035  0.13874  0.83321  1.0000
  C   C726      1.0  0.64870  0.12342  0.82950  1.0000
  C   C727      1.0  0.64554  0.11757  0.80108  1.0000
  C   C728      1.0  0.65420  0.12688  0.77596  1.0000
  C   C729      1.0  0.66564  0.14229  0.77965  1.0000
  C   C730      1.0  0.66860  0.14827  0.80803  1.0000
  H   H727      1.0  0.64231  0.11591  0.84883  1.0000
  H   H728      1.0  0.63680  0.10564  0.79873  1.0000
  H   H729      1.0  0.67248  0.14957  0.76043  1.0000
  H   H730      1.0  0.67765  0.16001  0.81047  1.0000
  C   C731      1.0  0.56204  0.20803  0.93193  1.0000
  H   H731      1.0  0.57113  0.17074  0.99341  1.0000
  H   H732      1.0  0.63750  0.43524  0.80718  1.0000
  C   C732      1.0  0.50666  0.35433  0.77094  1.0000
  H   H733      1.0  0.56961  0.20077  0.93816  1.0000
  C   C733      1.0  0.56953  0.43924  0.68482  1.0000
  C   C734      1.0  0.61043  0.18930  0.83321  1.0000
  C   C735      1.0  0.62485  0.18541  0.83198  1.0000
  C   C736      1.0  0.63661  0.19162  0.85228  1.0000
  C   C737      1.0  0.63421  0.20214  0.87331  1.0000
  C   C738      1.0  0.62002  0.20641  0.87394  1.0000
  C   C739      1.0  0.60808  0.19987  0.85415  1.0000
  H   H734      1.0  0.62673  0.17721  0.81589  1.0000
  H   H735      1.0  0.64741  0.18811  0.85177  1.0000
  H   H736      1.0  0.61820  0.21470  0.88991  1.0000
  H   H737      1.0  0.59722  0.20330  0.85468  1.0000
  C   C740      1.0  0.61339  0.37234  0.87114  1.0000
  C   C741      1.0  0.62900  0.38345  0.86389  1.0000
  C   C742      1.0  0.63789  0.39291  0.88563  1.0000
  C   C743      1.0  0.63120  0.39120  0.91475  1.0000
  C   C744      1.0  0.61542  0.38045  0.92176  1.0000
  C   C745      1.0  0.60656  0.37102  0.90007  1.0000
  H   H738      1.0  0.63432  0.38457  0.84149  1.0000
  H   H739      1.0  0.65009  0.40108  0.88006  1.0000
  H   H740      1.0  0.61016  0.37914  0.94422  1.0000
  H   H741      1.0  0.59451  0.36254  0.90587  1.0000
  C   C746      1.0  0.55510  0.25942  0.84884  1.0000
  C   C747      1.0  0.56354  0.24829  0.84377  1.0000
  C   C748      1.0  0.55518  0.23151  0.84180  1.0000
  C   C749      1.0  0.53822  0.22566  0.84439  1.0000
  C   C750      1.0  0.52973  0.23680  0.84919  1.0000
  C   C751      1.0  0.53812  0.25358  0.85174  1.0000
  H   H742      1.0  0.57666  0.25268  0.84131  1.0000
  H   H743      1.0  0.56189  0.22314  0.83793  1.0000
  H   H744      1.0  0.51660  0.23239  0.85121  1.0000
  H   H745      1.0  0.53146  0.26198  0.85572  1.0000
  C   C752      1.0  0.53489  0.35708  0.76059  1.0000
  C   C753      1.0  0.53524  0.34931  0.78845  1.0000
  H   H746      1.0  0.57096  0.07841  0.64691  1.0000
  H   H747      1.0  0.54573  0.36101  0.74579  1.0000
  H   H748      1.0  0.54628  0.34733  0.79485  1.0000
  H   H749      1.0  0.62696  0.49100  0.81118  1.0000
  C   C754      1.0  0.63917  0.48281  0.84604  1.0000
  C   C755      1.0  0.65293  0.47878  0.85369  1.0000
  H   H750      1.0  0.60027  0.32892  0.93772  1.0000
  C   C756      1.0  0.73576  0.24534  0.89238  1.0000
  N   N59       1.0  0.52459  0.30113  0.79129  1.0000
  C   C757      1.0  0.56458  0.11989  0.78046  1.0000
  C   C758      1.0  0.55309  0.46443  0.72743  1.0000
  C   C759      1.0  0.55350  0.47203  0.69943  1.0000
  C   C760      1.0  0.54289  0.46408  0.67856  1.0000
  C   C761      1.0  0.53190  0.44842  0.68551  1.0000
  C   C762      1.0  0.53121  0.44094  0.71373  1.0000
  C   C763      1.0  0.54171  0.44899  0.73475  1.0000
  H   H751      1.0  0.56188  0.48406  0.69376  1.0000
  H   H752      1.0  0.54342  0.46996  0.65679  1.0000
  H   H753      1.0  0.52280  0.42890  0.71940  1.0000
  H   H754      1.0  0.54127  0.44309  0.75647  1.0000
  H   H755      1.0  0.67516  0.06232  0.69124  1.0000
  H   H756      1.0  0.53542  0.40844  0.69339  1.0000
  C   C764      1.0  0.73965  0.21226  0.93770  1.0000
  N   N60       1.0  0.58225  0.12751  0.77585  1.0000
  C   C765      1.0  0.59209  0.11798  0.77661  1.0000
  C   C766      1.0  0.58886  0.14416  0.77202  1.0000
  C   C767      1.0  0.60894  0.12498  0.77181  1.0000
  C   C768      1.0  0.60570  0.15160  0.76755  1.0000
  C   C769      1.0  0.61577  0.14190  0.76716  1.0000
  H   H757      1.0  0.57942  0.46371  0.62135  1.0000
  H   H758      1.0  0.58694  0.10485  0.78073  1.0000
  H   H759      1.0  0.58113  0.15182  0.77238  1.0000
  H   H760      1.0  0.61664  0.11731  0.77133  1.0000
  H   H761      1.0  0.61084  0.16482  0.76443  1.0000
  H   H762      1.0  0.62884  0.14743  0.76329  1.0000
  H   H763      1.0  0.56071  0.11924  0.80432  1.0000
  H   H764      1.0  0.55692  0.44046  0.60464  1.0000
  H   H765      1.0  0.73348  0.47389  0.98201  1.0000
  H   H766      1.0  0.53245  0.01218  0.77457  1.0000
  H   H767      1.0  0.75053  0.41627  0.95451  1.0000
  H   H768      1.0  0.51311  0.20846  0.90383  1.0000
  C   C770      1.0  0.51622  0.12662  0.75498  1.0000
  C   C771      1.0  0.54545  0.20040  0.92908  1.0000
  C   C772      1.0  0.55877  0.23398  0.91815  1.0000
  H   H769      1.0  0.63860  0.15257  0.89843  1.0000
  C   C773      1.0  0.63407  0.35832  0.95393  1.0000
  H   H770      1.0  0.54848  0.30235  0.77558  1.0000
  H   H771      1.0  0.65533  0.36936  0.92427  1.0000
  C   C774      1.0  0.61719  0.14805  0.87410  1.0000
  N   N61       1.0  0.70010  0.23576  0.81648  1.0000
  C   C775      1.0  0.70610  0.24573  0.83874  1.0000
  C   C776      1.0  0.68373  0.22850  0.81525  1.0000
  C   C777      1.0  0.69563  0.24838  0.86087  1.0000
  C   C778      1.0  0.67289  0.23110  0.83675  1.0000
  C   C779      1.0  0.67892  0.24099  0.85982  1.0000
  C   C780      1.0  0.71115  0.23226  0.79428  1.0000
  H   H772      1.0  0.71907  0.25145  0.83984  1.0000
  H   H773      1.0  0.67896  0.22037  0.79791  1.0000
  H   H774      1.0  0.70048  0.25590  0.87895  1.0000
  H   H775      1.0  0.65991  0.22516  0.83599  1.0000
  H   H776      1.0  0.67062  0.24267  0.87712  1.0000
  H   H777      1.0  0.72402  0.23972  0.79658  1.0000
  H   H778      1.0  0.71044  0.21920  0.79729  1.0000
  H   H779      1.0  0.70795  0.23479  0.77160  1.0000
  N   N62       1.0  0.56390  0.06613  0.60779  1.0000
  C   C781      1.0  0.57860  0.06645  0.59520  1.0000
  C   C782      1.0  0.55115  0.06493  0.59057  1.0000
  C   C783      1.0  0.58090  0.06581  0.56456  1.0000
  C   C784      1.0  0.55304  0.06432  0.55985  1.0000
  C   C785      1.0  0.56807  0.06489  0.54677  1.0000
  C   C786      1.0  0.56200  0.06702  0.63993  1.0000
  H   H780      1.0  0.58872  0.06744  0.60884  1.0000
  H   H781      1.0  0.53942  0.06450  0.60043  1.0000
  H   H782      1.0  0.59266  0.06627  0.55469  1.0000
  C   C787      1.0  0.54219  0.22596  0.91600  1.0000
  S   S277      1.0  0.51387  0.06688  0.64445  1.0000
  H   H783      1.0  0.56404  0.05632  0.65144  1.0000
  H   H784      1.0  0.51588  0.27891  0.81789  1.0000
  H   H785      1.0  0.60709  0.00835  0.66765  1.0000
  H   H786      1.0  0.73303  0.22200  0.97740  1.0000
  H   H787      1.0  0.54302  0.41677  0.63949  1.0000
  H   H788      1.0  0.67566  0.47661  0.83716  1.0000
  C   C788      1.0  0.55288  0.42675  0.64688  1.0000
  C   C789      1.0  0.53776  0.30565  0.77124  1.0000
  C   C790      1.0  0.53944  0.31781  0.00132  1.0000
  C   C791      1.0  0.73138  0.44326  0.97403  1.0000
  C   C792      1.0  0.66356  0.48504  0.80239  1.0000
  C   C793      1.0  0.60373  0.17909  0.93295  1.0000
  H   H789      1.0  0.62975  0.48213  0.86299  1.0000
  H   H790      1.0  0.59468  0.14605  0.85427  1.0000
  H   H791      1.0  0.61635  0.33165  0.88989  1.0000
  S   S278      1.0  0.61284  0.48587  0.63116  1.0000
  C   C794      1.0  0.57325  0.45318  0.63640  1.0000
  H   H792      1.0  0.55809  0.12696  0.76802  1.0000
  H   H793      1.0  0.56058  0.10732  0.77240  1.0000
  H   H794      1.0  0.57291  0.43923  0.70752  1.0000
  C   C795      1.0  0.62266  0.16525  0.91541  1.0000
  Fe  Fe137     1.0  0.59091  0.48984  0.73218  1.0000
  C   C796      1.0  0.64990  0.48925  0.79480  1.0000
  S   S279      1.0  0.52049  0.36784  0.71493  1.0000
  S   S280      1.0  0.52051  0.33207  0.84125  1.0000
  C   C797      1.0  0.52058  0.35951  0.75152  1.0000
  C   C798      1.0  0.52121  0.34371  0.80754  1.0000
  C   C799      1.0  0.62158  0.33892  0.90805  1.0000
  C   C800      1.0  0.66499  0.47962  0.83159  1.0000
  C   C801      1.0  0.54872  0.41232  0.69579  1.0000
  C   C802      1.0  0.51064  0.31447  0.75983  1.0000
  C   C803      1.0  0.50685  0.38255  0.52921  1.0000
  H   H795      1.0  0.55305  0.40187  0.69103  1.0000
  H   H796      1.0  0.53454  0.23310  0.90972  1.0000
  H   H797      1.0  0.55052  0.41514  0.71931  1.0000
  C   C804      1.0  0.74062  0.23891  0.86716  1.0000
  C   C805      1.0  0.52462  0.29144  0.81862  1.0000
  H   H798      1.0  0.53281  0.31488  0.98165  1.0000
  C   C806      1.0  0.55804  0.16734  0.99541  1.0000
  H   H799      1.0  0.60528  0.47580  0.57279  1.0000
  H   H800      1.0  0.54287  0.06344  0.54637  1.0000
  H   H801      1.0  0.61459  0.18880  0.93974  1.0000
  H   H802      1.0  0.58166  0.23094  0.92749  1.0000
  H   H803      1.0  0.64569  0.06973  0.80492  1.0000
  H   H804      1.0  0.67321  0.48616  0.78564  1.0000
  C   C807      1.0  0.57773  0.45273  0.66542  1.0000
  S   S281      1.0  0.62134  0.03904  0.69406  1.0000
  H   H805      1.0  0.64145  0.44438  0.85795  1.0000
  H   H806      1.0  0.66890  0.07957  0.68006  1.0000
  C   C808      1.0  0.66494  0.06734  0.69218  1.0000
  C   C809      1.0  0.62383  0.43065  0.90724  1.0000
  H   H807      1.0  0.56984  0.06466  0.52292  1.0000
  H   H808      1.0  0.66999  0.09416  0.72316  1.0000
  H   H809      1.0  0.65480  0.05933  0.68028  1.0000
  C   C810      1.0  0.63135  0.43360  0.85417  1.0000
  C   C811      1.0  0.62922  0.42841  0.82542  1.0000
  H   H810      1.0  0.61341  0.42437  0.92328  1.0000
  H   H811      1.0  0.64402  0.35197  0.88305  1.0000
  H   H812      1.0  0.64805  0.04231  0.72912  1.0000
  N   N63       1.0  0.65955  0.06815  0.72308  1.0000
  C   C812      1.0  0.63713  0.35031  0.90422  1.0000
  C   C813      1.0  0.59817  0.01955  0.73560  1.0000
  N   N64       1.0  0.62095  0.42514  0.87729  1.0000
  C   C814      1.0  0.61647  0.41432  0.82051  1.0000
  C   C815      1.0  0.65109  0.05398  0.73925  1.0000
  H   H813      1.0  0.74197  0.26486  0.92214  1.0000
  H   H814      1.0  0.53680  0.29037  0.82210  1.0000
  H   H815      1.0  0.56385  0.24710  0.91314  1.0000
  C   C816      1.0  0.65864  0.08359  0.76558  1.0000
  C   C817      1.0  0.66340  0.08284  0.73589  1.0000
  H   H816      1.0  0.62600  0.44405  0.90744  1.0000
  C   C818      1.0  0.64586  0.05431  0.76883  1.0000
  H   H817      1.0  0.74922  0.20585  0.89702  1.0000
  C   C819      1.0  0.60598  0.40569  0.84426  1.0000
  C   C820      1.0  0.60844  0.41128  0.87270  1.0000
  H   H818      1.0  0.63469  0.42809  0.91495  1.0000
  C   C821      1.0  0.64351  0.35999  0.92736  1.0000
  C   C822      1.0  0.63756  0.48784  0.81669  1.0000
  C   C823      1.0  0.60953  0.48903  0.57166  1.0000
  C   C824      1.0  0.64645  0.48818  0.53549  1.0000
  H   H819      1.0  0.63875  0.04306  0.78122  1.0000
  C   C825      1.0  0.61252  0.33749  0.93499  1.0000
  H   H820      1.0  0.60049  0.40423  0.89112  1.0000
  H   H821      1.0  0.59630  0.39444  0.84082  1.0000
  H   H822      1.0  0.66166  0.09529  0.77554  1.0000
  N   N65       1.0  0.61878  0.34717  0.95742  1.0000
  C   C826      1.0  0.56875  0.22491  0.92605  1.0000
  C   C827      1.0  0.61952  0.09504  0.52959  1.0000
  C   C828      1.0  0.74860  0.42693  0.96371  1.0000
  H   H823      1.0  0.51665  0.18937  0.90679  1.0000
  C   C829      1.0  0.52047  0.11697  0.77660  1.0000
  C   C830      1.0  0.51849  0.20098  0.91795  1.0000
  H   H824      1.0  0.51766  0.09847  0.53227  1.0000
  C   C831      1.0  0.73349  0.42921  0.96286  1.0000
  H   H825      1.0  0.72856  0.20188  0.93893  1.0000
  H   H826      1.0  0.50560  0.12715  0.71303  1.0000
  C   C832      1.0  0.63021  0.08595  0.52978  1.0000
  C   C833      1.0  0.60553  0.02100  0.70705  1.0000
  H   H827      1.0  0.52532  0.15604  0.95379  1.0000
  Fe  Fe138     1.0  0.61296  0.49686  0.67578  1.0000
  H   H828      1.0  0.60148  0.02986  0.74938  1.0000
  H   H829      1.0  0.58734  0.46292  0.67288  1.0000
  C   C834      1.0  0.53774  0.31489  0.74512  1.0000
  H   H830      1.0  0.64141  0.47502  0.53973  1.0000
  H   H831      1.0  0.63068  0.17085  0.93227  1.0000
  H   H832      1.0  0.72425  0.23896  0.90422  1.0000
  C   C835      1.0  0.50946  0.11972  0.72894  1.0000
  N   N66       1.0  0.60843  0.16848  0.91250  1.0000
  H   H833      1.0  0.63879  0.36655  0.97114  1.0000
  H   H834      1.0  0.59674  0.17166  0.95274  1.0000
  H   H835      1.0  0.58693  0.16382  0.88936  1.0000
  C   C836      1.0  0.54922  0.16356  0.97005  1.0000
  C   C837      1.0  0.51292  0.09863  0.51061  1.0000
  H   H836      1.0  0.53908  0.09057  0.51172  1.0000
  S   S282      1.0  0.70242  0.19344  0.98512  1.0000
  C   C838      1.0  0.60848  0.34623  0.98443  1.0000
  H   H837      1.0  0.50614  0.38179  0.57704  1.0000
  H   H838      1.0  0.60194  0.33325  0.99185  1.0000
  H   H839      1.0  0.62086  0.14037  0.85881  1.0000
  Fe  Fe139     1.0  0.50220  0.37865  0.69510  1.0000
  C   C839      1.0  0.53229  0.15916  0.97301  1.0000
  H   H840      1.0  0.52203  0.09300  0.78731  1.0000
  C   C840      1.0  0.60254  0.15118  0.87163  1.0000
  N   N67       1.0  0.53582  0.20933  0.92073  1.0000
  H   H841      1.0  0.59595  0.18537  0.92227  1.0000
  C   C841      1.0  0.61352  0.49732  0.59762  1.0000
  H   H842      1.0  0.52112  0.29733  0.83800  1.0000
  C   C842      1.0  0.51873  0.10061  0.77090  1.0000
  C   C843      1.0  0.62724  0.15499  0.89629  1.0000
  C   C844      1.0  0.59826  0.16135  0.89137  1.0000
  H   H843      1.0  0.61560  0.35222  0.00283  1.0000
  H   H844      1.0  0.54038  0.18725  0.93308  1.0000
  C   C845      1.0  0.74145  0.46956  0.99639  1.0000
  N   N68       1.0  0.74403  0.45488  0.98516  1.0000
  Fe  Fe140     1.0  0.62743  0.50043  0.73676  1.0000
  H   H845      1.0  0.51743  0.13919  0.75890  1.0000
  Fe  Fe141     1.0  0.50410  0.04117  0.66414  1.0000
  C   C846      1.0  0.51225  0.09380  0.74460  1.0000
  H   H846      1.0  0.72359  0.42044  0.95276  1.0000
  H   H847      1.0  0.59925  0.35225  0.97987  1.0000
  H   H848      1.0  0.54834  0.31883  0.72963  1.0000
  H   H849      1.0  0.52808  0.50375  0.75066  1.0000
  S   S283      1.0  0.64946  0.49749  0.75842  1.0000
  Fe  Fe142     1.0  0.50448  0.41223  0.66906  1.0000
  C   C847      1.0  0.74219  0.22361  0.95935  1.0000
  H   H850      1.0  0.71970  0.44511  0.97290  1.0000
  S   S284      1.0  0.50748  0.06277  0.56043  1.0000
  C   C848      1.0  0.64961  0.49834  0.55907  1.0000
  H   H851      1.0  0.51067  0.08111  0.74102  1.0000
  C   C849      1.0  0.52407  0.31931  0.73944  1.0000
  C   C850      1.0  0.51114  0.30539  0.78585  1.0000
  H   H852      1.0  0.51978  0.38473  0.52669  1.0000
  C   C851      1.0  0.52429  0.15831  0.00117  1.0000
  C   C852      1.0  0.50711  0.10318  0.72378  1.0000
  H   H853      1.0  0.51118  0.15458  0.00337  1.0000
  C   C853      1.0  0.60129  0.00739  0.68962  1.0000
  H   H854      1.0  0.67270  0.16701  0.00643  1.0000
  C   C854      1.0  0.50148  0.68139  0.11254  1.0000
  S   S285      1.0  0.51524  0.57446  0.41202  1.0000
  H   H855      1.0  0.59722  0.97980  0.37155  1.0000
  C   C855      1.0  0.55941  0.61289  0.49737  1.0000
  S   S286      1.0  0.52355  0.57462  0.48261  1.0000
  C   C856      1.0  0.50427  0.88016  0.33775  1.0000
  Fe  Fe143     1.0  0.53562  0.58749  0.43961  1.0000
  S   S287      1.0  0.56194  0.58886  0.43492  1.0000
  H   H856      1.0  0.61285  0.97189  0.35731  1.0000
  S   S288      1.0  0.52707  0.60934  0.44507  1.0000
  C   C857      1.0  0.57136  0.94362  0.32214  1.0000
  H   H857      1.0  0.51747  0.62321  0.35277  1.0000
  C   C858      1.0  0.50202  0.68697  0.28167  1.0000
  C   C859      1.0  0.50665  0.62365  0.34257  1.0000
  C   C860      1.0  0.54165  0.51476  0.44550  1.0000
  Fe  Fe144     1.0  0.51350  0.59520  0.48651  1.0000
  H   H858      1.0  0.56038  0.96123  0.49260  1.0000
  H   H859      1.0  0.55363  0.52380  0.44506  1.0000
  S   S289      1.0  0.57860  0.52755  0.38804  1.0000
  S   S290      1.0  0.62099  0.52754  0.42190  1.0000
  Fe  Fe145     1.0  0.52420  0.91861  0.46227  1.0000
  S   S291      1.0  0.52946  0.94529  0.45103  1.0000
  C   C861      1.0  0.51650  0.86177  0.29901  1.0000
  Fe  Fe146     1.0  0.53100  0.91163  0.39717  1.0000
  S   S292      1.0  0.53756  0.93833  0.38194  1.0000
  S   S293      1.0  0.53386  0.89298  0.36421  1.0000
  Fe  Fe147     1.0  0.55082  0.94386  0.42350  1.0000
  S   S294      1.0  0.57484  0.96297  0.43097  1.0000
  Fe  Fe148     1.0  0.51575  0.93751  0.41105  1.0000
  S   S295      1.0  0.54649  0.91732  0.43674  1.0000
  H   H860      1.0  0.56639  0.94513  0.30115  1.0000
  H   H861      1.0  0.52533  0.54157  0.43622  1.0000
  C   C862      1.0  0.57771  0.98384  0.42170  1.0000
  C   C863      1.0  0.59055  0.99596  0.43318  1.0000
  C   C864      1.0  0.60140  0.96893  0.37146  1.0000
  N   N69       1.0  0.58890  0.95497  0.36052  1.0000
  H   H862      1.0  0.66972  0.52859  0.46714  1.0000
  C   C865      1.0  0.56815  0.98847  0.40150  1.0000
  H   H863      1.0  0.59810  0.99247  0.44865  1.0000
  C   C866      1.0  0.55009  0.63685  0.49791  1.0000
  H   H864      1.0  0.55556  0.63943  0.47481  1.0000
  H   H865      1.0  0.55831  0.97924  0.39232  1.0000
  H   H866      1.0  0.67097  0.50749  0.32860  1.0000
  S   S296      1.0  0.50830  0.91068  0.42420  1.0000
  N   N70       1.0  0.51038  0.00304  0.38751  1.0000
  C   C867      1.0  0.52052  0.88092  0.33885  1.0000
  H   H867      1.0  0.52164  0.53675  0.47558  1.0000
  H   H868      1.0  0.54206  0.54370  0.45926  1.0000
  C   C868      1.0  0.58379  0.94012  0.37621  1.0000
  C   C869      1.0  0.57169  0.00508  0.39231  1.0000
  H   H869      1.0  0.50486  0.67319  0.12779  1.0000
  C   C870      1.0  0.52650  0.87161  0.31931  1.0000
  H   H870      1.0  0.53444  0.84425  0.02450  1.0000
  H   H871      1.0  0.55736  0.91804  0.32894  1.0000
  C   C871      1.0  0.56628  0.92840  0.33773  1.0000
  H   H872      1.0  0.53668  0.63326  0.49723  1.0000
  H   H873      1.0  0.61163  0.53753  0.35780  1.0000
  H   H874      1.0  0.60402  0.96643  0.39462  1.0000
  H   H875      1.0  0.50980  0.67222  0.07354  1.0000
  H   H876      1.0  0.65703  0.50980  0.45399  1.0000
  H   H877      1.0  0.50974  0.84853  0.04745  1.0000
  Fe  Fe149     1.0  0.50248  0.56323  0.45581  1.0000
  H   H878      1.0  0.50522  0.98677  0.42614  1.0000
  S   S297      1.0  0.64671  0.50724  0.37430  1.0000
  C   C872      1.0  0.56620  0.57150  0.42253  1.0000
  C   C873      1.0  0.57959  0.56767  0.43268  1.0000
  C   C874      1.0  0.58337  0.55405  0.42269  1.0000
  C   C875      1.0  0.57405  0.54447  0.40181  1.0000
  C   C876      1.0  0.56065  0.54828  0.39171  1.0000
  C   C877      1.0  0.55663  0.56163  0.40226  1.0000
  H   H879      1.0  0.58708  0.57527  0.44829  1.0000
  H   H880      1.0  0.59369  0.55119  0.43069  1.0000
  H   H881      1.0  0.55337  0.54091  0.37557  1.0000
  H   H882      1.0  0.54641  0.56459  0.39404  1.0000
  H   H883      1.0  0.74923  0.50739  0.23913  1.0000
  Fe  Fe150     1.0  0.50547  0.59519  0.42068  1.0000
  H   H884      1.0  0.58830  0.93869  0.39769  1.0000
  N   N71       1.0  0.52803  0.51908  0.45099  1.0000
  Fe  Fe151     1.0  0.61353  0.51335  0.46605  1.0000
  H   H885      1.0  0.58669  0.96866  0.32168  1.0000
  C   C878      1.0  0.50426  0.68085  0.08209  1.0000
  C   C879      1.0  0.51295  0.50761  0.45133  1.0000
  C   C880      1.0  0.52939  0.53611  0.45574  1.0000
  C   C881      1.0  0.50425  0.70000  0.26075  1.0000
  H   H886      1.0  0.59005  0.51918  0.33339  1.0000
  H   H887      1.0  0.51982  0.63990  0.30565  1.0000
  Fe  Fe152     1.0  0.59490  0.51634  0.41220  1.0000
  C   C882      1.0  0.51273  0.85096  0.02378  1.0000
  H   H888      1.0  0.56820  0.91486  0.37756  1.0000
  C   C883      1.0  0.58277  0.95685  0.33391  1.0000
  H   H889      1.0  0.63168  0.53617  0.35432  1.0000
  H   H890      1.0  0.53903  0.87207  0.31981  1.0000
  C   C884      1.0  0.57244  0.92661  0.36502  1.0000
  N   N72       1.0  0.61489  0.52048  0.32727  1.0000
  C   C885      1.0  0.50793  0.63310  0.31583  1.0000
  H   H891      1.0  0.52145  0.85493  0.28402  1.0000
  C   C886      1.0  0.52656  0.84852  0.01087  1.0000
  H   H892      1.0  0.50217  0.51106  0.45552  1.0000
  H   H893      1.0  0.50396  0.80972  0.07073  1.0000
  C   C887      1.0  0.65763  0.51902  0.47064  1.0000
  N   N73       1.0  0.65511  0.51176  0.50107  1.0000
  H   H894      1.0  0.51018  0.80750  0.29249  1.0000
  H   H895      1.0  0.63859  0.51908  0.31745  1.0000
  H   H896      1.0  0.62452  0.54636  0.32484  1.0000
  H   H897      1.0  0.51362  0.70250  0.24287  1.0000
  H   H898      1.0  0.64813  0.52470  0.46633  1.0000
  H   H899      1.0  0.56048  0.61406  0.47337  1.0000
  C   C888      1.0  0.62098  0.53593  0.34169  1.0000
  C   C889      1.0  0.62564  0.51346  0.31559  1.0000
  C   C890      1.0  0.50477  0.81715  0.29771  1.0000
  H   H900      1.0  0.56689  0.59140  0.49897  1.0000
  H   H901      1.0  0.51249  0.82512  0.31354  1.0000
  H   H902      1.0  0.50995  0.67958  0.27988  1.0000
  H   H903      1.0  0.53287  0.00112  0.40058  1.0000
  C   C891      1.0  0.59858  0.51347  0.32460  1.0000
  H   H904      1.0  0.50508  0.82468  0.27707  1.0000
  Fe  Fe153     1.0  0.52490  0.58715  0.69616  1.0000
  S   S298      1.0  0.51735  0.56437  0.72603  1.0000
  S   S299      1.0  0.52920  0.57942  0.65006  1.0000
  Fe  Fe154     1.0  0.52376  0.60808  0.74902  1.0000
  C   C892      1.0  0.56309  0.60002  0.51179  1.0000
  C   C893      1.0  0.50417  0.85704  0.82253  1.0000
  Fe  Fe155     1.0  0.53557  0.57851  0.75605  1.0000
  S   S300      1.0  0.54973  0.56350  0.77712  1.0000
  C   C894      1.0  0.55849  0.52096  0.71033  1.0000
  S   S301      1.0  0.54410  0.60123  0.72538  1.0000
  H   H905      1.0  0.59245  0.97543  0.57605  1.0000
  Fe  Fe156     1.0  0.61094  0.52449  0.71423  1.0000
  S   S302      1.0  0.63191  0.51728  0.69538  1.0000
  S   S303      1.0  0.60988  0.55026  0.71068  1.0000
  H   H906      1.0  0.51948  0.57784  0.54497  1.0000
  C   C895      1.0  0.63236  0.53096  0.81516  1.0000
  H   H907      1.0  0.53026  0.53752  0.73254  1.0000
  C   C896      1.0  0.55289  0.96008  0.57741  1.0000
  N   N74       1.0  0.50597  0.70959  0.86250  1.0000
  C   C897      1.0  0.51982  0.72871  0.89709  1.0000
  C   C898      1.0  0.51594  0.63609  0.79818  1.0000
  Fe  Fe157     1.0  0.54850  0.93050  0.66530  1.0000
  S   S304      1.0  0.54646  0.95515  0.67421  1.0000
  S   S305      1.0  0.55892  0.92754  0.61961  1.0000
  Fe  Fe158     1.0  0.53236  0.91487  0.72684  1.0000
  S   S306      1.0  0.52887  0.93843  0.73940  1.0000
  H   H908      1.0  0.52750  0.95434  0.56961  1.0000
  Fe  Fe159     1.0  0.52159  0.94082  0.69333  1.0000
  Fe  Fe160     1.0  0.55432  0.95101  0.71937  1.0000
  S   S307      1.0  0.56912  0.97207  0.74530  1.0000
  H   H909      1.0  0.56415  0.58817  0.55411  1.0000
  S   S308      1.0  0.55851  0.92716  0.70946  1.0000
  C   C899      1.0  0.55879  0.54314  0.67589  1.0000
  C   C900      1.0  0.58282  0.99085  0.72955  1.0000
  C   C901      1.0  0.58973  0.99245  0.70059  1.0000
  C   C902      1.0  0.53964  0.51336  0.75467  1.0000
  S   S309      1.0  0.51292  0.85478  0.88065  1.0000
  C   C903      1.0  0.51719  0.88069  0.78744  1.0000
  H   H910      1.0  0.65728  0.52326  0.57160  1.0000
  H   H911      1.0  0.58663  0.98203  0.68707  1.0000
  H   H912      1.0  0.51118  0.61780  0.58852  1.0000
  H   H913      1.0  0.54126  0.55513  0.68662  1.0000
  C   C904      1.0  0.56159  0.59824  0.54263  1.0000
  C   C905      1.0  0.54633  0.92201  0.58961  1.0000
  C   C906      1.0  0.52948  0.91830  0.59333  1.0000
  C   C907      1.0  0.51992  0.91471  0.56880  1.0000
  C   C908      1.0  0.54397  0.91896  0.53639  1.0000
  C   C909      1.0  0.55350  0.92220  0.56104  1.0000
  H   H914      1.0  0.52380  0.91814  0.61511  1.0000
  N   N75       1.0  0.51418  0.99245  0.71643  1.0000
  H   H915      1.0  0.56651  0.92500  0.55793  1.0000
  C   C910      1.0  0.52695  0.88832  0.80969  1.0000
  S   S310      1.0  0.50548  0.59591  0.71667  1.0000
  C   C911      1.0  0.51618  0.00118  0.74123  1.0000
  H   H916      1.0  0.58317  0.96564  0.52506  1.0000
  H   H917      1.0  0.53582  0.90032  0.80495  1.0000
  H   H918      1.0  0.62572  0.53636  0.56702  1.0000
  C   C912      1.0  0.52710  0.91513  0.54019  1.0000
  S   S311      1.0  0.59255  0.50558  0.69097  1.0000
  C   C913      1.0  0.61901  0.51442  0.59594  1.0000
  C   C914      1.0  0.64002  0.54914  0.76143  1.0000
  H   H919      1.0  0.50422  0.68419  0.86633  1.0000
  C   C915      1.0  0.66324  0.53970  0.75081  1.0000
  H   H920      1.0  0.58528  0.95339  0.58369  1.0000
  C   C916      1.0  0.62104  0.52314  0.56829  1.0000
  C   C917      1.0  0.53983  0.53540  0.71879  1.0000
  H   H921      1.0  0.61247  0.54057  0.82059  1.0000
  H   H922      1.0  0.50693  0.69330  0.82926  1.0000
  C   C918      1.0  0.51907  0.58425  0.56472  1.0000
  C   C919      1.0  0.51440  0.60671  0.58937  1.0000
  H   H923      1.0  0.62214  0.52091  0.61580  1.0000
  C   C920      1.0  0.61743  0.51484  0.54224  1.0000
  C   C921      1.0  0.58181  0.96470  0.58387  1.0000
  C   C922      1.0  0.62676  0.54966  0.77960  1.0000
  H   H924      1.0  0.57846  0.96625  0.60730  1.0000
  C   C923      1.0  0.56667  0.56032  0.75848  1.0000
  C   C924      1.0  0.57473  0.56999  0.73330  1.0000
  C   C925      1.0  0.58809  0.56693  0.71896  1.0000
  C   C926      1.0  0.59314  0.55389  0.72913  1.0000
  C   C927      1.0  0.58496  0.54413  0.75413  1.0000
  C   C928      1.0  0.57199  0.54754  0.76903  1.0000
  H   H925      1.0  0.57081  0.57993  0.72509  1.0000
  H   H926      1.0  0.59442  0.57460  0.69975  1.0000
  H   H927      1.0  0.58877  0.53411  0.76228  1.0000
  H   H928      1.0  0.56590  0.54011  0.78866  1.0000
  C   C929      1.0  0.52298  0.58676  0.61744  1.0000
  C   C930      1.0  0.52319  0.57844  0.59160  1.0000
  C   C931      1.0  0.51524  0.74097  0.88273  1.0000
  H   H929      1.0  0.67153  0.53457  0.76273  1.0000
  C   C932      1.0  0.51830  0.60077  0.61641  1.0000
  H   H930      1.0  0.52672  0.56753  0.59229  1.0000
  C   C933      1.0  0.54324  0.99972  0.74387  1.0000
  S   S312      1.0  0.51879  0.88983  0.75081  1.0000
  C   C934      1.0  0.62291  0.54049  0.80661  1.0000
  C   C935      1.0  0.54112  0.99089  0.71854  1.0000
  H   H931      1.0  0.53151  0.62455  0.81870  1.0000
  H   H932      1.0  0.67038  0.55221  0.74167  1.0000
  H   H933      1.0  0.51809  0.60726  0.63624  1.0000
  C   C936      1.0  0.55270  0.62192  0.54349  1.0000
  H   H934      1.0  0.53322  0.88622  0.85488  1.0000
  C   C937      1.0  0.54244  0.95789  0.52893  1.0000
  N   N76       1.0  0.54624  0.52354  0.72736  1.0000
  H   H935      1.0  0.55078  0.98681  0.70945  1.0000
  H   H936      1.0  0.58206  0.00326  0.76954  1.0000
  C   C938      1.0  0.55644  0.60929  0.55865  1.0000
  H   H937      1.0  0.54798  0.63000  0.55603  1.0000
  H   H938      1.0  0.64259  0.55594  0.74005  1.0000
  S   S313      1.0  0.51457  0.91074  0.50996  1.0000
  H   H939      1.0  0.52486  0.98033  0.68553  1.0000
  H   H940      1.0  0.51871  0.70353  0.89786  1.0000
  N   N77       1.0  0.55441  0.62371  0.51326  1.0000
  H   H941      1.0  0.50688  0.91168  0.57202  1.0000
  H   H942      1.0  0.55443  0.64834  0.50954  1.0000
  H   H943      1.0  0.57523  0.52923  0.67169  1.0000
  C   C939      1.0  0.51516  0.71301  0.88648  1.0000
  N   N78       1.0  0.56828  0.96307  0.56499  1.0000
  C   C940      1.0  0.51408  0.86456  0.84467  1.0000
  H   H944      1.0  0.56400  0.55113  0.65632  1.0000
  C   C941      1.0  0.54601  0.54539  0.69296  1.0000
  C   C942      1.0  0.52304  0.63118  0.82229  1.0000
  C   C943      1.0  0.51955  0.85663  0.96313  1.0000
  C   C944      1.0  0.51498  0.59860  0.56336  1.0000
  C   C945      1.0  0.52544  0.88027  0.83804  1.0000
  S   S314      1.0  0.51170  0.60736  0.52931  1.0000
  S   S315      1.0  0.51712  0.58665  0.78227  1.0000
  C   C946      1.0  0.50578  0.86502  0.79414  1.0000
  C   C947      1.0  0.64565  0.53088  0.79661  1.0000
  S   S316      1.0  0.52301  0.91649  0.68161  1.0000
  N   N79       1.0  0.50576  0.85853  0.97590  1.0000
  S   S317      1.0  0.52106  0.63233  0.76146  1.0000
  H   H945      1.0  0.52581  0.63221  0.86929  1.0000
  C   C948      1.0  0.56506  0.53083  0.68451  1.0000
  H   H946      1.0  0.54074  0.84952  0.96998  1.0000
  H   H947      1.0  0.65882  0.53178  0.73233  1.0000
  H   H948      1.0  0.62933  0.52350  0.83584  1.0000
  C   C949      1.0  0.53975  0.95743  0.55959  1.0000
  H   H949      1.0  0.65281  0.52329  0.80327  1.0000
  N   N80       1.0  0.64942  0.54004  0.77027  1.0000
  C   C950      1.0  0.50909  0.64448  0.85594  1.0000
  H   H950      1.0  0.55058  0.95891  0.60128  1.0000
  C   C951      1.0  0.55818  0.96110  0.51642  1.0000
  H   H951      1.0  0.61933  0.55688  0.77240  1.0000
  C   C952      1.0  0.50516  0.64496  0.80318  1.0000
  C   C953      1.0  0.57103  0.96360  0.53491  1.0000
  C   C954      1.0  0.51983  0.63560  0.85093  1.0000
  H   H952      1.0  0.54964  0.91919  0.51453  1.0000
  S   S318      1.0  0.50591  0.65019  0.89226  1.0000
  H   H953      1.0  0.56353  0.51155  0.71717  1.0000
  H   H954      1.0  0.53228  0.95528  0.51497  1.0000
  H   H955      1.0  0.51834  0.75309  0.89121  1.0000
  H   H956      1.0  0.52671  0.73130  0.91658  1.0000
  C   C955      1.0  0.65806  0.52180  0.52409  1.0000
  H   H957      1.0  0.55477  0.60775  0.58263  1.0000
  H   H958      1.0  0.53739  0.52100  0.77247  1.0000
  C   C956      1.0  0.52641  0.98728  0.70510  1.0000
  S   S319      1.0  0.60797  0.50937  0.75692  1.0000
  H   H959      1.0  0.66185  0.53497  0.51987  1.0000
  C   C957      1.0  0.50151  0.64888  0.83199  1.0000
  H   H960      1.0  0.52236  0.85884  0.93942  1.0000
  C   C958      1.0  0.65547  0.51526  0.55339  1.0000
  C   C959      1.0  0.58715  0.00445  0.74698  1.0000
  H   H961      1.0  0.55458  0.00249  0.75454  1.0000
  H   H962      1.0  0.54826  0.50734  0.76294  1.0000
  C   C960      1.0  0.53006  0.85142  0.98036  1.0000
  C   C961      1.0  0.50611  0.73743  0.85804  1.0000
  H   H963      1.0  0.50211  0.74677  0.84726  1.0000
  C   C962      1.0  0.53076  0.00501  0.75524  1.0000
  C   C963      1.0  0.50237  0.85593  0.00584  1.0000
  C   C964      1.0  0.50145  0.72155  0.84829  1.0000
  S   S320      1.0  0.62213  0.52609  0.50766  1.0000
  H   H964      1.0  0.50657  0.00545  0.74997  1.0000
  H   H965      1.0  0.84899  0.43542  0.15884  1.0000
  S   S321      1.0  0.97153  0.47872  0.39799  1.0000
  H   H966      1.0  0.87077  0.44699  0.24869  1.0000
  Fe  Fe161     1.0  0.91813  0.40289  0.35790  1.0000
  S   S322      1.0  0.92526  0.38436  0.33242  1.0000
  S   S323      1.0  0.91568  0.42622  0.33907  1.0000
  Fe  Fe162     1.0  0.91214  0.38306  0.41711  1.0000
  S   S324      1.0  0.91843  0.36254  0.39655  1.0000
  S   S325      1.0  0.90306  0.38637  0.46339  1.0000
  Fe  Fe163     1.0  0.93924  0.38262  0.37247  1.0000
  S   S326      1.0  0.96505  0.38222  0.37393  1.0000
  Fe  Fe164     1.0  0.90387  0.36609  0.35826  1.0000
  S   S327      1.0  0.88224  0.34621  0.34193  1.0000
  S   S328      1.0  0.93369  0.40273  0.39563  1.0000
  S   S329      1.0  0.89601  0.38504  0.38114  1.0000
  Fe  Fe165     1.0  0.83524  0.32535  0.19317  1.0000
  S   S330      1.0  0.81346  0.32165  0.22434  1.0000
  S   S331      1.0  0.86078  0.33670  0.20904  1.0000
  Fe  Fe166     1.0  0.81457  0.31607  0.13883  1.0000
  S   S332      1.0  0.79156  0.31262  0.16702  1.0000
  S   S333      1.0  0.80682  0.30919  0.09240  1.0000
  Fe  Fe167     1.0  0.80531  0.33520  0.18851  1.0000
  S   S334      1.0  0.79345  0.35384  0.20062  1.0000
  Fe  Fe168     1.0  0.80152  0.29919  0.19991  1.0000
  S   S335      1.0  0.78517  0.27548  0.22368  1.0000
  S   S336      1.0  0.82751  0.34012  0.15782  1.0000
  S   S337      1.0  0.82414  0.30146  0.17141  1.0000
  Fe  Fe169     1.0  0.84987  0.47740  0.24835  1.0000
  S   S338      1.0  0.83371  0.45364  0.27057  1.0000
  C   C965      1.0  0.75763  0.45422  0.20677  1.0000
  Fe  Fe170     1.0  0.83198  0.47067  0.18962  1.0000
  S   S339      1.0  0.81522  0.44634  0.20838  1.0000
  S   S340      1.0  0.82430  0.47724  0.14467  1.0000
  Fe  Fe171     1.0  0.81303  0.45935  0.24916  1.0000
  S   S341      1.0  0.78835  0.45613  0.27247  1.0000
  Fe  Fe172     1.0  0.83725  0.44309  0.22736  1.0000
  S   S342      1.0  0.84597  0.42145  0.22261  1.0000
  S   S343      1.0  0.82892  0.48403  0.23001  1.0000
  S   S344      1.0  0.85438  0.46647  0.20564  1.0000
  C   C966      1.0  0.85448  0.47592  0.07337  1.0000
  C   C967      1.0  0.84844  0.47627  0.10272  1.0000
  C   C968      1.0  0.83226  0.47540  0.10859  1.0000
  C   C969      1.0  0.82214  0.47377  0.08492  1.0000
  C   C970      1.0  0.82810  0.47313  0.05567  1.0000
  H   H967      1.0  0.80117  0.25931  0.17106  1.0000
  H   H968      1.0  0.80965  0.47323  0.08915  1.0000
  H   H969      1.0  0.82021  0.47211  0.03768  1.0000
  H   H970      1.0  0.88165  0.35104  0.49266  1.0000
  H   H971      1.0  0.90847  0.41583  0.42381  1.0000
  H   H972      1.0  0.78252  0.45492  0.20962  1.0000
  C   C971      1.0  0.80787  0.37235  0.20885  1.0000
  C   C972      1.0  0.80290  0.38547  0.21747  1.0000
  C   C973      1.0  0.81449  0.40062  0.22214  1.0000
  C   C974      1.0  0.83105  0.40263  0.21821  1.0000
  C   C975      1.0  0.83597  0.38947  0.20990  1.0000
  C   C976      1.0  0.82444  0.37435  0.20540  1.0000
  H   H973      1.0  0.79010  0.38398  0.22022  1.0000
  H   H974      1.0  0.81059  0.41071  0.22874  1.0000
  H   H975      1.0  0.84876  0.39104  0.20657  1.0000
  H   H976      1.0  0.82840  0.36431  0.19896  1.0000
  C   C977      1.0  0.81728  0.31344  0.05681  1.0000
  C   C978      1.0  0.83409  0.32096  0.05266  1.0000
  H   H977      1.0  0.91400  0.45536  0.47959  1.0000
  H   H978      1.0  0.93093  0.43780  0.48367  1.0000
  C   C979      1.0  0.90639  0.42716  0.42880  1.0000
  C   C980      1.0  0.80827  0.30880  0.03189  1.0000
  H   H979      1.0  0.84119  0.32454  0.07161  1.0000
  H   H980      1.0  0.84668  0.44094  0.12055  1.0000
  H   H981      1.0  0.80426  0.27947  0.12848  1.0000
  H   H982      1.0  0.79526  0.30298  0.03483  1.0000
  C   C981      1.0  0.76691  0.26355  0.20921  1.0000
  C   C982      1.0  0.82476  0.40958  0.14611  1.0000
  C   C983      1.0  0.90061  0.45595  0.44132  1.0000
  H   H983      1.0  0.83584  0.40661  0.14820  1.0000
  C   C984      1.0  0.79559  0.40057  0.14502  1.0000
  H   H984      1.0  0.78023  0.30334  0.25432  1.0000
  H   H985      1.0  0.76873  0.27979  0.17094  1.0000
  H   H986      1.0  0.86682  0.34486  0.40363  1.0000
  H   H987      1.0  0.78507  0.41994  0.14118  1.0000
  H   H988      1.0  0.77303  0.49395  0.26296  1.0000
  C   C985      1.0  0.87667  0.34340  0.30476  1.0000
  C   C986      1.0  0.86075  0.33379  0.29955  1.0000
  C   C987      1.0  0.85573  0.33140  0.27048  1.0000
  C   C988      1.0  0.86668  0.33841  0.24617  1.0000
  C   C989      1.0  0.88271  0.34767  0.25140  1.0000
  C   C990      1.0  0.88764  0.35033  0.28047  1.0000
  H   H989      1.0  0.85220  0.32819  0.31813  1.0000
  H   H990      1.0  0.84342  0.32409  0.26688  1.0000
  H   H991      1.0  0.89135  0.35299  0.23279  1.0000
  H   H992      1.0  0.90000  0.35755  0.28404  1.0000
  C   C991      1.0  0.89174  0.33597  0.46629  1.0000
  H   H993      1.0  0.89633  0.30669  0.44091  1.0000
  C   C992      1.0  0.77133  0.45416  0.22191  1.0000
  C   C993      1.0  0.88061  0.49390  0.30356  1.0000
  C   C994      1.0  0.87390  0.48089  0.32476  1.0000
  C   C995      1.0  0.97798  0.41373  0.34888  1.0000
  H   H994      1.0  0.85646  0.47785  0.12060  1.0000
  H   H995      1.0  0.86285  0.47130  0.32060  1.0000
  C   C996      1.0  0.00074  0.45415  0.41174  1.0000
  C   C997      1.0  0.95663  0.46488  0.37892  1.0000
  C   C998      1.0  0.94174  0.46739  0.37533  1.0000
  C   C999      1.0  0.92931  0.45574  0.36228  1.0000
  C   C1000     1.0  0.93180  0.44165  0.35226  1.0000
  C   C1001     1.0  0.94686  0.43939  0.35479  1.0000
  C   C1002     1.0  0.95930  0.45099  0.36811  1.0000
  H   H996      1.0  0.93961  0.47817  0.38302  1.0000
  H   H997      1.0  0.91760  0.45740  0.36121  1.0000
  H   H998      1.0  0.94886  0.42861  0.34661  1.0000
  H   H999      1.0  0.97084  0.44905  0.37036  1.0000
  N   N81       1.0  0.86260  0.37499  0.26755  1.0000
  C   C1003     1.0  0.86872  0.37983  0.29410  1.0000
  C   C1004     1.0  0.88499  0.38937  0.29545  1.0000
  C   C1005     1.0  0.89500  0.39397  0.26944  1.0000
  C   C1006     1.0  0.84540  0.36537  0.26658  1.0000
  H   H1000     1.0  0.86110  0.37604  0.31449  1.0000
  H   H1001     1.0  0.88990  0.39299  0.31655  1.0000
  H   H1002     1.0  0.90771  0.40114  0.27034  1.0000
  H   H1003     1.0  0.84327  0.35807  0.24664  1.0000
  H   H1004     1.0  0.83792  0.37361  0.26619  1.0000
  C   C1007     1.0  0.76157  0.26856  0.18303  1.0000
  C   C1008     1.0  0.79040  0.49358  0.22804  1.0000
  H   H1005     1.0  0.83928  0.45021  0.15053  1.0000
  C   C1009     1.0  0.79402  0.26823  0.13064  1.0000
  H   H1006     1.0  0.88846  0.45369  0.40084  1.0000
  H   H1007     1.0  0.99420  0.47523  0.34859  1.0000
  H   H1008     1.0  0.75845  0.45509  0.18284  1.0000
  C   C1010     1.0  0.90989  0.37990  0.49638  1.0000
  C   C1011     1.0  0.76913  0.25071  0.11289  1.0000
  S   S345      1.0  0.93621  0.48691  0.44122  1.0000
  C   C1012     1.0  0.84083  0.43865  0.14336  1.0000
  N   N82       1.0  0.76342  0.49392  0.22059  1.0000
  C   C1013     1.0  0.77225  0.31103  0.25182  1.0000
  H   H1009     1.0  0.87578  0.47044  0.36801  1.0000
  C   C1014     1.0  0.76616  0.49348  0.19068  1.0000
  C   C1015     1.0  0.89486  0.44822  0.41584  1.0000
  C   C1016     1.0  0.88336  0.33240  0.41727  1.0000
  H   H1010     1.0  0.98829  0.43833  0.32941  1.0000
  H   H1011     1.0  0.99036  0.39202  0.44810  1.0000
  C   C1017     1.0  0.77531  0.49402  0.23921  1.0000
  H   H1012     1.0  0.88777  0.47496  0.22962  1.0000
  Fe  Fe173     1.0  0.92898  0.50469  0.41178  1.0000
  C   C1018     1.0  0.90936  0.44913  0.46002  1.0000
  H   H1013     1.0  0.80481  0.49227  0.18867  1.0000
  C   C1019     1.0  0.88133  0.48043  0.35169  1.0000
  H   H1014     1.0  0.76761  0.31304  0.27407  1.0000
  H   H1015     1.0  0.91809  0.48044  0.32998  1.0000
  H   H1016     1.0  0.76147  0.24480  0.24471  1.0000
  H   H1017     1.0  0.93139  0.47467  0.30402  1.0000
  H   H1018     1.0  0.88387  0.32732  0.39589  1.0000
  N   N83       1.0  0.90769  0.47133  0.29025  1.0000
  C   C1020     1.0  0.90410  0.47804  0.26471  1.0000
  C   C1021     1.0  0.89846  0.45592  0.30084  1.0000
  C   C1022     1.0  0.89089  0.46932  0.24924  1.0000
  C   C1023     1.0  0.88509  0.44691  0.28603  1.0000
  C   C1024     1.0  0.88127  0.45371  0.26012  1.0000
  C   C1025     1.0  0.80998  0.39686  0.14645  1.0000
  C   C1026     1.0  0.92149  0.42806  0.47330  1.0000
  H   H1019     1.0  0.90132  0.45056  0.32097  1.0000
  H   H1020     1.0  0.86585  0.35711  0.45227  1.0000
  H   H1021     1.0  0.87766  0.43479  0.29471  1.0000
  C   C1027     1.0  0.89761  0.43364  0.40964  1.0000
  C   C1028     1.0  0.88863  0.38908  0.24243  1.0000
  C   C1029     1.0  0.84438  0.47445  0.04966  1.0000
  C   C1030     1.0  0.87227  0.37961  0.24186  1.0000
  C   C1031     1.0  0.77072  0.45388  0.25281  1.0000
  H   H1022     1.0  0.84126  0.35648  0.28607  1.0000
  C   C1032     1.0  0.98107  0.40044  0.36288  1.0000
  H   H1023     1.0  0.86752  0.37547  0.22087  1.0000
  H   H1024     1.0  0.89635  0.39231  0.22209  1.0000
  H   H1025     1.0  0.96574  0.41263  0.34367  1.0000
  H   H1026     1.0  0.91413  0.32390  0.44675  1.0000
  N   N84       1.0  0.82519  0.42555  0.14400  1.0000
  C   C1033     1.0  0.81120  0.42930  0.14135  1.0000
  C   C1034     1.0  0.92171  0.48042  0.30614  1.0000
  H   H1027     1.0  0.97279  0.42950  0.41326  1.0000
  C   C1035     1.0  0.99242  0.40476  0.44150  1.0000
  H   H1028     1.0  0.90735  0.32064  0.41034  1.0000
  C   C1036     1.0  0.77903  0.24244  0.15667  1.0000
  C   C1037     1.0  0.90307  0.31969  0.43410  1.0000
  C   C1038     1.0  0.79237  0.25683  0.15429  1.0000
  H   H1029     1.0  0.78317  0.49222  0.15515  1.0000
  C   C1039     1.0  0.79617  0.41688  0.14229  1.0000
  H   H1030     1.0  0.89892  0.33377  0.48389  1.0000
  H   H1031     1.0  0.81156  0.44196  0.13912  1.0000
  C   C1040     1.0  0.97968  0.40964  0.43168  1.0000
  H   H1032     1.0  0.89865  0.46740  0.44607  1.0000
  H   H1033     1.0  0.75659  0.49299  0.17598  1.0000
  H   H1034     1.0  0.80964  0.38420  0.14873  1.0000
  C   C1041     1.0  0.89567  0.49282  0.35782  1.0000
  H   H1035     1.0  0.75541  0.45250  0.29231  1.0000
  C   C1042     1.0  0.78235  0.26520  0.10980  1.0000
  C   C1043     1.0  0.78112  0.49299  0.17876  1.0000
  H   H1036     1.0  0.96775  0.40067  0.43035  1.0000
  N   N85       1.0  0.91241  0.43507  0.45332  1.0000
  C   C1044     1.0  0.91920  0.36940  0.49634  1.0000
  H   H1037     1.0  0.91108  0.49040  0.25660  1.0000
  N   N86       1.0  0.76754  0.23962  0.13625  1.0000
  N   N87       1.0  0.89259  0.32973  0.43925  1.0000
  H   H1038     1.0  0.78356  0.27416  0.09153  1.0000
  H   H1039     1.0  0.77983  0.32312  0.24133  1.0000
  C   C1045     1.0  0.87360  0.34228  0.42157  1.0000
  H   H1040     1.0  0.92779  0.42066  0.46122  1.0000
  H   H1041     1.0  0.92305  0.36561  0.47560  1.0000
  H   H1042     1.0  0.80665  0.34475  0.01403  1.0000
  S   S346      1.0  0.87187  0.49515  0.26895  1.0000
  H   H1043     1.0  0.86712  0.47708  0.06896  1.0000
  H   H1044     1.0  0.78403  0.39078  0.14626  1.0000
  S   S347      1.0  0.90454  0.49134  0.39222  1.0000
  H   H1045     1.0  0.89325  0.42753  0.38983  1.0000
  Fe  Fe174     1.0  0.96040  0.49658  0.41657  1.0000
  H   H1046     1.0  0.77770  0.23376  0.17539  1.0000
  H   H1047     1.0  0.85482  0.32926  0.02090  1.0000
  N   N88       1.0  0.99778  0.43719  0.42268  1.0000
  S   S348      1.0  0.85275  0.47514  0.01284  1.0000
  C   C1046     1.0  0.79330  0.49303  0.19761  1.0000
  H   H1048     1.0  0.79953  0.49306  0.24311  1.0000
  C   C1047     1.0  0.81405  0.37114  0.00934  1.0000
  C   C1048     1.0  0.87300  0.34906  0.44880  1.0000
  C   C1049     1.0  0.98263  0.42596  0.42194  1.0000
  C   C1050     1.0  0.99078  0.42825  0.34083  1.0000
  H   H1049     1.0  0.91303  0.41991  0.49088  1.0000
  H   H1050     1.0  0.80635  0.37221  0.02815  1.0000
  C   C1051     1.0  0.99710  0.40185  0.36898  1.0000
  C   C1052     1.0  0.88191  0.34569  0.47148  1.0000
  C   C1053     1.0  0.84179  0.32358  0.02388  1.0000
  H   H1051     1.0  0.92674  0.49344  0.29779  1.0000
  C   C1054     1.0  0.75743  0.24880  0.22445  1.0000
  H   H1052     1.0  0.98960  0.45767  0.41475  1.0000
  H   H1053     1.0  0.76004  0.24847  0.09670  1.0000
  C   C1055     1.0  0.75602  0.45283  0.26839  1.0000
  C   C1056     1.0  0.75550  0.31088  0.20969  1.0000
  H   H1054     1.0  0.75695  0.21478  0.12652  1.0000
  N   N89       1.0  0.75868  0.30288  0.23415  1.0000
  H   H1055     1.0  0.99961  0.39157  0.37961  1.0000
  C   C1057     1.0  0.75381  0.22432  0.13872  1.0000
  H   H1056     1.0  0.76315  0.32326  0.20281  1.0000
  H   H1057     1.0  0.75193  0.28077  0.26156  1.0000
  H   H1058     1.0  0.77834  0.44925  0.90132  1.0000
  H   H1059     1.0  0.87391  0.47521  0.96080  1.0000
  S   S349      1.0  0.94924  0.47165  0.72184  1.0000
  Fe  Fe175     1.0  0.91147  0.39978  0.65241  1.0000
  S   S350      1.0  0.92539  0.39950  0.69207  1.0000
  S   S351      1.0  0.89903  0.41883  0.65337  1.0000
  Fe  Fe176     1.0  0.92239  0.37354  0.62599  1.0000
  S   S352      1.0  0.93737  0.37139  0.66470  1.0000
  S   S353      1.0  0.92289  0.36008  0.58413  1.0000
  Fe  Fe177     1.0  0.91544  0.37221  0.69305  1.0000
  S   S354      1.0  0.90770  0.36418  0.74188  1.0000
  Fe  Fe178     1.0  0.94592  0.39894  0.66098  1.0000
  S   S355      1.0  0.96938  0.41992  0.66557  1.0000
  S   S356      1.0  0.89999  0.37251  0.65473  1.0000
  S   S357      1.0  0.93238  0.40087  0.62088  1.0000
  Fe  Fe179     1.0  0.83206  0.31490  0.85310  1.0000
  S   S358      1.0  0.80832  0.31937  0.84692  1.0000
  S   S359      1.0  0.84536  0.31164  0.81022  1.0000
  Fe  Fe180     1.0  0.82980  0.31958  0.92031  1.0000
  S   S360      1.0  0.80663  0.32531  0.91775  1.0000
  C   C1058     1.0  0.79255  0.46680  0.83599  1.0000
  Fe  Fe181     1.0  0.79899  0.30370  0.88911  1.0000
  S   S361      1.0  0.77341  0.28649  0.90288  1.0000
  Fe  Fe182     1.0  0.81810  0.34015  0.87591  1.0000
  S   S362      1.0  0.82079  0.36600  0.86013  1.0000
  S   S363      1.0  0.82194  0.29730  0.89344  1.0000
  S   S364      1.0  0.84203  0.33627  0.88047  1.0000
  Fe  Fe183     1.0  0.81646  0.43683  0.94626  1.0000
  S   S365      1.0  0.84331  0.44884  0.94611  1.0000
  S   S366      1.0  0.80408  0.40989  0.95645  1.0000
  Fe  Fe184     1.0  0.81014  0.46873  0.93463  1.0000
  S   S367      1.0  0.83677  0.48376  0.93386  1.0000
  S   S368      1.0  0.79031  0.48020  0.92976  1.0000
  Fe  Fe185     1.0  0.84088  0.46422  0.90635  1.0000
  S   S369      1.0  0.85802  0.46604  0.86539  1.0000
  Fe  Fe186     1.0  0.83720  0.46732  0.97376  1.0000
  C   C1059     1.0  0.95584  0.43361  0.74341  1.0000
  S   S370      1.0  0.81416  0.45037  0.90441  1.0000
  S   S371      1.0  0.81042  0.45413  0.97665  1.0000
  C   C1060     1.0  0.91259  0.48317  0.63568  1.0000
  H   H1060     1.0  0.75834  0.24587  0.97419  1.0000
  C   C1061     1.0  0.82051  0.46760  0.83502  1.0000
  C   C1062     1.0  0.85634  0.37497  0.78148  1.0000
  C   C1063     1.0  0.76850  0.45421  0.90436  1.0000
  C   C1064     1.0  0.81553  0.37804  0.88652  1.0000
  C   C1065     1.0  0.80511  0.37084  0.91136  1.0000
  C   C1066     1.0  0.80127  0.38072  0.93237  1.0000
  C   C1067     1.0  0.80810  0.39779  0.92891  1.0000
  C   C1068     1.0  0.81856  0.40498  0.90413  1.0000
  C   C1069     1.0  0.82215  0.39511  0.88284  1.0000
  H   H1061     1.0  0.79982  0.35768  0.91416  1.0000
  H   H1062     1.0  0.79313  0.37512  0.95148  1.0000
  H   H1063     1.0  0.82393  0.41813  0.90135  1.0000
  H   H1064     1.0  0.83023  0.40072  0.86366  1.0000
  C   C1070     1.0  0.92321  0.36346  0.52335  1.0000
  H   H1065     1.0  0.78635  0.49656  0.87369  1.0000
  C   C1071     1.0  0.99207  0.48649  0.70512  1.0000
  H   H1066     1.0  0.80883  0.30784  0.98423  1.0000
  C   C1072     1.0  0.88212  0.48285  0.94321  1.0000
  H   H1067     1.0  0.99659  0.44868  0.66336  1.0000
  H   H1068     1.0  0.78470  0.49816  0.83412  1.0000
  S   S372      1.0  0.84290  0.32269  0.96308  1.0000
  H   H1069     1.0  0.76010  0.48676  0.93178  1.0000
  C   C1073     1.0  0.87583  0.49857  0.84791  1.0000
  C   C1074     1.0  0.88994  0.34966  0.75983  1.0000
  C   C1075     1.0  0.88057  0.33590  0.74614  1.0000
  C   C1076     1.0  0.86706  0.32434  0.76193  1.0000
  C   C1077     1.0  0.86255  0.32653  0.79133  1.0000
  C   C1078     1.0  0.87178  0.34044  0.80481  1.0000
  C   C1079     1.0  0.88547  0.35181  0.78925  1.0000
  H   H1070     1.0  0.88396  0.33394  0.72369  1.0000
  H   H1071     1.0  0.86009  0.31357  0.75135  1.0000
  H   H1072     1.0  0.86862  0.34223  0.82747  1.0000
  H   H1073     1.0  0.89270  0.36230  0.80020  1.0000
  C   C1080     1.0  0.91835  0.36833  0.55050  1.0000
  C   C1081     1.0  0.90941  0.37917  0.55040  1.0000
  H   H1074     1.0  0.81548  0.50106  0.86492  1.0000
  N   N90       1.0  0.95070  0.40458  0.74696  1.0000
  N   N91       1.0  0.83350  0.36839  0.96070  1.0000
  H   H1075     1.0  0.98182  0.48189  0.69160  1.0000
  H   H1076     1.0  0.90551  0.38291  0.57115  1.0000
  H   H1077     1.0  0.75955  0.24263  0.83249  1.0000
  H   H1078     1.0  0.85283  0.37842  0.92713  1.0000
  H   H1079     1.0  0.76898  0.46197  0.99485  1.0000
  H   H1080     1.0  0.77187  0.48055  0.85657  1.0000
  C   C1082     1.0  0.82381  0.35463  0.97658  1.0000
  C   C1083     1.0  0.88275  0.47770  0.82184  1.0000
  C   C1084     1.0  0.99116  0.49642  0.72811  1.0000
  C   C1085     1.0  0.84341  0.36668  0.93477  1.0000
  C   C1086     1.0  0.75650  0.23703  0.95739  1.0000
  H   H1081     1.0  0.88071  0.46493  0.81829  1.0000
  H   H1082     1.0  0.98809  0.39700  0.67171  1.0000
  C   C1087     1.0  0.93528  0.45855  0.70031  1.0000
  C   C1088     1.0  0.91892  0.45760  0.70199  1.0000
  C   C1089     1.0  0.90768  0.44581  0.68656  1.0000
  C   C1090     1.0  0.91291  0.43510  0.66955  1.0000
  C   C1091     1.0  0.92940  0.43677  0.66674  1.0000
  C   C1092     1.0  0.94052  0.44828  0.68240  1.0000
  H   H1083     1.0  0.91483  0.46548  0.71609  1.0000
  H   H1084     1.0  0.89491  0.44457  0.68876  1.0000
  H   H1085     1.0  0.93366  0.42897  0.65286  1.0000
  H   H1086     1.0  0.95318  0.44904  0.68077  1.0000
  C   C1093     1.0  0.77107  0.46894  0.91802  1.0000
  C   C1094     1.0  0.95568  0.39043  0.73989  1.0000
  H   H1087     1.0  0.84041  0.39440  0.95472  1.0000
  H   H1088     1.0  0.90261  0.48625  0.78811  1.0000
  H   H1089     1.0  0.86689  0.36014  0.70646  1.0000
  H   H1090     1.0  0.78008  0.46050  0.83130  1.0000
  H   H1091     1.0  0.84482  0.34211  0.74084  1.0000
  C   C1095     1.0  0.90651  0.49627  0.63649  1.0000
  N   N92       1.0  0.79660  0.48159  0.84848  1.0000
  H   H1092     1.0  0.85346  0.37909  0.80273  1.0000
  H   H1093     1.0  0.96349  0.44576  0.73529  1.0000
  C   C1096     1.0  0.80442  0.45955  0.82921  1.0000
  H   H1094     1.0  0.77445  0.22963  0.89471  1.0000
  C   C1097     1.0  0.81231  0.48945  0.85467  1.0000
  C   C1098     1.0  0.90290  0.50217  0.89787  1.0000
  H   H1095     1.0  0.88351  0.50092  0.99069  1.0000
  C   C1099     1.0  0.86888  0.38543  0.76243  1.0000
  C   C1100     1.0  0.90378  0.49526  0.58389  1.0000
  C   C1101     1.0  0.75315  0.44590  0.89436  1.0000
  H   H1096     1.0  0.91633  0.47878  0.65593  1.0000
  C   C1102     1.0  0.90983  0.48211  0.58389  1.0000
  C   C1103     1.0  0.94079  0.43138  0.75814  1.0000
  H   H1097     1.0  0.91157  0.47702  0.56302  1.0000
  N   N93       1.0  0.91444  0.47646  0.60949  1.0000
  H   H1098     1.0  0.77752  0.26855  0.85086  1.0000
  H   H1099     1.0  0.86855  0.50212  0.86462  1.0000
  C   C1104     1.0  0.78429  0.48962  0.85335  1.0000
  C   C1105     1.0  0.82450  0.48259  0.84799  1.0000
  C   C1106     1.0  0.90504  0.38475  0.52349  1.0000
  C   C1107     1.0  0.75818  0.47526  0.92158  1.0000
  C   C1108     1.0  0.92113  0.46293  0.60895  1.0000
  H   H1100     1.0  0.79257  0.24919  0.94412  1.0000
  C   C1109     1.0  0.76099  0.26852  0.88775  1.0000
  H   H1101     1.0  0.91923  0.41378  0.77955  1.0000
  C   C1110     1.0  0.99633  0.40942  0.67086  1.0000
  C   C1111     1.0  0.76589  0.26215  0.86245  1.0000
  H   H1102     1.0  0.89770  0.39273  0.52382  1.0000
  H   H1103     1.0  0.82347  0.34268  0.96997  1.0000
  H   H1104     1.0  0.90114  0.47966  0.87754  1.0000
  C   C1112     1.0  0.87303  0.48198  0.84366  1.0000
  H   H1105     1.0  0.96239  0.39257  0.71773  1.0000
  H   H1106     1.0  0.84969  0.35763  0.93999  1.0000
  C   C1113     1.0  0.75569  0.24745  0.85212  1.0000
  S   S373      1.0  0.92469  0.50381  0.71278  1.0000
  C   C1114     1.0  0.88701  0.47546  0.91926  1.0000
  H   H1107     1.0  0.93016  0.35511  0.52329  1.0000
  H   H1108     1.0  0.88233  0.46229  0.91788  1.0000
  H   H1109     1.0  0.78746  0.25734  0.90991  1.0000
  H   H1110     1.0  0.93673  0.44184  0.76154  1.0000
  N   N94       1.0  0.76789  0.23909  0.93437  1.0000
  H   H1111     1.0  0.92846  0.39013  0.77012  1.0000
  C   C1115     1.0  0.76553  0.22792  0.91314  1.0000
  C   C1116     1.0  0.83339  0.38351  0.96816  1.0000
  H   H1112     1.0  0.83554  0.36234  0.91633  1.0000
  C   C1117     1.0  0.82369  0.38512  0.99262  1.0000
  H   H1113     1.0  0.75305  0.47979  0.99675  1.0000
  S   S374      1.0  0.94185  0.49755  0.52118  1.0000
  C   C1118     1.0  0.96071  0.42001  0.73829  1.0000
  H   H1114     1.0  0.96355  0.38814  0.75687  1.0000
  C   C1119     1.0  0.87266  0.38010  0.73521  1.0000
  C   C1120     1.0  0.93097  0.41567  0.76813  1.0000
  C   C1121     1.0  0.86379  0.36452  0.72727  1.0000
  H   H1115     1.0  0.97236  0.42184  0.72655  1.0000
  C   C1122     1.0  0.85133  0.35438  0.74685  1.0000
  H   H1116     1.0  0.82475  0.35392  0.79691  1.0000
  N   N95       1.0  0.84786  0.35963  0.77365  1.0000
  C   C1123     1.0  0.83496  0.34894  0.79429  1.0000
  H   H1117     1.0  0.83696  0.48875  0.85301  1.0000
  H   H1118     1.0  0.82986  0.46210  0.83003  1.0000
  H   H1119     1.0  0.83023  0.33627  0.78691  1.0000
  H   H1120     1.0  0.95143  0.49269  0.57956  1.0000
  H   H1121     1.0  0.88257  0.38792  0.72040  1.0000
  H   H1122     1.0  0.92774  0.46299  0.58731  1.0000
  H   H1123     1.0  0.83973  0.34799  0.81632  1.0000
  C   C1124     1.0  0.93623  0.40233  0.76260  1.0000
  H   H1124     1.0  0.87572  0.39752  0.76878  1.0000
  H   H1125     1.0  0.94494  0.37925  0.73878  1.0000
  Fe  Fe187     1.0  0.94645  0.49637  0.72190  1.0000
  H   H1126     1.0  0.77323  0.43715  0.97593  1.0000
  C   C1125     1.0  0.76136  0.43867  0.97570  1.0000
  H   H1127     1.0  0.91120  0.45106  0.61310  1.0000
  C   C1126     1.0  0.99032  0.42252  0.66736  1.0000
  H   H1128     1.0  0.80117  0.44774  0.81963  1.0000
  C   C1127     1.0  0.89521  0.48977  0.80467  1.0000
  C   C1128     1.0  0.75885  0.45267  0.98641  1.0000
  H   H1129     1.0  0.93003  0.46399  0.62611  1.0000
  C   C1129     1.0  0.83278  0.31884  0.99899  1.0000
  C   C1130     1.0  0.78307  0.25289  0.93318  1.0000
  C   C1131     1.0  0.94787  0.50358  0.57920  1.0000
  H   H1130     1.0  0.86853  0.50492  0.96846  1.0000
  H   H1131     1.0  0.78132  0.26352  0.94415  1.0000
  C   C1132     1.0  0.89755  0.48521  0.89659  1.0000
  H   H1132     1.0  0.90098  0.50028  0.56329  1.0000
  C   C1133     1.0  0.81594  0.31154  0.00315  1.0000
  H   H1133     1.0  0.98023  0.49957  0.73264  1.0000
  H   H1134     1.0  0.90581  0.50212  0.65698  1.0000
  N   N96       1.0  0.88746  0.49949  0.94437  1.0000
  C   C1134     1.0  0.90222  0.50243  0.61037  1.0000
  H   H1135     1.0  0.82330  0.39711  0.99795  1.0000
  C   C1135     1.0  0.81412  0.35577  0.00135  1.0000
  H   H1136     1.0  0.75124  0.43452  0.88374  1.0000
  C   C1136     1.0  0.75134  0.21440  0.91440  1.0000
  H   H1137     1.0  0.98227  0.57952  0.47103  1.0000
  S   S375      1.0  0.97081  0.51488  0.44980  1.0000
  Fe  Fe188     1.0  0.94565  0.50671  0.47241  1.0000
  H   H1138     1.0  0.99260  0.52976  0.37691  1.0000
  H   H1139     1.0  0.90033  0.51640  0.29348  1.0000
  H   H1140     1.0  0.97946  0.59388  0.42420  1.0000
  Fe  Fe189     1.0  0.96148  0.53128  0.42145  1.0000
  S   S376      1.0  0.97680  0.55757  0.40888  1.0000
  S   S377      1.0  0.93646  0.52405  0.44547  1.0000
  S   S378      1.0  0.95319  0.51358  0.38587  1.0000
  H   H1141     1.0  0.91349  0.51537  0.34067  1.0000
  C   C1137     1.0  0.99827  0.56551  0.40374  1.0000
  H   H1142     1.0  0.99694  0.57918  0.36376  1.0000
  C   C1138     1.0  0.99268  0.58907  0.46040  1.0000
  C   C1139     1.0  0.99801  0.50927  0.35835  1.0000
  C   C1140     1.0  0.99108  0.59719  0.43409  1.0000
  C   C1141     1.0  0.89501  0.50624  0.30959  1.0000
  C   C1142     1.0  0.00004  0.52182  0.37780  1.0000
  H   H1143     1.0  0.98865  0.50736  0.34274  1.0000
  C   C1143     1.0  0.90252  0.50570  0.33641  1.0000
  Fe  Fe190     1.0  0.96875  0.53058  0.73082  1.0000
  S   S379      1.0  0.94867  0.54125  0.72309  1.0000
  C   C1144     1.0  0.93920  0.52367  0.55230  1.0000
  S   S380      1.0  0.99551  0.53847  0.74076  1.0000
  C   C1145     1.0  0.93805  0.53121  0.57894  1.0000
  Fe  Fe191     1.0  0.93189  0.51949  0.75150  1.0000
  S   S381      1.0  0.91384  0.52210  0.78821  1.0000
  H   H1144     1.0  0.93585  0.52834  0.53195  1.0000
  H   H1145     1.0  0.99613  0.57232  0.72697  1.0000
  H   H1146     1.0  0.93396  0.54177  0.57880  1.0000
  C   C1146     1.0  0.89761  0.50917  0.92197  1.0000
  H   H1147     1.0  0.90159  0.52239  0.92245  1.0000
  H   H1148     1.0  0.89035  0.52345  0.83403  1.0000
  S   S382      1.0  0.93774  0.53335  0.63938  1.0000
  Fe  Fe192     1.0  0.94276  0.52464  0.68503  1.0000
  C   C1147     1.0  0.94155  0.52483  0.60591  1.0000
  H   H1149     1.0  0.91072  0.50984  0.87981  1.0000
  S   S383      1.0  0.96376  0.51561  0.69103  1.0000
  S   S384      1.0  0.95251  0.51039  0.76221  1.0000
  H   H1150     1.0  0.88827  0.52014  0.96972  1.0000
  C   C1148     1.0  0.94686  0.51119  0.60578  1.0000
  C   C1149     1.0  0.88826  0.51066  0.83060  1.0000
  C   C1150     1.0  0.88173  0.50682  0.96942  1.0000
  C   C1151     1.0  0.94375  0.50957  0.55243  1.0000
  H   H1151     1.0  0.89827  0.51311  0.61055  1.0000
  C   C1152     1.0  0.89808  0.50636  0.80892  1.0000
  H   H1152     1.0  0.94965  0.50618  0.62631  1.0000
