data_image0
_chemical_formula_structural       FeHSC2HSCFeSFeCSFeCH2CSHSNC2SHC3H3NHCHC2HCSC2FeHC2HC2H3CH5C2HSHCFeSCH2FeHSHSNCHSH2SCSFeSFeSCFeHSFeSHN2S2C6FeH3SC3HC2H2C7H4C2HCH3C2H2CFeCH3C2FeCFeCSH2C2H2SCH3C2HCH3NC3HSHSCH2S2C2HCHSHCHCSCHCHFeSCFeHSFeS2CSHCH2C6H8CSCSCNFeHNH2CH2CHCFeH2CHFeS2FeS2FeSFeS3CFeSH2CH2SHCFeS2FeS2FeSFeS3C6H4C6H3NC4SHC6H5C2HCH2CNHCH2C7H5C2H2SHC3HCH4CHC7H4C4H3C2SHCH2CFeCHNH5C2H3NC5HSC6H2CHCH6CHNC3H5CHCH3CHFeHNH2NHC2H2CHCHCHCH2S2CHS2C2SHFeS2FeSFeSFeS2FeS2FeSFeS3HSHCFeS2FeS2FeSFeS7C6H4C6H4C6H4C6H4C6H4C6H4C6H4C7H3C6H4C6H5C2H2FeC3Fe2HCHNHFeHNC6H8CHCNC6H8NC5H5CHCHSFeHC2HCNC2HC4H3CH2CH3CH2C3N2S2CH2C2HC4SHCNH2CH4CHSH7C2H3NCSHC2H2CH2CHC2H4S2CH2FeH2FeCHNH2S2HNSFeSHFeS2FeCFeS3HCHCFeSNHFeS2FeS2FeSFeS3C6H4C6H5CHC2H2C6H5FeHCH2C6H4C3NC3FeCH4CSC2HSCH3C5HCHCHNC4HCH3SCH3NC6H8CH5C2NC2SHC2H5CHCH3C5H3S2HCH2CHCHSCNH2NC2HFeH2C2SCFeS2FeS2FeS2FeSFeS3H2FeSHFeS2FeS2FeSFeS3CHC2H2SC3HC3H4C6H4C6H4C6H4C2H4SC6H4CNCSC2H2CHNCH3C4NC6H9CH2CSH2C2H2FeHCH3CHNCSCH3C2FeHSHC3HC4NH2NC2H2CH2NH2C2HC3SH2CHC2H2CH2FeH2C2S2FeS2FeS2FeSFeS5FeSFeSFeS3FeS6CSFe2S2FeS2FeSFeS3CH3FeC6H4C6H3C6H4C6H4C6H4C2H3C6H4C6H4C6H4C6H4C6H4CFeCHC3HNH2CSNCH4CHC2HC3NC6H7NC2NC2SCH7NCH2CH3CFeCH2SH2NCH2FeHFeHSNHNSH4C2SC2H2SC2HC2HCHCH2CHCH2C2HCNC6H9CHSFeHC2H2CHC2HSH2CSHC2H6CSHFeH2FeH4SH2CSCHS2CSFeS2FeS2FeSFeCS2CFeCSHFeHCFeS2FeS2FeSFeS3C7H4CHNH2C6H6CHCSC7H4CH4NH2C6H4CHC3HCNH3CHCH2CH2CH8CNC6H4SC2SH3CHNC2HCH2SH3C2HCHFeHSH3CHC7NH3FeH2C3SCHC3HSCHSC2HFeC3HNH2C3FeSH2Fe2SCH2FeHSHS2HC3H3C6H4C3NHCHC3NHCHCH2C2HCHFeCHS3CHC2H4FeNSH2SHCFe2SC2HSFeCSCSHCSFeCSHCHCFeS2CSNHCFeC2HFeCSCH2C6H5CHCHSH2C5H2CHC2SCHNC2H2CH2SHCFeCFe2HSC2H2SH3SHSC2H2FeNSH2SCFeHSFeSHCSFeC6H2C2H3C3H2S2H2CHCSHCHCNCH
_chemical_formula_sum              "Fe128 H768 S256 C768 N64"
_cell_length_a       52.0126
_cell_length_b       52.0047
_cell_length_c       75.2984
_cell_angle_alpha    90.4553
_cell_angle_beta     90.3292
_cell_angle_gamma    117.045

_space_group_name_H-M_alt    "P 1"
_space_group_IT_number       1

loop_
  _space_group_symop_operation_xyz
  'x, y, z'

loop_
  _atom_site_type_symbol
  _atom_site_label
  _atom_site_symmetry_multiplicity
  _atom_site_fract_x
  _atom_site_fract_y
  _atom_site_fract_z
  _atom_site_occupancy
  Fe  Fe1       1.0  0.49727  0.10686  0.06329  1.0000
  H   H1        1.0  0.10630  0.44661  0.10847  1.0000
  S   S1        1.0  0.47610  0.05839  0.05664  1.0000
  C   C1        1.0  0.44588  0.02764  0.06502  1.0000
  C   C2        1.0  0.01840  0.42800  0.07846  1.0000
  H   H2        1.0  0.14169  0.42971  0.10935  1.0000
  S   S2        1.0  0.21824  0.50743  0.10432  1.0000
  C   C3        1.0  0.45741  0.21982  0.04749  1.0000
  Fe  Fe2       1.0  0.18729  0.49831  0.08098  1.0000
  S   S3        1.0  0.47824  0.13785  0.06717  1.0000
  Fe  Fe3       1.0  0.12415  0.47050  0.06678  1.0000
  C   C4        1.0  0.46145  0.19968  0.05781  1.0000
  S   S4        1.0  0.07795  0.45388  0.07755  1.0000
  Fe  Fe4       1.0  0.17379  0.47204  0.04369  1.0000
  C   C5        1.0  0.49884  0.40496  0.02229  1.0000
  H   H3        1.0  0.29071  0.49577  0.03549  1.0000
  H   H4        1.0  0.14819  0.43147  0.13308  1.0000
  C   C6        1.0  0.27440  0.48500  0.02535  1.0000
  S   S5        1.0  0.15697  0.45356  0.07077  1.0000
  H   H5        1.0  0.48382  0.19390  0.08044  1.0000
  S   S6        1.0  0.13868  0.48549  0.03896  1.0000
  N   N1        1.0  0.47220  0.24870  0.05136  1.0000
  C   C7        1.0  0.15357  0.44418  0.12068  1.0000
  C   C8        1.0  0.24533  0.47750  0.02898  1.0000
  S   S7        1.0  0.48845  0.17779  0.02106  1.0000
  H   H6        1.0  0.17697  0.45229  0.11792  1.0000
  C   C9        1.0  0.22393  0.46296  0.01615  1.0000
  C   C10       1.0  0.47004  0.38696  0.01778  1.0000
  C   C11       1.0  0.04275  0.42669  0.07127  1.0000
  H   H7        1.0  0.23944  0.48238  0.04185  1.0000
  H   H8        1.0  0.05674  0.40171  0.05465  1.0000
  H   H9        1.0  0.50269  0.28114  0.06860  1.0000
  N   N2        1.0  0.14646  0.46831  0.12248  1.0000
  H   H10       1.0  0.45755  0.36762  0.02532  1.0000
  C   C12       1.0  0.03835  0.40324  0.06021  1.0000
  H   H11       1.0  0.44167  0.04745  0.08930  1.0000
  C   C13       1.0  0.49955  0.21455  0.01607  1.0000
  C   C14       1.0  0.43382  0.02764  0.08160  1.0000
  H   H12       1.0  0.45029  0.17686  0.05438  1.0000
  C   C15       1.0  0.48051  0.20923  0.07226  1.0000
  S   S8        1.0  0.18705  0.45296  0.02029  1.0000
  C   C16       1.0  0.49548  0.23867  0.07615  1.0000
  C   C17       1.0  0.12109  0.46600  0.11560  1.0000
  Fe  Fe5       1.0  0.50612  0.16320  0.04453  1.0000
  H   H13       1.0  0.44293  0.21221  0.03608  1.0000
  C   C18       1.0  0.16489  0.49271  0.13159  1.0000
  C   C19       1.0  0.11416  0.48896  0.11716  1.0000
  H   H14       1.0  0.09444  0.48730  0.11112  1.0000
  C   C20       1.0  0.49095  0.25826  0.06553  1.0000
  C   C21       1.0  0.51483  0.42924  0.01198  1.0000
  H   H15       1.0  0.48675  0.29041  0.03994  1.0000
  H   H16       1.0  0.46074  0.26161  0.02689  1.0000
  H   H17       1.0  0.18503  0.49455  0.13706  1.0000
  C   C22       1.0  0.46689  0.26943  0.04082  1.0000
  H   H18       1.0  0.44937  0.27306  0.04682  1.0000
  H   H19       1.0  0.49374  0.02122  0.08698  1.0000
  H   H20       1.0  0.02144  0.44598  0.08703  1.0000
  H   H21       1.0  0.50903  0.39985  0.03340  1.0000
  H   H22       1.0  0.51051  0.24610  0.08732  1.0000
  C   C23       1.0  0.28255  0.47879  0.00872  1.0000
  C   C24       1.0  0.51323  0.27262  0.00867  1.0000
  H   H23       1.0  0.47182  0.06234  0.40818  1.0000
  S   S9        1.0  0.48207  0.30015  0.55820  1.0000
  H   H24       1.0  0.30170  0.35544  0.54159  1.0000
  C   C25       1.0  0.02975  0.40305  0.44141  1.0000
  Fe  Fe6       1.0  0.47315  0.33900  0.55740  1.0000
  S   S10       1.0  0.42993  0.33990  0.55438  1.0000
  C   C26       1.0  0.43330  0.02301  0.47090  1.0000
  H   H25       1.0  0.46565  0.19883  0.52529  1.0000
  H   H26       1.0  0.48976  0.19597  0.56993  1.0000
  Fe  Fe7       1.0  0.49571  0.10155  0.45452  1.0000
  H   H27       1.0  0.51361  0.10107  0.39337  1.0000
  S   S11       1.0  0.47368  0.05428  0.44517  1.0000
  H   H28       1.0  0.32521  0.40212  0.60094  1.0000
  S   S12       1.0  0.48358  0.16791  0.50042  1.0000
  N   N3        1.0  0.46242  0.44848  0.54917  1.0000
  C   C27       1.0  0.47255  0.43037  0.54237  1.0000
  H   H29       1.0  0.46430  0.47636  0.57063  1.0000
  S   S13       1.0  0.47929  0.13483  0.45181  1.0000
  H   H30       1.0  0.50687  0.24731  0.57948  1.0000
  H   H31       1.0  0.28376  0.39077  0.55003  1.0000
  S   S14       1.0  0.35705  0.44500  0.54533  1.0000
  C   C28       1.0  0.08915  0.35796  0.46986  1.0000
  S   S15       1.0  0.34725  0.47486  0.58199  1.0000
  Fe  Fe8       1.0  0.37863  0.45917  0.57194  1.0000
  S   S16       1.0  0.39745  0.43431  0.58748  1.0000
  Fe  Fe9       1.0  0.32835  0.46453  0.55420  1.0000
  S   S17       1.0  0.27969  0.44496  0.55113  1.0000
  C   C29       1.0  0.47178  0.08287  0.40579  1.0000
  Fe  Fe10      1.0  0.13134  0.45613  0.45705  1.0000
  H   H32       1.0  0.36017  0.35663  0.58973  1.0000
  S   S18       1.0  0.08927  0.42996  0.44174  1.0000
  Fe  Fe11      1.0  0.18694  0.45989  0.47367  1.0000
  S   S19       1.0  0.21507  0.43761  0.47784  1.0000
  H   H33       1.0  0.32971  0.34532  0.60450  1.0000
  N   N4        1.0  0.44932  0.08766  0.41144  1.0000
  N   N5        1.0  0.09252  0.36599  0.45243  1.0000
  S   S20       1.0  0.14189  0.44481  0.48393  1.0000
  S   S21       1.0  0.17544  0.46718  0.44583  1.0000
  C   C30       1.0  0.26380  0.44647  0.53052  1.0000
  C   C31       1.0  0.23756  0.44811  0.53033  1.0000
  C   C32       1.0  0.22321  0.44699  0.51419  1.0000
  C   C33       1.0  0.23449  0.44313  0.49811  1.0000
  C   C34       1.0  0.26079  0.44162  0.49831  1.0000
  C   C35       1.0  0.27566  0.44379  0.51440  1.0000
  Fe  Fe12      1.0  0.38719  0.49013  0.53734  1.0000
  H   H34       1.0  0.20285  0.44791  0.51423  1.0000
  H   H35       1.0  0.26960  0.43853  0.48595  1.0000
  H   H36       1.0  0.29572  0.44228  0.51436  1.0000
  S   S22       1.0  0.50089  0.35697  0.53348  1.0000
  C   C36       1.0  0.05489  0.41183  0.45190  1.0000
  C   C37       1.0  0.05210  0.40358  0.46971  1.0000
  C   C38       1.0  0.29639  0.38524  0.55941  1.0000
  H   H37       1.0  0.07121  0.41002  0.47793  1.0000
  C   C39       1.0  0.44755  0.02237  0.45532  1.0000
  C   C40       1.0  0.49602  0.13138  0.39460  1.0000
  H   H38       1.0  0.35865  0.38186  0.60530  1.0000
  H   H39       1.0  0.43852  0.04347  0.47737  1.0000
  C   C41       1.0  0.48134  0.21451  0.51658  1.0000
  C   C42       1.0  0.42299  0.36785  0.56308  1.0000
  C   C43       1.0  0.40344  0.37513  0.55411  1.0000
  C   C44       1.0  0.39625  0.39622  0.56109  1.0000
  C   C45       1.0  0.40788  0.40961  0.57742  1.0000
  C   C46       1.0  0.42721  0.40217  0.58646  1.0000
  C   C47       1.0  0.43512  0.38176  0.57920  1.0000
  H   H40       1.0  0.39381  0.36432  0.54169  1.0000
  H   H41       1.0  0.38124  0.40161  0.55403  1.0000
  H   H42       1.0  0.43610  0.41219  0.59919  1.0000
  H   H43       1.0  0.44988  0.37607  0.58635  1.0000
  C   C48       1.0  0.49548  0.10466  0.39735  1.0000
  C   C49       1.0  0.42521  0.06528  0.42108  1.0000
  H   H44       1.0  0.12221  0.38879  0.43197  1.0000
  C   C50       1.0  0.49312  0.20507  0.50273  1.0000
  H   H45       1.0  0.06260  0.33458  0.43472  1.0000
  H   H46       1.0  0.02276  0.37916  0.49039  1.0000
  H   H47       1.0  0.42760  0.07074  0.43551  1.0000
  C   C51       1.0  0.47302  0.13605  0.40036  1.0000
  C   C52       1.0  0.47266  0.46233  0.56512  1.0000
  H   H48       1.0  0.48122  0.25124  0.53025  1.0000
  H   H49       1.0  0.15981  0.38763  0.48263  1.0000
  C   C53       1.0  0.44984  0.11392  0.40894  1.0000
  Fe  Fe13      1.0  0.51297  0.32096  0.53600  1.0000
  C   C54       1.0  0.49016  0.24418  0.51942  1.0000
  H   H50       1.0  0.11056  0.35956  0.49487  1.0000
  H   H51       1.0  0.22812  0.44992  0.54275  1.0000
  H   H52       1.0  0.06772  0.34571  0.47526  1.0000
  C   C55       1.0  0.30302  0.39834  0.57618  1.0000
  C   C56       1.0  0.34513  0.36341  0.59637  1.0000
  Fe  Fe14      1.0  0.50262  0.15313  0.47777  1.0000
  C   C57       1.0  0.06713  0.35582  0.44066  1.0000
  Fe  Fe15      1.0  0.15693  0.49163  0.49022  1.0000
  C   C58       1.0  0.49345  0.45800  0.57476  1.0000
  S   S23       1.0  0.35678  0.50853  0.54372  1.0000
  H   H53       1.0  0.42811  0.43583  0.53001  1.0000
  H   H54       1.0  0.33058  0.34335  0.56321  1.0000
  C   C59       1.0  0.44151  0.45423  0.53897  1.0000
  C   C60       1.0  0.11954  0.38182  0.44567  1.0000
  H   H55       1.0  0.29542  0.41396  0.57983  1.0000
  H   H56       1.0  0.42474  0.04376  0.41958  1.0000
  S   S24       1.0  0.14552  0.50424  0.51634  1.0000
  C   C61       1.0  0.11325  0.36560  0.48099  1.0000
  H   H57       1.0  0.07054  0.37144  0.42982  1.0000
  H   H58       1.0  0.42634  0.45755  0.54793  1.0000
  H   H59       1.0  0.40423  0.06334  0.41617  1.0000
  C   C62       1.0  0.02457  0.38604  0.47673  1.0000
  C   C63       1.0  0.14411  0.38966  0.45640  1.0000
  H   H60       1.0  0.03166  0.40907  0.42758  1.0000
  C   C64       1.0  0.14088  0.38131  0.47413  1.0000
  H   H61       1.0  0.45292  0.47391  0.53085  1.0000
  H   H62       1.0  0.04778  0.35371  0.44801  1.0000
  H   H63       1.0  0.16558  0.40250  0.45114  1.0000
  N   N6        1.0  0.32938  0.37187  0.58335  1.0000
  C   C65       1.0  0.32286  0.35881  0.56695  1.0000
  C   C66       1.0  0.31975  0.39147  0.58803  1.0000
  C   C67       1.0  0.30649  0.36547  0.55468  1.0000
  H   H64       1.0  0.43259  0.11812  0.41397  1.0000
  S   S25       1.0  0.41042  0.50336  0.56340  1.0000
  H   H65       1.0  0.18782  0.49494  0.54033  1.0000
  S   S26       1.0  0.41666  0.49850  0.51422  1.0000
  C   C68       1.0  0.51307  0.22550  0.49141  1.0000
  H   H66       1.0  0.46434  0.41917  0.52982  1.0000
  H   H67       1.0  0.47380  0.15713  0.39879  1.0000
  S   S27       1.0  0.50796  0.36471  0.57734  1.0000
  S   S28       1.0  0.14362  0.50228  0.46408  1.0000
  C   C69       1.0  0.50698  0.21325  0.56283  1.0000
  C   C70       1.0  0.49331  0.42559  0.55167  1.0000
  H   H68       1.0  0.50120  0.46863  0.58752  1.0000
  C   C71       1.0  0.50388  0.43956  0.56791  1.0000
  H   H69       1.0  0.51220  0.18472  0.54375  1.0000
  S   S29       1.0  0.20275  0.50583  0.48239  1.0000
  H   H70       1.0  0.50108  0.41098  0.54643  1.0000
  C   C72       1.0  0.51048  0.26452  0.50821  1.0000
  H   H71       1.0  0.51459  0.14880  0.38850  1.0000
  C   C73       1.0  0.48711  0.22142  0.00138  1.0000
  S   S30       1.0  0.48007  0.30930  0.95809  1.0000
  C   C74       1.0  0.34088  0.45053  0.90724  1.0000
  H   H72       1.0  0.19002  0.50564  0.00290  1.0000
  C   C75       1.0  0.33946  0.46983  0.89490  1.0000
  H   H73       1.0  0.32131  0.43396  0.91294  1.0000
  Fe  Fe16      1.0  0.47437  0.35004  0.95948  1.0000
  S   S31       1.0  0.43169  0.35241  0.96193  1.0000
  C   C76       1.0  0.23199  0.45640  0.99956  1.0000
  Fe  Fe17      1.0  0.38574  0.48472  0.95552  1.0000
  H   H74       1.0  0.48381  0.25530  0.98652  1.0000
  S   S32       1.0  0.41618  0.46572  0.94753  1.0000
  Fe  Fe18      1.0  0.34314  0.49644  0.97863  1.0000
  S   S33       1.0  0.50275  0.36613  0.98359  1.0000
  S   S34       1.0  0.31958  0.48915  0.00496  1.0000
  C   C77       1.0  0.45753  0.39365  0.00323  1.0000
  S   S35       1.0  0.33732  0.46921  0.95384  1.0000
  H   H75       1.0  0.31848  0.46795  0.89116  1.0000
  C   C78       1.0  0.36775  0.45318  0.91246  1.0000
  H   H76       1.0  0.21555  0.44492  0.98961  1.0000
  H   H77       1.0  0.36924  0.43856  0.92218  1.0000
  C   C79       1.0  0.42726  0.38372  0.95749  1.0000
  C   C80       1.0  0.40288  0.38566  0.96404  1.0000
  C   C81       1.0  0.39914  0.41062  0.96132  1.0000
  C   C82       1.0  0.41966  0.43382  0.95183  1.0000
  C   C83       1.0  0.44395  0.43180  0.94521  1.0000
  C   C84       1.0  0.44780  0.40699  0.94805  1.0000
  H   H78       1.0  0.38681  0.36777  0.97132  1.0000
  H   H79       1.0  0.38031  0.41177  0.96645  1.0000
  H   H80       1.0  0.45992  0.44956  0.93780  1.0000
  H   H81       1.0  0.46663  0.40583  0.94289  1.0000
  H   H82       1.0  0.26717  0.45940  0.98298  1.0000
  H   H83       1.0  0.50856  0.47267  0.98312  1.0000
  H   H84       1.0  0.50696  0.09220  0.00463  1.0000
  H   H85       1.0  0.43535  0.37953  0.99928  1.0000
  C   C85       1.0  0.26122  0.46458  0.99577  1.0000
  S   S36       1.0  0.39077  0.50907  0.98117  1.0000
  C   C86       1.0  0.47418  0.41817  0.99329  1.0000
  S   S37       1.0  0.50981  0.37421  0.94009  1.0000
  C   C87       1.0  0.49404  0.25033  0.99762  1.0000
  N   N7        1.0  0.50253  0.43536  0.99756  1.0000
  Fe  Fe19      1.0  0.51178  0.32793  0.98077  1.0000
  H   H86       1.0  0.41379  0.47757  0.90969  1.0000
  N   N8        1.0  0.36415  0.49152  0.88822  1.0000
  H   H87       1.0  0.50662  0.30807  0.87715  1.0000
  H   H88       1.0  0.49618  0.17082  0.98142  1.0000
  C   C88       1.0  0.39060  0.49422  0.89323  1.0000
  H   H89       1.0  0.46442  0.42318  0.98197  1.0000
  H   H90       1.0  0.47161  0.20429  0.99304  1.0000
  C   C89       1.0  0.39280  0.47510  0.90541  1.0000
  H   H91       1.0  0.20497  0.49370  0.98550  1.0000
  C   C90       1.0  0.51160  0.13188  0.99294  1.0000
  Fe  Fe20      1.0  0.34826  0.51082  0.93929  1.0000
  H   H92       1.0  0.36376  0.50337  0.86136  1.0000
  H   H93       1.0  0.49510  0.13290  0.00127  1.0000
  C   C91       1.0  0.36231  0.51109  0.87491  1.0000
  H   H94       1.0  0.41018  0.51141  0.88798  1.0000
  Fe  Fe21      1.0  0.36510  0.89803  0.07719  1.0000
  S   S38       1.0  0.38512  0.87196  0.08963  1.0000
  S   S39       1.0  0.37680  0.94275  0.08873  1.0000
  Fe  Fe22      1.0  0.33399  0.85155  0.04825  1.0000
  S   S40       1.0  0.35275  0.82326  0.05816  1.0000
  S   S41       1.0  0.30606  0.83942  0.02327  1.0000
  Fe  Fe23      1.0  0.34211  0.83325  0.08535  1.0000
  S   S42       1.0  0.31794  0.79337  0.10209  1.0000
  Fe  Fe24      1.0  0.39359  0.86427  0.06144  1.0000
  S   S43       1.0  0.43614  0.86662  0.05391  1.0000
  S   S44       1.0  0.32068  0.85965  0.07530  1.0000
  S   S45       1.0  0.37610  0.89227  0.04929  1.0000
  C   C92       1.0  0.50951  0.57480  0.03030  1.0000
  Fe  Fe25      1.0  0.48163  0.63558  0.05950  1.0000
  S   S46       1.0  0.43570  0.60598  0.05229  1.0000
  H   H95       1.0  0.42327  0.64922  0.07324  1.0000
  H   H96       1.0  0.40642  0.95586  0.05455  1.0000
  C   C93       1.0  0.38399  0.61808  0.20340  1.0000
  H   H97       1.0  0.43801  0.63428  0.08957  1.0000
  H   H98       1.0  0.26531  0.73417  0.02956  1.0000
  S   S47       1.0  0.37100  0.68687  0.30867  1.0000
  H   H99       1.0  0.39704  0.65707  0.11440  1.0000
  C   C94       1.0  0.40810  0.58283  0.02097  1.0000
  Fe  Fe26      1.0  0.35487  0.70558  0.17137  1.0000
  S   S48       1.0  0.37979  0.68928  0.18887  1.0000
  S   S49       1.0  0.36933  0.75303  0.16607  1.0000
  Fe  Fe27      1.0  0.30674  0.64572  0.16331  1.0000
  S   S50       1.0  0.32716  0.62438  0.18000  1.0000
  S   S51       1.0  0.26500  0.62642  0.14719  1.0000
  Fe  Fe28      1.0  0.33661  0.65958  0.20057  1.0000
  S   S52       1.0  0.32397  0.64437  0.22935  1.0000
  Fe  Fe29      1.0  0.36879  0.65545  0.16734  1.0000
  S   S53       1.0  0.39633  0.63529  0.15691  1.0000
  S   S54       1.0  0.31264  0.67855  0.18467  1.0000
  S   S55       1.0  0.34755  0.67411  0.14913  1.0000
  C   C95       1.0  0.35697  0.67494  0.28677  1.0000
  C   C96       1.0  0.37297  0.69076  0.27212  1.0000
  C   C97       1.0  0.36288  0.68239  0.25450  1.0000
  C   C98       1.0  0.33661  0.65789  0.25126  1.0000
  C   C99       1.0  0.32045  0.64227  0.26592  1.0000
  C   C100      1.0  0.33048  0.65071  0.28354  1.0000
  H   H100      1.0  0.39343  0.70963  0.27442  1.0000
  H   H101      1.0  0.37561  0.69468  0.24344  1.0000
  H   H102      1.0  0.30013  0.62322  0.26362  1.0000
  H   H103      1.0  0.31787  0.63827  0.29459  1.0000
  C   C101      1.0  0.23262  0.54152  0.11520  1.0000
  C   C102      1.0  0.22151  0.56100  0.11197  1.0000
  C   C103      1.0  0.23182  0.58701  0.12177  1.0000
  C   C104      1.0  0.25378  0.59412  0.13461  1.0000
  C   C105      1.0  0.26544  0.57497  0.13755  1.0000
  C   C106      1.0  0.25467  0.54864  0.12800  1.0000
  H   H104      1.0  0.20463  0.55586  0.10211  1.0000
  H   H105      1.0  0.22275  0.60172  0.11936  1.0000
  H   H106      1.0  0.28220  0.58011  0.14750  1.0000
  N   N9        1.0  0.39509  0.62696  0.09432  1.0000
  C   C107      1.0  0.18017  0.57543  0.01934  1.0000
  C   C108      1.0  0.26584  0.75162  0.02159  1.0000
  C   C109      1.0  0.45267  0.93963  0.07651  1.0000
  C   C110      1.0  0.33032  0.71958  0.30552  1.0000
  S   S56       1.0  0.49682  0.68289  0.06295  1.0000
  H   H107      1.0  0.47786  0.86009  0.03248  1.0000
  C   C111      1.0  0.47820  0.68336  0.12387  1.0000
  C   C112      1.0  0.46511  0.65329  0.12526  1.0000
  C   C113      1.0  0.44024  0.63898  0.13559  1.0000
  C   C114      1.0  0.42796  0.65451  0.14444  1.0000
  C   C115      1.0  0.44077  0.68457  0.14291  1.0000
  C   C116      1.0  0.46599  0.69895  0.13279  1.0000
  H   H108      1.0  0.47451  0.64107  0.11871  1.0000
  H   H109      1.0  0.43048  0.61572  0.13672  1.0000
  H   H110      1.0  0.43147  0.69678  0.14965  1.0000
  H   H111      1.0  0.47602  0.72224  0.13184  1.0000
  H   H112      1.0  0.34865  0.58537  0.21749  1.0000
  C   C117      1.0  0.20494  0.75589  0.03637  1.0000
  C   C118      1.0  0.43220  0.60507  0.02917  1.0000
  H   H113      1.0  0.32782  0.77950  0.17351  1.0000
  C   C119      1.0  0.28861  0.72765  0.16410  1.0000
  H   H114      1.0  0.39083  0.56729  0.02892  1.0000
  H   H115      1.0  0.47282  0.64275  0.02511  1.0000
  C   C120      1.0  0.10415  0.59533  0.02439  1.0000
  N   N10       1.0  0.47100  0.95809  0.06429  1.0000
  H   H116      1.0  0.29966  0.78474  0.03731  1.0000
  C   C121      1.0  0.41564  0.65969  0.22088  1.0000
  H   H117      1.0  0.43412  0.68086  0.22185  1.0000
  H   H118      1.0  0.42078  0.65461  0.19282  1.0000
  C   C122      1.0  0.46388  0.97946  0.09686  1.0000
  C   C123      1.0  0.33744  0.78277  0.11721  1.0000
  C   C124      1.0  0.32874  0.75324  0.11974  1.0000
  C   C125      1.0  0.33974  0.74385  0.13405  1.0000
  C   C126      1.0  0.35940  0.76397  0.14604  1.0000
  C   C127      1.0  0.36931  0.79356  0.14292  1.0000
  C   C128      1.0  0.35846  0.80296  0.12853  1.0000
  H   H119      1.0  0.31261  0.73747  0.11098  1.0000
  H   H120      1.0  0.33201  0.72102  0.13623  1.0000
  H   H121      1.0  0.38466  0.80928  0.15207  1.0000
  H   H122      1.0  0.36528  0.82577  0.12676  1.0000
  H   H123      1.0  0.26218  0.82927  0.05471  1.0000
  C   C129      1.0  0.44363  0.87248  0.03124  1.0000
  C   C130      1.0  0.11162  0.57745  0.01405  1.0000
  H   H124      1.0  0.38760  0.59313  0.07567  1.0000
  H   H125      1.0  0.27959  0.77338  0.13645  1.0000
  S   S57       1.0  0.49857  0.62954  0.08555  1.0000
  H   H126      1.0  0.28400  0.79097  0.06673  1.0000
  C   C131      1.0  0.36942  0.75750  0.32264  1.0000
  C   C132      1.0  0.40231  0.97544  0.07892  1.0000
  C   C133      1.0  0.41387  0.97568  0.06216  1.0000
  H   H127      1.0  0.46008  0.98795  0.10923  1.0000
  C   C134      1.0  0.35869  0.60660  0.25039  1.0000
  H   H128      1.0  0.33528  0.59901  0.24772  1.0000
  H   H129      1.0  0.36240  0.58796  0.25416  1.0000
  H   H130      1.0  0.36464  0.62183  0.26191  1.0000
  H   H131      1.0  0.08251  0.62226  0.02460  1.0000
  C   C135      1.0  0.32050  0.73030  0.33466  1.0000
  H   H132      1.0  0.37780  0.60672  0.19072  1.0000
  C   C136      1.0  0.42417  0.64522  0.08766  1.0000
  C   C137      1.0  0.28524  0.78031  0.02607  1.0000
  C   C138      1.0  0.22269  0.75732  0.05077  1.0000
  C   C139      1.0  0.35117  0.58235  0.09273  1.0000
  C   C140      1.0  0.24554  0.80857  0.04999  1.0000
  C   C141      1.0  0.46545  0.86719  0.02404  1.0000
  C   C142      1.0  0.42756  0.88140  0.02019  1.0000
  H   H133      1.0  0.11076  0.59931  0.03825  1.0000
  H   H134      1.0  0.47133  0.53717  0.05820  1.0000
  H   H135      1.0  0.12862  0.53257  0.12671  1.0000
  H   H136      1.0  0.49976  0.00193  0.05816  1.0000
  C   C143      1.0  0.43539  0.00160  0.05526  1.0000
  C   C144      1.0  0.47342  0.94659  0.04688  1.0000
  C   C145      1.0  0.29203  0.70855  0.33323  1.0000
  C   C146      1.0  0.20779  0.78138  0.02872  1.0000
  H   H137      1.0  0.38580  0.80356  0.03123  1.0000
  H   H138      1.0  0.26379  0.80115  0.08214  1.0000
  H   H139      1.0  0.44442  0.00134  0.04239  1.0000
  C   C147      1.0  0.44874  0.95002  0.09294  1.0000
  C   C148      1.0  0.30211  0.69745  0.30371  1.0000
  S   S58       1.0  0.50980  0.70187  0.11119  1.0000
  H   H140      1.0  0.44048  0.91681  0.07341  1.0000
  C   C149      1.0  0.48605  0.98701  0.06804  1.0000
  H   H141      1.0  0.25005  0.72772  0.12023  1.0000
  H   H142      1.0  0.35082  0.81894  0.01869  1.0000
  C   C150      1.0  0.28990  0.56029  0.01613  1.0000
  Fe  Fe30      1.0  0.17032  0.52711  0.05161  1.0000
  C   C151      1.0  0.15882  0.51621  0.13324  1.0000
  H   H143      1.0  0.47963  0.92890  0.04854  1.0000
  N   N11       1.0  0.33934  0.73528  0.32097  1.0000
  H   H144      1.0  0.22115  0.73736  0.05607  1.0000
  H   H145      1.0  0.48982  0.96332  0.03839  1.0000
  H   H146      1.0  0.27014  0.68132  0.16037  1.0000
  H   H147      1.0  0.37471  0.76684  0.33630  1.0000
  H   H148      1.0  0.49231  0.57523  0.06296  1.0000
  C   C152      1.0  0.26208  0.78483  0.07197  1.0000
  C   C153      1.0  0.34005  0.59151  0.10690  1.0000
  H   H149      1.0  0.40496  0.65851  0.24846  1.0000
  H   H150      1.0  0.19941  0.62183  0.02101  1.0000
  H   H151      1.0  0.45485  0.56130  0.05778  1.0000
  N   N12       1.0  0.37540  0.62044  0.23456  1.0000
  C   C154      1.0  0.39901  0.64695  0.23585  1.0000
  C   C155      1.0  0.36767  0.60612  0.21858  1.0000
  C   C156      1.0  0.26030  0.72738  0.13274  1.0000
  C   C157      1.0  0.40816  0.64500  0.20459  1.0000
  C   C158      1.0  0.37895  0.60043  0.08661  1.0000
  H   H152      1.0  0.26106  0.67452  0.31658  1.0000
  S   S59       1.0  0.18243  0.57187  0.04230  1.0000
  C   C159      1.0  0.48282  0.99811  0.08440  1.0000
  C   C160      1.0  0.27704  0.75317  0.14202  1.0000
  C   C161      1.0  0.45965  0.55677  0.02339  1.0000
  C   C162      1.0  0.36668  0.81703  0.01023  1.0000
  C   C163      1.0  0.45444  0.62514  0.01884  1.0000
  C   C164      1.0  0.38429  0.63614  0.10817  1.0000
  H   H153      1.0  0.29590  0.78452  0.17683  1.0000
  H   H154      1.0  0.41775  0.77331  0.01353  1.0000
  C   C165      1.0  0.25790  0.70140  0.13937  1.0000
  H   H155      1.0  0.31826  0.79866  0.15742  1.0000
  C   C166      1.0  0.27187  0.70146  0.15523  1.0000
  H   H156      1.0  0.24561  0.68121  0.13218  1.0000
  H   H157      1.0  0.43316  0.93550  0.10227  1.0000
  H   H158      1.0  0.31859  0.57770  0.11186  1.0000
  H   H159      1.0  0.43288  0.80476  0.02807  1.0000
  H   H160      1.0  0.17420  0.53597  0.13980  1.0000
  H   H161      1.0  0.16012  0.52985  0.01342  1.0000
  C   C167      1.0  0.30907  0.78029  0.16678  1.0000
  H   H162      1.0  0.41062  0.88538  0.02549  1.0000
  N   N13       1.0  0.29136  0.75309  0.15730  1.0000
  C   C168      1.0  0.35673  0.61851  0.11473  1.0000
  C   C169      1.0  0.41208  0.00166  0.08846  1.0000
  C   C170      1.0  0.23905  0.54720  0.01497  1.0000
  H   H163      1.0  0.33844  0.56133  0.08658  1.0000
  H   H164      1.0  0.30014  0.72765  0.17615  1.0000
  H   H165      1.0  0.26850  0.57564  0.03484  1.0000
  H   H166      1.0  0.34532  0.72348  0.29471  1.0000
  H   H167      1.0  0.43480  0.66647  0.09467  1.0000
  C   C171      1.0  0.18953  0.60301  0.01238  1.0000
  H   H168      1.0  0.45228  0.93773  0.03977  1.0000
  C   C172      1.0  0.47459  0.55907  0.05456  1.0000
  H   H169      1.0  0.40320  0.00179  0.10140  1.0000
  H   H170      1.0  0.22067  0.54897  0.02049  1.0000
  H   H171      1.0  0.34853  0.62565  0.12596  1.0000
  C   C173      1.0  0.28289  0.69188  0.31770  1.0000
  H   H172      1.0  0.29548  0.68441  0.29163  1.0000
  Fe  Fe31      1.0  0.35616  0.67314  0.33739  1.0000
  H   H173      1.0  0.19010  0.73513  0.03060  1.0000
  N   N14       1.0  0.24255  0.78347  0.05746  1.0000
  H   H174      1.0  0.12384  0.56736  0.01990  1.0000
  H   H175      1.0  0.25469  0.76383  0.07878  1.0000
  N   N15       1.0  0.48144  0.56405  0.03565  1.0000
  H   H176      1.0  0.26328  0.53361  0.13066  1.0000
  C   C174      1.0  0.28509  0.80307  0.01642  1.0000
  C   C175      1.0  0.26615  0.56250  0.02310  1.0000
  H   H177      1.0  0.31096  0.57150  0.02247  1.0000
  H   H178      1.0  0.38420  0.74788  0.31968  1.0000
  C   C176      1.0  0.42729  0.79721  0.01405  1.0000
  H   H179      1.0  0.50489  0.77612  0.03443  1.0000
  C   C177      1.0  0.38644  0.80829  0.01718  1.0000
  H   H180      1.0  0.43735  0.54789  0.02758  1.0000
  C   C178      1.0  0.08835  0.60815  0.01677  1.0000
  H   H181      1.0  0.23149  0.82787  0.02925  1.0000
  C   C179      1.0  0.22820  0.80792  0.03555  1.0000
  H   H182      1.0  0.37363  0.77522  0.31318  1.0000
  H   H183      1.0  0.19494  0.78051  0.01711  1.0000
  S   S60       1.0  0.20608  0.51491  0.05438  1.0000
  S   S61       1.0  0.15383  0.51395  0.07907  1.0000
  C   C180      1.0  0.13333  0.51431  0.12588  1.0000
  H   H184      1.0  0.02250  0.55547  0.56495  1.0000
  S   S62       1.0  0.39216  0.56407  0.58083  1.0000
  S   S63       1.0  0.37287  0.71109  0.35667  1.0000
  C   C181      1.0  0.47400  0.63079  0.52638  1.0000
  C   C182      1.0  0.48207  0.60936  0.53059  1.0000
  S   S64       1.0  0.44524  0.62021  0.48288  1.0000
  H   H185      1.0  0.35793  0.61204  0.39965  1.0000
  Fe  Fe32      1.0  0.38420  0.68346  0.37467  1.0000
  S   S65       1.0  0.34150  0.66505  0.38825  1.0000
  S   S66       1.0  0.42028  0.70470  0.39483  1.0000
  Fe  Fe33      1.0  0.32919  0.68980  0.36889  1.0000
  S   S67       1.0  0.30326  0.71089  0.38030  1.0000
  Fe  Fe34      1.0  0.32668  0.63045  0.36750  1.0000
  S   S68       1.0  0.29944  0.58414  0.37611  1.0000
  Fe  Fe35      1.0  0.36475  0.89222  0.46952  1.0000
  S   S69       1.0  0.39455  0.87641  0.45785  1.0000
  S   S70       1.0  0.37744  0.93823  0.47910  1.0000
  Fe  Fe36      1.0  0.31492  0.83111  0.47200  1.0000
  S   S71       1.0  0.34056  0.81036  0.46043  1.0000
  S   S72       1.0  0.26814  0.80257  0.47874  1.0000
  Fe  Fe37      1.0  0.37636  0.84117  0.47780  1.0000
  S   S73       1.0  0.40639  0.82525  0.48881  1.0000
  Fe  Fe38      1.0  0.35674  0.84638  0.44102  1.0000
  S   S74       1.0  0.36849  0.83724  0.41363  1.0000
  S   S75       1.0  0.34957  0.85906  0.49126  1.0000
  S   S76       1.0  0.32790  0.86525  0.45088  1.0000
  H   H186      1.0  0.25764  0.64718  0.38542  1.0000
  S   S77       1.0  0.46991  0.89191  0.55846  1.0000
  H   H187      1.0  0.41379  0.94921  0.44766  1.0000
  C   C183      1.0  0.44184  0.93541  0.49876  1.0000
  Fe  Fe39      1.0  0.12827  0.66289  0.56947  1.0000
  S   S78       1.0  0.13537  0.62417  0.56391  1.0000
  S   S79       1.0  0.08430  0.65921  0.57728  1.0000
  Fe  Fe40      1.0  0.18990  0.70535  0.55793  1.0000
  S   S80       1.0  0.20051  0.66939  0.55109  1.0000
  S   S81       1.0  0.22703  0.75044  0.55533  1.0000
  Fe  Fe41      1.0  0.15633  0.64757  0.53909  1.0000
  S   S82       1.0  0.14996  0.62711  0.51202  1.0000
  Fe  Fe42      1.0  0.17915  0.64970  0.57669  1.0000
  S   S83       1.0  0.20240  0.62821  0.59123  1.0000
  S   S84       1.0  0.14707  0.68513  0.54369  1.0000
  S   S85       1.0  0.17075  0.68698  0.58451  1.0000
  S   S86       1.0  0.39904  0.74579  0.63165  1.0000
  S   S87       1.0  0.27742  0.67836  0.66166  1.0000
  S   S88       1.0  0.35339  0.60015  0.65316  1.0000
  S   S89       1.0  0.34230  0.66932  0.64047  1.0000
  C   C184      1.0  0.22310  0.64282  0.61078  1.0000
  C   C185      1.0  0.24265  0.63260  0.61620  1.0000
  C   C186      1.0  0.25980  0.64382  0.63156  1.0000
  C   C187      1.0  0.25704  0.66490  0.64187  1.0000
  C   C188      1.0  0.23757  0.67521  0.63644  1.0000
  C   C189      1.0  0.22086  0.66444  0.62083  1.0000
  H   H188      1.0  0.24450  0.61587  0.60852  1.0000
  H   H189      1.0  0.27455  0.63554  0.63568  1.0000
  H   H190      1.0  0.23527  0.69148  0.64436  1.0000
  H   H191      1.0  0.20584  0.67244  0.61677  1.0000
  C   C190      1.0  0.14533  0.53768  0.51466  1.0000
  C   C191      1.0  0.13430  0.54758  0.52855  1.0000
  C   C192      1.0  0.13532  0.57493  0.52768  1.0000
  C   C193      1.0  0.14733  0.59238  0.51293  1.0000
  C   C194      1.0  0.15799  0.58231  0.49893  1.0000
  C   C195      1.0  0.15729  0.55510  0.49988  1.0000
  H   H192      1.0  0.12511  0.53418  0.54001  1.0000
  H   H193      1.0  0.12646  0.58224  0.53833  1.0000
  H   H194      1.0  0.16740  0.59581  0.48754  1.0000
  H   H195      1.0  0.16661  0.54796  0.48937  1.0000
  C   C196      1.0  0.49234  0.80019  0.61325  1.0000
  C   C197      1.0  0.47048  0.80753  0.60858  1.0000
  C   C198      1.0  0.44216  0.79082  0.61457  1.0000
  C   C199      1.0  0.43537  0.76663  0.62530  1.0000
  C   C200      1.0  0.45724  0.75932  0.63007  1.0000
  C   C201      1.0  0.48564  0.77610  0.62408  1.0000
  H   H196      1.0  0.47542  0.82619  0.60041  1.0000
  H   H197      1.0  0.42543  0.79673  0.61089  1.0000
  H   H198      1.0  0.45226  0.74074  0.63831  1.0000
  H   H199      1.0  0.38127  0.57316  0.54092  1.0000
  C   C202      1.0  0.25875  0.78585  0.49970  1.0000
  C   C203      1.0  0.23121  0.76259  0.50189  1.0000
  C   C204      1.0  0.22174  0.75084  0.51879  1.0000
  C   C205      1.0  0.23948  0.76275  0.53372  1.0000
  C   C206      1.0  0.26714  0.78586  0.53152  1.0000
  C   C207      1.0  0.27692  0.79710  0.51453  1.0000
  H   H200      1.0  0.21696  0.75382  0.49051  1.0000
  H   H201      1.0  0.20038  0.73308  0.52033  1.0000
  H   H202      1.0  0.28102  0.79512  0.54300  1.0000
  H   H203      1.0  0.29814  0.81505  0.51302  1.0000
  C   C208      1.0  0.42239  0.84206  0.50889  1.0000
  C   C209      1.0  0.41069  0.85668  0.51911  1.0000
  C   C210      1.0  0.42480  0.87129  0.53472  1.0000
  C   C211      1.0  0.45080  0.87159  0.53992  1.0000
  C   C212      1.0  0.46244  0.85705  0.52959  1.0000
  C   C213      1.0  0.44809  0.84201  0.51423  1.0000
  H   H204      1.0  0.39072  0.85658  0.51510  1.0000
  H   H205      1.0  0.41583  0.88267  0.54262  1.0000
  H   H206      1.0  0.48286  0.85784  0.53310  1.0000
  H   H207      1.0  0.45743  0.83108  0.50622  1.0000
  C   C214      1.0  0.27787  0.57606  0.39542  1.0000
  C   C215      1.0  0.25772  0.54735  0.39880  1.0000
  C   C216      1.0  0.23960  0.54052  0.41372  1.0000
  C   C217      1.0  0.24172  0.56239  0.42547  1.0000
  C   C218      1.0  0.26264  0.59087  0.42246  1.0000
  C   C219      1.0  0.28044  0.59770  0.40747  1.0000
  H   H208      1.0  0.25570  0.53038  0.38963  1.0000
  H   H209      1.0  0.48133  0.95175  0.54412  1.0000
  H   H210      1.0  0.26459  0.60790  0.43153  1.0000
  H   H211      1.0  0.29589  0.61978  0.40523  1.0000
  C   C220      1.0  0.32229  0.74549  0.39018  1.0000
  C   C221      1.0  0.30900  0.75426  0.40345  1.0000
  C   C222      1.0  0.32331  0.78207  0.41110  1.0000
  C   C223      1.0  0.35062  0.80162  0.40510  1.0000
  C   C224      1.0  0.36389  0.79284  0.39182  1.0000
  C   C225      1.0  0.34998  0.76473  0.38457  1.0000
  H   H212      1.0  0.28750  0.73963  0.40777  1.0000
  H   H213      1.0  0.31280  0.78871  0.42122  1.0000
  H   H214      1.0  0.38503  0.80787  0.38715  1.0000
  H   H215      1.0  0.36051  0.75823  0.37443  1.0000
  C   C226      1.0  0.49468  0.68411  0.40902  1.0000
  C   C227      1.0  0.47980  0.67406  0.39279  1.0000
  C   C228      1.0  0.45658  0.67978  0.38822  1.0000
  C   C229      1.0  0.44856  0.69602  0.39978  1.0000
  C   C230      1.0  0.46360  0.70621  0.41588  1.0000
  C   C231      1.0  0.48643  0.70017  0.42053  1.0000
  C   C232      1.0  0.02482  0.62863  0.57785  1.0000
  H   H216      1.0  0.44529  0.67208  0.37568  1.0000
  H   H217      1.0  0.45769  0.71901  0.42482  1.0000
  H   H218      1.0  0.47901  0.92125  0.47791  1.0000
  C   C233      1.0  0.38006  0.57343  0.60068  1.0000
  C   C234      1.0  0.36426  0.55276  0.61330  1.0000
  C   C235      1.0  0.35607  0.56126  0.62924  1.0000
  C   C236      1.0  0.36318  0.59038  0.63260  1.0000
  C   C237      1.0  0.37858  0.61100  0.61985  1.0000
  C   C238      1.0  0.38714  0.60255  0.60403  1.0000
  H   H219      1.0  0.35873  0.53030  0.61091  1.0000
  H   H220      1.0  0.34418  0.54518  0.63903  1.0000
  H   H221      1.0  0.38427  0.63348  0.62230  1.0000
  H   H222      1.0  0.39943  0.61870  0.59437  1.0000
  C   C239      1.0  0.42361  0.53122  0.50421  1.0000
  C   C240      1.0  0.45064  0.54801  0.49673  1.0000
  C   C241      1.0  0.45721  0.57526  0.48990  1.0000
  C   C242      1.0  0.43658  0.58549  0.49030  1.0000
  C   C243      1.0  0.40922  0.56832  0.49724  1.0000
  C   C244      1.0  0.40280  0.54124  0.50429  1.0000
  H   H223      1.0  0.46677  0.54029  0.49663  1.0000
  H   H224      1.0  0.47839  0.58844  0.48456  1.0000
  H   H225      1.0  0.39316  0.57611  0.49743  1.0000
  H   H226      1.0  0.46782  0.56677  0.54137  1.0000
  H   H227      1.0  0.47854  0.89636  0.49470  1.0000
  C   C245      1.0  0.05095  0.62714  0.57541  1.0000
  C   C246      1.0  0.04984  0.60052  0.57085  1.0000
  H   H228      1.0  0.50370  0.61244  0.52770  1.0000
  H   H229      1.0  0.06966  0.59893  0.56902  1.0000
  Fe  Fe43      1.0  0.49186  0.64226  0.47510  1.0000
  C   C247      1.0  0.40466  0.97026  0.46969  1.0000
  C   C248      1.0  0.41915  0.96962  0.45424  1.0000
  C   C249      1.0  0.05984  0.59228  0.52382  1.0000
  Fe  Fe44      1.0  0.35634  0.64434  0.65894  1.0000
  Fe  Fe45      1.0  0.31908  0.67493  0.66392  1.0000
  H   H230      1.0  0.36622  0.77529  0.44545  1.0000
  C   C250      1.0  0.44574  0.62605  0.52955  1.0000
  H   H231      1.0  0.41047  0.63626  0.40622  1.0000
  N   N16       1.0  0.40633  0.61562  0.43117  1.0000
  H   H232      1.0  0.39625  0.60652  0.55331  1.0000
  Fe  Fe46      1.0  0.50826  0.88375  0.56244  1.0000
  H   H233      1.0  0.44329  0.80864  0.41516  1.0000
  N   N17       1.0  0.25784  0.85092  0.50684  1.0000
  C   C251      1.0  0.27008  0.86549  0.49163  1.0000
  C   C252      1.0  0.27298  0.85830  0.52255  1.0000
  C   C253      1.0  0.29826  0.88804  0.49189  1.0000
  C   C254      1.0  0.30125  0.88064  0.52326  1.0000
  C   C255      1.0  0.31385  0.89567  0.50783  1.0000
  C   C256      1.0  0.22782  0.82829  0.50649  1.0000
  H   H234      1.0  0.25830  0.85923  0.47911  1.0000
  H   H235      1.0  0.26336  0.84655  0.53456  1.0000
  H   H236      1.0  0.30817  0.89931  0.47978  1.0000
  H   H237      1.0  0.31338  0.88611  0.53566  1.0000
  H   H238      1.0  0.33583  0.91293  0.50810  1.0000
  H   H239      1.0  0.21292  0.83795  0.50850  1.0000
  H   H240      1.0  0.22257  0.81625  0.49361  1.0000
  H   H241      1.0  0.22403  0.81202  0.51698  1.0000
  C   C257      1.0  0.20819  0.51460  0.53741  1.0000
  H   H242      1.0  0.38905  0.60594  0.52959  1.0000
  C   C258      1.0  0.24812  0.65796  0.41144  1.0000
  N   N18       1.0  0.30257  0.72477  0.61045  1.0000
  C   C259      1.0  0.29267  0.74489  0.60847  1.0000
  C   C260      1.0  0.29121  0.70002  0.60034  1.0000
  C   C261      1.0  0.27143  0.74088  0.59571  1.0000
  C   C262      1.0  0.27005  0.69540  0.58742  1.0000
  C   C263      1.0  0.26016  0.71598  0.58513  1.0000
  C   C264      1.0  0.32442  0.72914  0.62411  1.0000
  H   H243      1.0  0.30113  0.76413  0.61681  1.0000
  H   H244      1.0  0.29811  0.68347  0.60243  1.0000
  H   H245      1.0  0.26351  0.75676  0.59402  1.0000
  H   H246      1.0  0.26067  0.67553  0.57962  1.0000
  H   H247      1.0  0.24350  0.71254  0.57535  1.0000
  H   H248      1.0  0.33661  0.71686  0.62093  1.0000
  H   H249      1.0  0.34069  0.75221  0.62518  1.0000
  H   H250      1.0  0.31394  0.72191  0.63718  1.0000
  N   N19       1.0  0.20507  0.54057  0.54184  1.0000
  C   C265      1.0  0.21173  0.56201  0.52965  1.0000
  C   C266      1.0  0.19565  0.54321  0.55836  1.0000
  C   C267      1.0  0.20864  0.58675  0.53383  1.0000
  C   C268      1.0  0.19238  0.56767  0.56299  1.0000
  C   C269      1.0  0.19884  0.58947  0.55060  1.0000
  H   H251      1.0  0.19146  0.57804  0.41421  1.0000
  H   H252      1.0  0.38165  0.52798  0.50959  1.0000
  H   H253      1.0  0.49764  0.77056  0.53896  1.0000
  H   H254      1.0  0.49105  0.92313  0.52138  1.0000
  H   H255      1.0  0.18466  0.56970  0.57605  1.0000
  C   C270      1.0  0.06637  0.63967  0.53237  1.0000
  H   H256      1.0  0.26448  0.68033  0.41085  1.0000
  C   C271      1.0  0.47048  0.94779  0.53128  1.0000
  H   H257      1.0  0.23479  0.66182  0.43787  1.0000
  S   S90       1.0  0.21701  0.55610  0.44295  1.0000
  Fe  Fe47      1.0  0.38079  0.70865  0.65113  1.0000
  H   H258      1.0  0.21846  0.55964  0.51639  1.0000
  C   C272      1.0  0.39674  0.59650  0.54030  1.0000
  C   C273      1.0  0.23125  0.64738  0.42662  1.0000
  H   H259      1.0  0.44374  0.65136  0.44138  1.0000
  C   C274      1.0  0.46649  0.90745  0.48904  1.0000
  N   N20       1.0  0.42610  0.60075  0.53683  1.0000
  C   C275      1.0  0.39587  0.62132  0.41576  1.0000
  C   C276      1.0  0.43746  0.63004  0.43489  1.0000
  H   H260      1.0  0.45004  0.63329  0.42250  1.0000
  C   C277      1.0  0.36872  0.74624  0.42599  1.0000
  C   C278      1.0  0.38544  0.74252  0.41279  1.0000
  C   C279      1.0  0.43406  0.57998  0.54148  1.0000
  C   C280      1.0  0.36618  0.60783  0.41201  1.0000
  H   H261      1.0  0.48622  0.66177  0.38377  1.0000
  H   H262      1.0  0.44389  0.61698  0.44381  1.0000
  H   H263      1.0  0.34753  0.72896  0.42892  1.0000
  C   C281      1.0  0.41191  0.99708  0.47800  1.0000
  H   H264      1.0  0.40081  0.99789  0.48993  1.0000
  H   H265      1.0  0.19576  0.60822  0.55392  1.0000
  C   C282      1.0  0.47902  0.77093  0.54510  1.0000
  H   H266      1.0  0.42289  0.84032  0.43141  1.0000
  H   H267      1.0  0.22627  0.51426  0.54516  1.0000
  H   H268      1.0  0.22074  0.59568  0.38715  1.0000
  C   C283      1.0  0.37936  0.77257  0.43521  1.0000
  H   H269      1.0  0.39609  0.59349  0.45587  1.0000
  H   H270      1.0  0.41861  0.56009  0.54744  1.0000
  C   C284      1.0  0.46201  0.58378  0.53823  1.0000
  C   C285      1.0  0.43628  0.95218  0.51132  1.0000
  C   C286      1.0  0.41689  0.82223  0.44088  1.0000
  N   N21       1.0  0.47352  0.76457  0.56270  1.0000
  N   N22       1.0  0.40576  0.79468  0.43119  1.0000
  S   S91       1.0  0.31107  0.65387  0.34854  1.0000
  S   S92       1.0  0.37070  0.64680  0.35496  1.0000
  C   C287      1.0  0.42232  0.79117  0.41827  1.0000
  H   H271      1.0  0.43584  0.82540  0.44919  1.0000
  H   H272      1.0  0.42560  0.76219  0.39868  1.0000
  C   C288      1.0  0.38779  0.59744  0.44345  1.0000
  C   C289      1.0  0.41243  0.76505  0.40889  1.0000
  H   H273      1.0  0.22356  0.51848  0.41589  1.0000
  C   C290      1.0  0.35797  0.58360  0.44014  1.0000
  C   C291      1.0  0.34717  0.58876  0.42426  1.0000
  C   C292      1.0  0.03638  0.62912  0.53240  1.0000
  C   C293      1.0  0.43806  0.78084  0.54291  1.0000
  S   S93       1.0  0.50883  0.62570  0.45298  1.0000
  H   H274      1.0  0.08040  0.66187  0.53630  1.0000
  C   C294      1.0  0.22327  0.61060  0.39796  1.0000
  N   N23       1.0  0.21086  0.61911  0.42740  1.0000
  H   H275      1.0  0.40043  0.82304  0.44983  1.0000
  H   H276      1.0  0.19028  0.52618  0.56799  1.0000
  C   C295      1.0  0.43237  0.77393  0.56081  1.0000
  H   H277      1.0  0.44568  0.89022  0.48382  1.0000
  H   H278      1.0  0.46658  0.78522  0.52116  1.0000
  H   H279      1.0  0.50248  0.77037  0.62780  1.0000
  H   H280      1.0  0.42475  0.78802  0.53531  1.0000
  C   C296      1.0  0.46142  0.77916  0.53494  1.0000
  H   H281      1.0  0.06895  0.57773  0.52065  1.0000
  S   S94       1.0  0.50161  0.83821  0.56223  1.0000
  H   H282      1.0  0.20897  0.60713  0.45438  1.0000
  H   H283      1.0  0.37746  0.72226  0.40551  1.0000
  H   H284      1.0  0.17647  0.58624  0.44205  1.0000
  H   H285      1.0  0.34334  0.56893  0.44981  1.0000
  H   H286      1.0  0.41461  0.77566  0.56726  1.0000
  H   H287      1.0  0.44606  0.76077  0.58451  1.0000
  H   H288      1.0  0.21287  0.60324  0.52396  1.0000
  C   C297      1.0  0.45057  0.95821  0.52772  1.0000
  C   C298      1.0  0.44032  0.99554  0.44707  1.0000
  H   H289      1.0  0.44618  0.97082  0.53770  1.0000
  H   H290      1.0  0.48486  0.74960  0.58656  1.0000
  H   H291      1.0  0.49814  0.70862  0.43282  1.0000
  N   N24       1.0  0.46114  0.92499  0.50245  1.0000
  C   C299      1.0  0.19454  0.60837  0.44383  1.0000
  S   S95       1.0  0.39689  0.68317  0.66806  1.0000
  H   H292      1.0  0.42085  0.96027  0.50833  1.0000
  C   C300      1.0  0.45037  0.76569  0.57055  1.0000
  C   C301      1.0  0.02300  0.57587  0.56856  1.0000
  H   H293      1.0  0.43048  0.93068  0.48608  1.0000
  H   H294      1.0  0.02541  0.64907  0.58146  1.0000
  C   C302      1.0  0.07809  0.62109  0.52804  1.0000
  H   H295      1.0  0.51393  0.77893  0.57574  1.0000
  H   H296      1.0  0.10127  0.62888  0.52821  1.0000
  C   C303      1.0  0.24415  0.63938  0.39707  1.0000
  H   H297      1.0  0.32411  0.57805  0.42144  1.0000
  C   C304      1.0  0.47581  0.93143  0.51833  1.0000
  C   C305      1.0  0.20673  0.60076  0.41333  1.0000
  H   H298      1.0  0.02746  0.64354  0.53625  1.0000
  H   H299      1.0  0.45115  0.99477  0.43500  1.0000
  H   H300      1.0  0.43946  0.64245  0.52572  1.0000
  H   H301      1.0  0.18528  0.62275  0.44839  1.0000
  S   S96       1.0  0.35658  0.71545  0.67379  1.0000
  S   S97       1.0  0.50989  0.68753  0.46543  1.0000
  C   C306      1.0  0.49380  0.75854  0.57335  1.0000
  H   H302      1.0  0.48925  0.65066  0.52025  1.0000
  H   H303      1.0  0.49929  0.74279  0.56640  1.0000
  Fe  Fe48      1.0  0.37741  0.51805  0.57087  1.0000
  H   H304      1.0  0.21233  0.51337  0.52304  1.0000
  H   H305      1.0  0.32744  0.74282  0.34690  1.0000
  Fe  Fe49      1.0  0.18861  0.51258  0.45532  1.0000
  C   C307      1.0  0.02990  0.58242  0.52399  1.0000
  H   H306      1.0  0.27739  0.70436  0.34429  1.0000
  N   N25       1.0  0.01856  0.60077  0.52833  1.0000
  H   H307      1.0  0.01581  0.55990  0.52094  1.0000
  H   H308      1.0  0.33875  0.76111  0.87773  1.0000
  S   S98       1.0  0.39554  0.52398  0.93894  1.0000
  S   S99       1.0  0.45901  0.87958  0.97165  1.0000
  H   H309      1.0  0.48577  0.86343  0.00024  1.0000
  N   N26       1.0  0.40302  0.64044  0.70843  1.0000
  S   S100      1.0  0.16175  0.58650  0.96163  1.0000
  Fe  Fe50      1.0  0.16637  0.63146  0.96058  1.0000
  S   S101      1.0  0.15082  0.64932  0.98279  1.0000
  H   H310      1.0  0.20920  0.56054  0.90387  1.0000
  Fe  Fe51      1.0  0.18646  0.68532  0.93919  1.0000
  S   S102      1.0  0.17190  0.70805  0.95957  1.0000
  S   S103      1.0  0.21020  0.70514  0.91381  1.0000
  Fe  Fe52      1.0  0.19197  0.69030  0.97946  1.0000
  C   C308      1.0  0.26657  0.79683  0.00159  1.0000
  Fe  Fe53      1.0  0.13161  0.66508  0.96133  1.0000
  S   S104      1.0  0.08627  0.65837  0.96817  1.0000
  S   S105      1.0  0.20909  0.67064  0.95903  1.0000
  S   S106      1.0  0.14458  0.64426  0.93919  1.0000
  H   H311      1.0  0.17559  0.61160  0.85828  1.0000
  C   C309      1.0  0.46582  0.56124  0.00529  1.0000
  H   H312      1.0  0.06951  0.62132  0.93621  1.0000
  C   C310      1.0  0.16757  0.55120  0.00809  1.0000
  Fe  Fe54      1.0  0.36898  0.68666  0.69005  1.0000
  S   S107      1.0  0.38699  0.69938  0.71850  1.0000
  N   N27       1.0  0.18940  0.60715  0.88412  1.0000
  H   H313      1.0  0.40675  0.65534  0.73525  1.0000
  Fe  Fe55      1.0  0.36990  0.65432  0.85833  1.0000
  S   S108      1.0  0.35584  0.67789  0.87780  1.0000
  S   S109      1.0  0.39340  0.63114  0.87054  1.0000
  Fe  Fe56      1.0  0.34676  0.67367  0.82592  1.0000
  S   S110      1.0  0.33067  0.69876  0.84356  1.0000
  S   S111      1.0  0.33274  0.66518  0.79630  1.0000
  Fe  Fe57      1.0  0.37301  0.71404  0.85844  1.0000
  S   S112      1.0  0.39420  0.75922  0.87057  1.0000
  Fe  Fe58      1.0  0.31498  0.66092  0.86182  1.0000
  S   S113      1.0  0.27352  0.63992  0.87739  1.0000
  S   S114      1.0  0.39056  0.69199  0.83962  1.0000
  S   S115      1.0  0.32767  0.63436  0.84354  1.0000
  C   C311      1.0  0.37186  0.68815  0.74001  1.0000
  C   C312      1.0  0.34328  0.66729  0.74242  1.0000
  C   C313      1.0  0.33206  0.66003  0.75975  1.0000
  C   C314      1.0  0.34910  0.67348  0.77491  1.0000
  C   C315      1.0  0.37786  0.69387  0.77247  1.0000
  C   C316      1.0  0.38910  0.70109  0.75515  1.0000
  H   H314      1.0  0.32972  0.65700  0.73097  1.0000
  H   H315      1.0  0.30980  0.64418  0.76144  1.0000
  H   H316      1.0  0.39130  0.70443  0.78393  1.0000
  H   H317      1.0  0.41127  0.71721  0.75351  1.0000
  C   C317      1.0  0.22927  0.68807  0.90409  1.0000
  C   C318      1.0  0.23034  0.66458  0.91229  1.0000
  C   C319      1.0  0.24579  0.65132  0.90454  1.0000
  C   C320      1.0  0.25993  0.66108  0.88837  1.0000
  C   C321      1.0  0.25947  0.68499  0.88028  1.0000
  C   C322      1.0  0.24402  0.69836  0.88810  1.0000
  H   H318      1.0  0.21883  0.65619  0.92445  1.0000
  H   H319      1.0  0.24604  0.63281  0.91085  1.0000
  H   H320      1.0  0.27003  0.69242  0.86767  1.0000
  H   H321      1.0  0.24322  0.71650  0.88164  1.0000
  H   H322      1.0  0.34541  0.72367  0.89428  1.0000
  C   C323      1.0  0.20200  0.58927  0.88626  1.0000
  H   H323      1.0  0.15492  0.59653  0.92343  1.0000
  C   C324      1.0  0.02737  0.62465  0.96958  1.0000
  C   C325      1.0  0.42987  0.59894  0.99217  1.0000
  H   H324      1.0  0.17874  0.56529  0.92792  1.0000
  H   H325      1.0  0.47100  0.63700  0.99239  1.0000
  C   C326      1.0  0.34383  0.55035  0.90416  1.0000
  C   C327      1.0  0.37382  0.56647  0.90578  1.0000
  C   C328      1.0  0.38870  0.59099  0.89529  1.0000
  C   C329      1.0  0.37369  0.60033  0.88357  1.0000
  C   C330      1.0  0.34360  0.58477  0.88232  1.0000
  C   C331      1.0  0.32878  0.55959  0.89238  1.0000
  H   H326      1.0  0.38572  0.55963  0.91469  1.0000
  H   H327      1.0  0.41198  0.60283  0.89628  1.0000
  H   H328      1.0  0.33180  0.59177  0.87331  1.0000
  H   H329      1.0  0.30560  0.54724  0.89098  1.0000
  H   H330      1.0  0.42454  0.81230  0.98049  1.0000
  Fe  Fe59      1.0  0.39683  0.54668  0.96438  1.0000
  H   H331      1.0  0.34475  0.58421  0.69017  1.0000
  C   C332      1.0  0.45440  0.87868  0.99469  1.0000
  H   H332      1.0  0.35328  0.83179  0.98699  1.0000
  H   H333      1.0  0.42060  0.89163  0.99345  1.0000
  C   C333      1.0  0.47222  0.78707  0.90845  1.0000
  C   C334      1.0  0.45612  0.80250  0.90799  1.0000
  C   C335      1.0  0.43227  0.79377  0.89631  1.0000
  C   C336      1.0  0.42401  0.76930  0.88527  1.0000
  C   C337      1.0  0.43997  0.75375  0.88588  1.0000
  C   C338      1.0  0.46419  0.76284  0.89725  1.0000
  H   H334      1.0  0.46217  0.82127  0.91649  1.0000
  H   H335      1.0  0.42010  0.80599  0.89586  1.0000
  H   H336      1.0  0.43406  0.73512  0.87725  1.0000
  H   H337      1.0  0.47686  0.75114  0.89725  1.0000
  C   C339      1.0  0.05038  0.61631  0.94394  1.0000
  C   C340      1.0  0.05261  0.63124  0.95987  1.0000
  C   C341      1.0  0.35373  0.74058  0.74043  1.0000
  N   N28       1.0  0.29583  0.72962  0.92069  1.0000
  C   C342      1.0  0.29220  0.75057  0.91173  1.0000
  C   C343      1.0  0.34843  0.59818  0.71757  1.0000
  C   C344      1.0  0.30742  0.76213  0.89610  1.0000
  Fe  Fe60      1.0  0.49573  0.86973  0.96590  1.0000
  C   C345      1.0  0.43142  0.66349  0.70366  1.0000
  H   H338      1.0  0.15244  0.53579  0.98147  1.0000
  H   H339      1.0  0.27690  0.75791  0.91640  1.0000
  H   H340      1.0  0.31753  0.70329  0.92161  1.0000
  H   H341      1.0  0.30415  0.77837  0.88886  1.0000
  C   C346      1.0  0.17156  0.58221  0.98327  1.0000
  S   S116      1.0  0.21895  0.70955  0.00445  1.0000
  C   C347      1.0  0.19840  0.57393  0.90201  1.0000
  C   C348      1.0  0.38871  0.82208  0.98155  1.0000
  H   H342      1.0  0.26012  0.72037  0.93784  1.0000
  S   S117      1.0  0.43070  0.59211  0.96948  1.0000
  C   C349      1.0  0.17221  0.60944  0.89711  1.0000
  H   H343      1.0  0.08687  0.56627  0.96323  1.0000
  H   H344      1.0  0.43784  0.66034  0.69007  1.0000
  H   H345      1.0  0.26642  0.81434  0.99400  1.0000
  C   C350      1.0  0.40700  0.57969  0.00247  1.0000
  C   C351      1.0  0.08071  0.58188  0.96975  1.0000
  C   C352      1.0  0.18140  0.57662  0.91547  1.0000
  C   C353      1.0  0.36610  0.61816  0.73028  1.0000
  C   C354      1.0  0.24633  0.74539  0.00731  1.0000
  H   H346      1.0  0.35846  0.61776  0.74372  1.0000
  C   C355      1.0  0.38587  0.62086  0.69589  1.0000
  H   H347      1.0  0.37993  0.53339  0.87691  1.0000
  C   C356      1.0  0.16804  0.59428  0.91297  1.0000
  H   H348      1.0  0.29445  0.73088  0.94883  1.0000
  N   N29       1.0  0.31120  0.70922  0.72377  1.0000
  C   C357      1.0  0.29654  0.69890  0.73924  1.0000
  C   C358      1.0  0.33955  0.72952  0.72421  1.0000
  C   C359      1.0  0.31009  0.70942  0.75571  1.0000
  C   C360      1.0  0.31468  0.71996  0.91459  1.0000
  H   H349      1.0  0.44821  0.66423  0.71313  1.0000
  C   C361      1.0  0.29714  0.69701  0.70667  1.0000
  H   H350      1.0  0.27440  0.68204  0.73894  1.0000
  H   H351      1.0  0.35166  0.73669  0.71201  1.0000
  H   H352      1.0  0.29879  0.70058  0.76800  1.0000
  S   S118      1.0  0.50288  0.79768  0.92248  1.0000
  C   C362      1.0  0.16328  0.55458  0.99001  1.0000
  H   H353      1.0  0.27337  0.68890  0.70722  1.0000
  H   H354      1.0  0.30505  0.71350  0.69605  1.0000
  H   H355      1.0  0.30163  0.67885  0.70268  1.0000
  N   N30       1.0  0.46078  0.69163  0.94351  1.0000
  C   C363      1.0  0.45460  0.70542  0.92996  1.0000
  C   C364      1.0  0.44566  0.66227  0.94512  1.0000
  C   C365      1.0  0.43328  0.68963  0.91729  1.0000
  C   C366      1.0  0.42419  0.64584  0.93269  1.0000
  C   C367      1.0  0.41805  0.65968  0.91869  1.0000
  C   C368      1.0  0.48268  0.70854  0.95693  1.0000
  H   H356      1.0  0.46621  0.72878  0.92885  1.0000
  H   H357      1.0  0.45013  0.65128  0.95603  1.0000
  H   H358      1.0  0.42856  0.70045  0.90641  1.0000
  H   H359      1.0  0.41241  0.62251  0.93395  1.0000
  H   H360      1.0  0.40148  0.64730  0.90892  1.0000
  H   H361      1.0  0.32698  0.58192  0.72104  1.0000
  H   H362      1.0  0.49430  0.69647  0.96178  1.0000
  H   H363      1.0  0.44855  0.55588  0.99561  1.0000
  C   C369      1.0  0.19377  0.62349  0.86768  1.0000
  H   H364      1.0  0.21588  0.58766  0.87604  1.0000
  H   H365      1.0  0.19540  0.64522  0.87052  1.0000
  H   H366      1.0  0.19241  0.62784  0.98921  1.0000
  H   H367      1.0  0.21437  0.62723  0.86121  1.0000
  H   H368      1.0  0.16233  0.62372  0.89547  1.0000
  C   C370      1.0  0.28062  0.71855  0.93741  1.0000
  C   C371      1.0  0.18535  0.60640  0.99437  1.0000
  N   N31       1.0  0.08822  0.58576  0.98870  1.0000
  C   C372      1.0  0.28639  0.54332  0.00099  1.0000
  C   C373      1.0  0.43321  0.88491  0.00197  1.0000
  S   S119      1.0  0.48884  0.82425  0.96782  1.0000
  H   H369      1.0  0.34994  0.73784  0.76895  1.0000
  C   C374      1.0  0.33887  0.73038  0.75626  1.0000
  C   C375      1.0  0.02314  0.59551  0.93765  1.0000
  H   H370      1.0  0.06824  0.61311  0.99297  1.0000
  H   H371      1.0  0.49921  0.72923  0.95140  1.0000
  H   H372      1.0  0.30461  0.54101  0.99563  1.0000
  H   H373      1.0  0.27464  0.69526  0.93890  1.0000
  H   H374      1.0  0.20242  0.52721  0.98304  1.0000
  C   C376      1.0  0.36798  0.82415  0.99234  1.0000
  H   H375      1.0  0.39073  0.82861  0.96776  1.0000
  C   C377      1.0  0.35837  0.59944  0.70027  1.0000
  H   H376      1.0  0.39319  0.62185  0.68233  1.0000
  H   H377      1.0  0.43095  0.68466  0.70408  1.0000
  H   H378      1.0  0.37646  0.75596  0.74070  1.0000
  C   C378      1.0  0.33039  0.73123  0.89911  1.0000
  C   C379      1.0  0.39349  0.63928  0.72544  1.0000
  C   C380      1.0  0.40793  0.81294  0.98888  1.0000
  C   C381      1.0  0.32668  0.75239  0.88981  1.0000
  C   C382      1.0  0.24725  0.76806  0.99701  1.0000
  H   H379      1.0  0.09226  0.60289  0.96292  1.0000
  H   H380      1.0  0.23222  0.76352  0.98604  1.0000
  H   H381      1.0  0.05709  0.57402  0.96784  1.0000
  S   S120      1.0  0.32946  0.64645  0.68189  1.0000
  S   S121      1.0  0.35024  0.53629  0.96379  1.0000
  H   H382      1.0  0.02876  0.63620  0.98185  1.0000
  C   C383      1.0  0.25895  0.52827  0.99325  1.0000
  H   H383      1.0  0.50076  0.85827  0.88359  1.0000
  H   H384      1.0  0.47228  0.71352  0.96839  1.0000
  C   C384      1.0  0.47034  0.86962  0.00575  1.0000
  H   H385      1.0  0.11011  0.55960  0.98806  1.0000
  C   C385      1.0  0.45327  0.62210  0.00031  1.0000
  H   H386      1.0  0.38874  0.56187  0.99625  1.0000
  S   S122      1.0  0.32519  0.51730  0.91546  1.0000
  C   C386      1.0  0.08038  0.60295  0.99882  1.0000
  N   N32       1.0  0.23561  0.52976  0.00053  1.0000
  H   H387      1.0  0.49939  0.57748  0.98579  1.0000
  H   H388      1.0  0.02157  0.58461  0.92510  1.0000
  N   N33       1.0  0.40694  0.80667  0.00655  1.0000
  C   C387      1.0  0.49442  0.57329  0.99977  1.0000
  C   C388      1.0  0.10362  0.57302  0.99608  1.0000
  H   H389      1.0  0.44801  0.80649  0.00667  1.0000
  Fe  Fe61      1.0  0.51495  0.83369  0.94306  1.0000
  H   H390      1.0  0.25633  0.51463  0.98171  1.0000
  H   H391      1.0  0.34171  0.51258  0.87600  1.0000
  C   C389      1.0  0.20689  0.51343  0.99249  1.0000
  C   C390      1.0  0.66504  0.25596  0.10231  1.0000
  S   S123      1.0  0.60470  0.16932  0.05375  1.0000
  C   C391      1.0  0.77036  0.21841  0.02195  1.0000
  Fe  Fe62      1.0  0.64187  0.48386  0.05753  1.0000
  S   S124      1.0  0.60051  0.44436  0.05134  1.0000
  S   S125      1.0  0.68100  0.47739  0.06215  1.0000
  Fe  Fe63      1.0  0.66080  0.29220  0.16131  1.0000
  S   S126      1.0  0.63792  0.31350  0.17570  1.0000
  S   S127      1.0  0.64192  0.24758  0.14867  1.0000
  Fe  Fe64      1.0  0.71866  0.34561  0.16415  1.0000
  S   S128      1.0  0.70037  0.37153  0.17897  1.0000
  S   S129      1.0  0.76395  0.36770  0.15312  1.0000
  Fe  Fe65      1.0  0.67594  0.33095  0.19496  1.0000
  S   S130      1.0  0.66144  0.32779  0.22419  1.0000
  Fe  Fe66      1.0  0.66414  0.35234  0.15902  1.0000
  S   S131      1.0  0.64245  0.37361  0.14267  1.0000
  S   S132      1.0  0.69708  0.30645  0.18146  1.0000
  S   S133      1.0  0.68404  0.32940  0.14331  1.0000
  H   H392      1.0  0.63055  0.37638  0.31536  1.0000
  H   H393      1.0  0.72814  0.46366  0.08395  1.0000
  Fe  Fe67      1.0  0.69614  0.33142  0.33286  1.0000
  S   S134      1.0  0.71182  0.34100  0.30390  1.0000
  H   H394      1.0  0.75595  0.40256  0.12464  1.0000
  Fe  Fe68      1.0  0.84666  0.32675  0.08293  1.0000
  S   S135      1.0  0.86563  0.30595  0.06407  1.0000
  S   S136      1.0  0.81765  0.30269  0.10575  1.0000
  Fe  Fe69      1.0  0.86868  0.38117  0.06235  1.0000
  S   S137      1.0  0.88854  0.36515  0.04163  1.0000
  S   S138      1.0  0.87295  0.42562  0.05925  1.0000
  Fe  Fe70      1.0  0.84778  0.32332  0.04270  1.0000
  S   S139      1.0  0.82823  0.30334  0.01588  1.0000
  Fe  Fe71      1.0  0.90545  0.34946  0.06419  1.0000
  S   S140      1.0  0.95074  0.35310  0.06010  1.0000
  S   S141      1.0  0.82639  0.34125  0.06145  1.0000
  S   S142      1.0  0.88800  0.36836  0.08520  1.0000
  C   C392      1.0  0.98576  0.38250  0.06400  1.0000
  H   H395      1.0  0.88772  0.27231  0.09594  1.0000
  C   C393      1.0  0.59971  0.46664  0.01857  1.0000
  C   C394      1.0  0.82700  0.45457  0.04395  1.0000
  H   H396      1.0  0.97173  0.40773  0.08037  1.0000
  H   H397      1.0  0.65385  0.40339  0.01087  1.0000
  S   S143      1.0  0.53471  0.13104  0.08223  1.0000
  C   C395      1.0  0.01008  0.38120  0.05676  1.0000
  C   C396      1.0  0.79176  0.24681  0.02563  1.0000
  C   C397      1.0  0.52604  0.26576  0.02318  1.0000
  H   H398      1.0  0.80212  0.25234  0.03856  1.0000
  C   C398      1.0  0.85893  0.40611  0.02520  1.0000
  C   C399      1.0  0.87345  0.43021  0.03630  1.0000
  C   C400      1.0  0.88831  0.45766  0.02899  1.0000
  H   H399      1.0  0.72643  0.39634  0.13927  1.0000
  H   H400      1.0  0.84665  0.38494  0.03080  1.0000
  H   H401      1.0  0.89964  0.47631  0.03756  1.0000
  H   H402      1.0  0.75392  0.43224  0.13620  1.0000
  C   C401      1.0  0.77693  0.34890  0.13901  1.0000
  C   C402      1.0  0.76528  0.31876  0.13919  1.0000
  C   C403      1.0  0.77769  0.30472  0.12880  1.0000
  C   C404      1.0  0.80124  0.32061  0.11777  1.0000
  C   C405      1.0  0.81217  0.35062  0.11709  1.0000
  C   C406      1.0  0.80032  0.36470  0.12787  1.0000
  H   H403      1.0  0.74743  0.30640  0.14785  1.0000
  H   H404      1.0  0.76923  0.28152  0.12948  1.0000
  H   H405      1.0  0.83023  0.36310  0.10861  1.0000
  H   H406      1.0  0.80948  0.38800  0.12767  1.0000
  C   C407      1.0  0.67606  0.33122  0.24620  1.0000
  C   C408      1.0  0.70548  0.34070  0.24960  1.0000
  C   C409      1.0  0.71586  0.34337  0.26728  1.0000
  C   C410      1.0  0.69705  0.33626  0.28186  1.0000
  C   C411      1.0  0.66756  0.32653  0.27846  1.0000
  C   C412      1.0  0.65723  0.32421  0.26079  1.0000
  H   H407      1.0  0.72034  0.34628  0.23863  1.0000
  H   H408      1.0  0.73872  0.35097  0.26967  1.0000
  H   H409      1.0  0.65273  0.32090  0.28943  1.0000
  H   H410      1.0  0.63446  0.31700  0.25843  1.0000
  C   C413      1.0  0.68783  0.46562  0.12075  1.0000
  C   C414      1.0  0.70027  0.45786  0.13504  1.0000
  C   C415      1.0  0.68649  0.42983  0.14209  1.0000
  C   C416      1.0  0.65993  0.40957  0.13507  1.0000
  C   C417      1.0  0.64709  0.41769  0.12118  1.0000
  C   C418      1.0  0.66108  0.44550  0.11393  1.0000
  H   H411      1.0  0.72085  0.47341  0.14049  1.0000
  H   H412      1.0  0.69636  0.42392  0.15296  1.0000
  H   H413      1.0  0.62646  0.40219  0.11576  1.0000
  H   H414      1.0  0.65120  0.45126  0.10299  1.0000
  C   C419      1.0  0.61168  0.18057  0.03171  1.0000
  C   C420      1.0  0.63690  0.18336  0.02359  1.0000
  H   H415      1.0  0.69063  0.37165  0.11632  1.0000
  H   H416      1.0  0.80278  0.40841  0.04690  1.0000
  H   H417      1.0  0.65312  0.18062  0.03123  1.0000
  H   H418      1.0  0.71408  0.23997  0.07054  1.0000
  S   S144      1.0  0.52263  0.13084  0.03949  1.0000
  C   C421      1.0  0.55454  0.20745  0.11927  1.0000
  C   C422      1.0  0.56291  0.23290  0.12937  1.0000
  C   C423      1.0  0.58988  0.24581  0.13821  1.0000
  C   C424      1.0  0.60831  0.23290  0.13735  1.0000
  C   C425      1.0  0.59980  0.20735  0.12741  1.0000
  C   C426      1.0  0.57321  0.19486  0.11825  1.0000
  H   H419      1.0  0.54858  0.24275  0.13025  1.0000
  H   H420      1.0  0.59623  0.26554  0.14583  1.0000
  H   H421      1.0  0.61384  0.19712  0.12676  1.0000
  H   H422      1.0  0.56688  0.17511  0.11070  1.0000
  C   C427      1.0  0.67072  0.23312  0.07623  1.0000
  N   N34       1.0  0.67191  0.39844  0.32787  1.0000
  C   C428      1.0  0.59141  0.44184  0.02880  1.0000
  S   S145      1.0  0.52062  0.19145  0.10825  1.0000
  C   C429      1.0  0.80911  0.42644  0.03791  1.0000
  C   C430      1.0  0.70045  0.24461  0.07955  1.0000
  H   H423      1.0  0.92984  0.37009  0.12282  1.0000
  H   H424      1.0  0.78807  0.39983  0.01501  1.0000
  C   C431      1.0  0.92081  0.34835  0.11735  1.0000
  H   H425      1.0  0.65140  0.26044  0.11136  1.0000
  N   N35       1.0  0.83673  0.47719  0.03243  1.0000
  C   C432      1.0  0.87642  0.33679  0.13369  1.0000
  H   H426      1.0  0.83414  0.45790  0.05771  1.0000
  H   H427      1.0  0.93897  0.34150  0.02013  1.0000
  H   H428      1.0  0.75500  0.44238  0.32626  1.0000
  C   C433      1.0  0.92880  0.35158  0.01204  1.0000
  C   C434      1.0  0.99010  0.40628  0.07471  1.0000
  C   C435      1.0  0.68699  0.39247  0.31502  1.0000
  C   C436      1.0  0.92522  0.31381  0.09762  1.0000
  N   N36       1.0  0.60423  0.25740  0.21105  1.0000
  C   C437      1.0  0.59020  0.24363  0.19576  1.0000
  C   C438      1.0  0.62896  0.25634  0.21636  1.0000
  C   C439      1.0  0.60051  0.22776  0.18558  1.0000
  C   C440      1.0  0.64016  0.24110  0.20631  1.0000
  C   C441      1.0  0.62574  0.22665  0.19086  1.0000
  C   C442      1.0  0.59341  0.27461  0.22114  1.0000
  H   H429      1.0  0.57115  0.24520  0.19122  1.0000
  H   H430      1.0  0.64053  0.26779  0.22826  1.0000
  H   H431      1.0  0.58955  0.21710  0.17335  1.0000
  H   H432      1.0  0.66018  0.24098  0.21031  1.0000
  H   H433      1.0  0.63448  0.21527  0.18267  1.0000
  H   H434      1.0  0.56956  0.26297  0.22232  1.0000
  H   H435      1.0  0.60278  0.27957  0.23480  1.0000
  H   H436      1.0  0.59969  0.29555  0.21438  1.0000
  H   H437      1.0  0.52919  0.23193  0.03812  1.0000
  C   C443      1.0  0.88913  0.46086  0.01050  1.0000
  H   H438      1.0  0.63557  0.36008  0.33540  1.0000
  H   H439      1.0  0.61027  0.48770  0.02476  1.0000
  C   C444      1.0  0.69942  0.39158  0.10893  1.0000
  S   S146      1.0  0.64813  0.51097  0.08198  1.0000
  H   H440      1.0  0.64533  0.13116  0.03684  1.0000
  H   H441      1.0  0.76436  0.20222  0.03215  1.0000
  C   C445      1.0  0.71616  0.43597  0.33984  1.0000
  C   C446      1.0  0.80106  0.42162  0.02001  1.0000
  H   H442      1.0  0.85681  0.31774  0.13841  1.0000
  H   H443      1.0  0.61809  0.22783  0.06947  1.0000
  Fe  Fe72      1.0  0.55805  0.15691  0.05868  1.0000
  H   H444      1.0  0.67595  0.37486  0.30559  1.0000
  C   C447      1.0  0.62239  0.22642  0.08383  1.0000
  H   H445      1.0  0.61190  0.23745  0.09142  1.0000
  H   H446      1.0  0.66794  0.46620  0.01754  1.0000
  H   H447      1.0  0.57239  0.18441  0.02824  1.0000
  C   C448      1.0  0.89741  0.29356  0.10215  1.0000
  H   H448      1.0  0.70356  0.28070  0.11803  1.0000
  N   N37       1.0  0.65351  0.23917  0.08745  1.0000
  C   C449      1.0  0.88172  0.30126  0.11427  1.0000
  S   S147      1.0  0.54390  0.19133  0.06171  1.0000
  C   C450      1.0  0.57625  0.41460  0.02087  1.0000
  H   H449      1.0  0.95838  0.35747  0.10133  1.0000
  H   H450      1.0  0.75560  0.45799  0.10923  1.0000
  H   H451      1.0  0.86896  0.35084  0.12652  1.0000
  C   C451      1.0  0.69461  0.26758  0.10613  1.0000
  C   C452      1.0  0.71243  0.26197  0.09460  1.0000
  Fe  Fe73      1.0  0.68961  0.50786  0.08507  1.0000
  H   H452      1.0  0.85981  0.28559  0.11735  1.0000
  S   S148      1.0  0.72701  0.50949  0.02170  1.0000
  H   H453      1.0  0.93735  0.30848  0.08781  1.0000
  C   C453      1.0  0.69403  0.42005  0.08543  1.0000
  C   C454      1.0  0.80018  0.26777  0.01240  1.0000
  C   C455      1.0  0.68354  0.39410  0.09460  1.0000
  H   H454      1.0  0.88932  0.34854  0.14555  1.0000
  C   C456      1.0  0.73560  0.43977  0.10501  1.0000
  C   C457      1.0  0.72027  0.44305  0.09061  1.0000
  C   C458      1.0  0.59142  0.18548  0.02192  1.0000
  C   C459      1.0  0.74115  0.41128  0.12922  1.0000
  N   N38       1.0  0.72489  0.41438  0.11412  1.0000
  H   H455      1.0  0.66271  0.37640  0.09110  1.0000
  H   H456      1.0  0.68146  0.42258  0.07467  1.0000
  N   N39       1.0  0.67264  0.09764  0.00963  1.0000
  C   C460      1.0  0.63639  0.41005  0.01065  1.0000
  C   C461      1.0  0.93707  0.34138  0.10525  1.0000
  H   H457      1.0  0.61199  0.20324  0.08749  1.0000
  H   H458      1.0  0.73546  0.27094  0.09739  1.0000
  C   C462      1.0  0.68612  0.41971  0.34028  1.0000
  H   H459      1.0  0.72885  0.40323  0.30403  1.0000
  H   H460      1.0  0.56982  0.39533  0.02873  1.0000
  N   N40       1.0  0.89352  0.32835  0.12174  1.0000
  H   H461      1.0  0.71846  0.11384  0.01207  1.0000
  H   H462      1.0  0.66141  0.21930  0.06463  1.0000
  C   C463      1.0  0.73165  0.43035  0.32658  1.0000
  C   C464      1.0  0.61998  0.09371  0.02057  1.0000
  H   H463      1.0  0.69204  0.13484  0.02659  1.0000
  C   C465      1.0  0.64054  0.38085  0.32883  1.0000
  C   C466      1.0  0.71701  0.40849  0.31408  1.0000
  C   C467      1.0  0.82824  0.47274  0.01499  1.0000
  S   S149      1.0  0.70661  0.50016  0.11124  1.0000
  H   H464      1.0  0.54083  0.28287  0.03183  1.0000
  H   H465      1.0  0.63355  0.41671  0.02429  1.0000
  C   C468      1.0  0.64575  0.11540  0.02747  1.0000
  H   H466      1.0  0.59950  0.09264  0.02457  1.0000
  C   C469      1.0  0.67208  0.11721  0.02171  1.0000
  C   C470      1.0  0.51943  0.23690  0.02679  1.0000
  H   H467      1.0  0.95928  0.39460  0.01976  1.0000
  H   H468      1.0  0.00709  0.36289  0.04853  1.0000
  C   C471      1.0  0.94023  0.38170  0.01175  1.0000
  H   H469      1.0  0.53724  0.44287  0.01546  1.0000
  H   H470      1.0  0.86687  0.50645  0.05144  1.0000
  Fe  Fe74      1.0  0.51797  0.16401  0.08416  1.0000
  H   H471      1.0  0.63035  0.39179  0.33680  1.0000
  H   H472      1.0  0.92846  0.43146  0.01522  1.0000
  C   C472      1.0  0.85604  0.50651  0.03870  1.0000
  C   C473      1.0  0.55629  0.50144  0.46036  1.0000
  S   S150      1.0  0.56596  0.42765  0.54998  1.0000
  S   S151      1.0  0.55098  0.34671  0.55373  1.0000
  Fe  Fe75      1.0  0.69642  0.17935  0.58612  1.0000
  S   S152      1.0  0.70210  0.14418  0.57140  1.0000
  S   S153      1.0  0.72489  0.20892  0.60784  1.0000
  Fe  Fe76      1.0  0.65227  0.17908  0.56024  1.0000
  S   S154      1.0  0.65439  0.14490  0.54313  1.0000
  S   S155      1.0  0.62259  0.19792  0.55313  1.0000
  Fe  Fe77      1.0  0.65353  0.12222  0.56849  1.0000
  S   S156      1.0  0.61832  0.07538  0.56885  1.0000
  Fe  Fe78      1.0  0.70232  0.16911  0.54699  1.0000
  S   S157      1.0  0.73244  0.17497  0.52396  1.0000
  S   S158      1.0  0.64800  0.15540  0.58551  1.0000
  S   S159      1.0  0.70004  0.20537  0.56187  1.0000
  S   S160      1.0  0.54398  0.18352  0.46501  1.0000
  S   S161      1.0  0.60101  0.15810  0.47337  1.0000
  Fe  Fe79      1.0  0.66570  0.28884  0.36290  1.0000
  S   S162      1.0  0.64283  0.24227  0.37166  1.0000
  Fe  Fe80      1.0  0.72387  0.33993  0.37043  1.0000
  S   S163      1.0  0.76382  0.35954  0.38797  1.0000
  Fe  Fe81      1.0  0.67072  0.34923  0.36472  1.0000
  S   S164      1.0  0.64802  0.37513  0.37414  1.0000
  S   S165      1.0  0.68131  0.32305  0.38414  1.0000
  S   S166      1.0  0.67347  0.47295  0.46885  1.0000
  Fe  Fe82      1.0  0.63726  0.48439  0.46529  1.0000
  S   S167      1.0  0.59078  0.45314  0.46853  1.0000
  S   S168      1.0  0.70937  0.30404  0.35027  1.0000
  S   S169      1.0  0.70115  0.34021  0.64378  1.0000
  S   S170      1.0  0.65602  0.37942  0.63562  1.0000
  S   S171      1.0  0.78161  0.38908  0.65292  1.0000
  S   S172      1.0  0.66363  0.26087  0.65947  1.0000
  C   C474      1.0  0.93881  0.44088  0.50260  1.0000
  S   S173      1.0  0.84486  0.43235  0.54532  1.0000
  Fe  Fe83      1.0  0.55525  0.14701  0.46629  1.0000
  Fe  Fe84      1.0  0.85965  0.31858  0.48571  1.0000
  S   S174      1.0  0.84097  0.33702  0.46562  1.0000
  S   S175      1.0  0.83481  0.29999  0.51100  1.0000
  Fe  Fe85      1.0  0.91966  0.34505  0.46776  1.0000
  S   S176      1.0  0.90510  0.36486  0.44589  1.0000
  S   S177      1.0  0.96556  0.35347  0.47553  1.0000
  Fe  Fe86      1.0  0.88302  0.37699  0.46737  1.0000
  S   S178      1.0  0.88503  0.42092  0.46840  1.0000
  Fe  Fe87      1.0  0.86370  0.32312  0.44545  1.0000
  S   S179      1.0  0.83923  0.30365  0.41972  1.0000
  S   S180      1.0  0.90004  0.36032  0.48932  1.0000
  S   S181      1.0  0.87999  0.30147  0.46553  1.0000
  C   C475      1.0  0.59194  0.01615  0.56804  1.0000
  H   H473      1.0  0.60394  0.24672  0.64326  1.0000
  H   H474      1.0  0.59426  0.26540  0.62615  1.0000
  H   H475      1.0  0.98305  0.37929  0.44028  1.0000
  Fe  Fe88      1.0  0.73581  0.36748  0.66315  1.0000
  C   C476      1.0  0.86998  0.42341  0.48868  1.0000
  C   C477      1.0  0.85769  0.39935  0.49968  1.0000
  C   C478      1.0  0.84883  0.40203  0.51680  1.0000
  C   C479      1.0  0.85261  0.42888  0.52309  1.0000
  C   C480      1.0  0.86379  0.45271  0.51184  1.0000
  C   C481      1.0  0.87239  0.44998  0.49460  1.0000
  H   H476      1.0  0.85529  0.37863  0.49517  1.0000
  H   H477      1.0  0.83986  0.38341  0.52535  1.0000
  H   H478      1.0  0.86598  0.47326  0.51640  1.0000
  H   H479      1.0  0.88176  0.46861  0.48610  1.0000
  C   C482      1.0  0.79421  0.42145  0.64084  1.0000
  C   C483      1.0  0.81818  0.42924  0.62978  1.0000
  C   C484      1.0  0.82928  0.45523  0.62031  1.0000
  C   C485      1.0  0.81716  0.47417  0.62235  1.0000
  C   C486      1.0  0.79347  0.46659  0.63367  1.0000
  C   C487      1.0  0.78164  0.44006  0.64260  1.0000
  H   H480      1.0  0.82816  0.41505  0.62844  1.0000
  H   H481      1.0  0.84761  0.46088  0.61172  1.0000
  H   H482      1.0  0.78395  0.48113  0.63529  1.0000
  C   C488      1.0  0.77916  0.33941  0.39843  1.0000
  C   C489      1.0  0.79528  0.35071  0.41405  1.0000
  C   C490      1.0  0.81235  0.33873  0.42117  1.0000
  C   C491      1.0  0.81374  0.31540  0.41270  1.0000
  C   C492      1.0  0.79651  0.30312  0.39749  1.0000
  C   C493      1.0  0.77910  0.31499  0.39040  1.0000
  H   H483      1.0  0.79548  0.36960  0.42032  1.0000
  H   H484      1.0  0.82558  0.34858  0.43271  1.0000
  H   H485      1.0  0.79746  0.28507  0.39082  1.0000
  H   H486      1.0  0.76696  0.30626  0.37823  1.0000
  C   C494      1.0  0.66659  0.40423  0.38919  1.0000
  C   C495      1.0  0.65142  0.41700  0.39797  1.0000
  C   C496      1.0  0.66589  0.44084  0.40953  1.0000
  C   C497      1.0  0.69578  0.45244  0.41211  1.0000
  C   C498      1.0  0.71091  0.43967  0.40330  1.0000
  C   C499      1.0  0.69637  0.41553  0.39201  1.0000
  H   H487      1.0  0.62841  0.40850  0.39577  1.0000
  H   H488      1.0  0.65405  0.45062  0.41614  1.0000
  H   H489      1.0  0.73400  0.44846  0.40524  1.0000
  H   H490      1.0  0.70829  0.40587  0.38536  1.0000
  C   C500      1.0  0.56045  0.20797  0.40488  1.0000
  C   C501      1.0  0.57632  0.19240  0.40343  1.0000
  C   C502      1.0  0.60127  0.20296  0.39295  1.0000
  C   C503      1.0  0.61094  0.22946  0.38423  1.0000
  C   C504      1.0  0.59539  0.24531  0.38595  1.0000
  C   C505      1.0  0.56998  0.23436  0.39604  1.0000
  H   H491      1.0  0.56919  0.17204  0.41015  1.0000
  H   H492      1.0  0.61330  0.19067  0.39173  1.0000
  H   H493      1.0  0.60266  0.26575  0.37927  1.0000
  H   H494      1.0  0.55775  0.24646  0.39706  1.0000
  C   C506      1.0  0.61851  0.04129  0.56760  1.0000
  C   C507      1.0  0.64392  0.03852  0.56585  1.0000
  H   H495      1.0  0.57142  0.27528  0.51979  1.0000
  H   H496      1.0  0.66452  0.05765  0.56553  1.0000
  H   H497      1.0  0.89659  0.41246  0.42583  1.0000
  C   C508      1.0  0.75898  0.21026  0.51873  1.0000
  C   C509      1.0  0.78022  0.21408  0.50613  1.0000
  C   C510      1.0  0.80268  0.24182  0.50268  1.0000
  C   C511      1.0  0.80404  0.26592  0.51186  1.0000
  C   C512      1.0  0.78225  0.26215  0.52399  1.0000
  C   C513      1.0  0.75986  0.23453  0.52739  1.0000
  H   H498      1.0  0.77969  0.19547  0.49929  1.0000
  H   H499      1.0  0.81951  0.24441  0.49342  1.0000
  H   H500      1.0  0.78307  0.28067  0.53109  1.0000
  H   H501      1.0  0.74352  0.23211  0.53687  1.0000
  C   C514      1.0  0.70781  0.22356  0.62201  1.0000
  C   C515      1.0  0.67892  0.20726  0.62672  1.0000
  C   C516      1.0  0.66587  0.21880  0.63849  1.0000
  C   C517      1.0  0.68134  0.24697  0.64530  1.0000
  C   C518      1.0  0.71010  0.26356  0.64034  1.0000
  C   C519      1.0  0.72341  0.25170  0.62892  1.0000
  H   H502      1.0  0.66683  0.18542  0.62170  1.0000
  H   H503      1.0  0.64366  0.20582  0.64232  1.0000
  H   H504      1.0  0.72222  0.28527  0.64557  1.0000
  H   H505      1.0  0.74582  0.26436  0.62544  1.0000
  C   C520      1.0  0.61769  0.19201  0.53022  1.0000
  C   C521      1.0  0.64040  0.19294  0.51994  1.0000
  C   C522      1.0  0.63559  0.18389  0.50215  1.0000
  C   C523      1.0  0.60795  0.17351  0.49472  1.0000
  C   C524      1.0  0.58557  0.17402  0.50473  1.0000
  C   C525      1.0  0.59048  0.18341  0.52250  1.0000
  H   H506      1.0  0.66163  0.20011  0.52581  1.0000
  H   H507      1.0  0.65318  0.18436  0.49436  1.0000
  H   H508      1.0  0.56422  0.16629  0.49905  1.0000
  H   H509      1.0  0.57284  0.18248  0.53047  1.0000
  C   C526      1.0  0.57242  0.43592  0.52745  1.0000
  C   C527      1.0  0.54973  0.42514  0.51502  1.0000
  C   C528      1.0  0.55536  0.43071  0.49690  1.0000
  C   C529      1.0  0.58369  0.44705  0.49120  1.0000
  C   C530      1.0  0.60638  0.45786  0.50362  1.0000
  C   C531      1.0  0.60071  0.45260  0.52174  1.0000
  H   H510      1.0  0.57703  0.35604  0.50888  1.0000
  H   H511      1.0  0.53778  0.42224  0.48733  1.0000
  H   H512      1.0  0.62841  0.46974  0.49931  1.0000
  H   H513      1.0  0.61832  0.46075  0.53131  1.0000
  C   C532      1.0  0.56750  0.32735  0.60846  1.0000
  C   C533      1.0  0.58598  0.35546  0.60314  1.0000
  C   C534      1.0  0.61302  0.37106  0.61156  1.0000
  C   C535      1.0  0.62192  0.35873  0.62533  1.0000
  C   C536      1.0  0.60352  0.33056  0.63060  1.0000
  C   C537      1.0  0.57641  0.31495  0.62219  1.0000
  H   H514      1.0  0.57932  0.36534  0.59268  1.0000
  H   H515      1.0  0.62701  0.39289  0.60747  1.0000
  H   H516      1.0  0.60991  0.32111  0.64143  1.0000
  H   H517      1.0  0.56207  0.29338  0.62654  1.0000
  C   C538      1.0  0.99944  0.37714  0.46623  1.0000
  Fe  Fe89      1.0  0.67545  0.36064  0.65563  1.0000
  C   C539      1.0  0.66867  0.11922  0.50020  1.0000
  H   H518      1.0  0.76325  0.43436  0.65115  1.0000
  C   C540      1.0  0.76643  0.43684  0.59396  1.0000
  C   C541      1.0  0.76041  0.46046  0.59382  1.0000
  C   C542      1.0  0.73636  0.45881  0.60285  1.0000
  H   H519      1.0  0.78561  0.43865  0.58727  1.0000
  N   N41       1.0  0.93800  0.42755  0.51833  1.0000
  H   H520      1.0  0.93355  0.43473  0.54580  1.0000
  H   H521      1.0  0.87852  0.43361  0.42049  1.0000
  C   C543      1.0  0.95197  0.41086  0.52008  1.0000
  S   S182      1.0  0.71158  0.39033  0.67374  1.0000
  N   N42       1.0  0.74923  0.41244  0.60312  1.0000
  C   C544      1.0  0.87563  0.41115  0.42136  1.0000
  H   H522      1.0  0.55030  0.36801  0.50378  1.0000
  H   H523      1.0  0.82220  0.38925  0.36941  1.0000
  H   H524      1.0  0.88611  0.36847  0.40914  1.0000
  H   H525      1.0  0.69970  0.43193  0.61885  1.0000
  C   C545      1.0  0.74623  0.47210  0.48546  1.0000
  H   H526      1.0  0.57216  0.01802  0.56944  1.0000
  C   C546      1.0  0.66744  0.26009  0.60141  1.0000
  C   C547      1.0  0.62358  0.21542  0.59864  1.0000
  H   H527      1.0  0.66226  0.22493  0.58402  1.0000
  C   C548      1.0  0.61834  0.10719  0.50351  1.0000
  C   C549      1.0  0.95391  0.43772  0.48812  1.0000
  C   C550      1.0  0.61087  0.22563  0.61138  1.0000
  N   N43       1.0  0.79311  0.22984  0.56668  1.0000
  C   C551      1.0  0.81481  0.23655  0.55467  1.0000
  C   C552      1.0  0.78845  0.25117  0.57452  1.0000
  C   C553      1.0  0.83313  0.26533  0.55063  1.0000
  C   C554      1.0  0.80615  0.28020  0.57060  1.0000
  C   C555      1.0  0.82859  0.28725  0.55854  1.0000
  C   C556      1.0  0.77376  0.19948  0.57024  1.0000
  H   H528      1.0  0.81752  0.21957  0.54776  1.0000
  H   H529      1.0  0.77074  0.24579  0.58370  1.0000
  H   H530      1.0  0.84971  0.27057  0.54065  1.0000
  H   H531      1.0  0.84181  0.30953  0.55477  1.0000
  H   H532      1.0  0.76131  0.19693  0.58263  1.0000
  H   H533      1.0  0.75834  0.19010  0.55896  1.0000
  H   H534      1.0  0.78615  0.18698  0.57186  1.0000
  N   N44       1.0  0.57911  0.37214  0.48285  1.0000
  C   C557      1.0  0.56162  0.34854  0.47277  1.0000
  C   C558      1.0  0.60223  0.39470  0.47538  1.0000
  N   N45       1.0  0.54999  0.25758  0.54402  1.0000
  C   C559      1.0  0.60805  0.39420  0.45729  1.0000
  C   C560      1.0  0.59031  0.37025  0.44689  1.0000
  S   S183      1.0  0.83125  0.49487  0.56119  1.0000
  C   C561      1.0  0.80556  0.49222  0.48464  1.0000
  H   H535      1.0  0.61603  0.41353  0.48329  1.0000
  H   H536      1.0  0.63751  0.07032  0.53276  1.0000
  H   H537      1.0  0.62602  0.41244  0.45134  1.0000
  H   H538      1.0  0.91471  0.44748  0.53119  1.0000
  H   H539      1.0  0.56986  0.06926  0.51795  1.0000
  H   H540      1.0  0.86735  0.33984  0.38166  1.0000
  H   H541      1.0  0.84124  0.41735  0.39716  1.0000
  N   N46       1.0  0.86617  0.39575  0.40430  1.0000
  C   C562      1.0  0.51967  0.20690  0.54826  1.0000
  H   H542      1.0  0.83527  0.35027  0.36146  1.0000
  H   H543      1.0  0.58884  0.21190  0.61534  1.0000
  C   C563      1.0  0.61222  0.26250  0.63228  1.0000
  H   H544      1.0  0.85933  0.39974  0.43172  1.0000
  H   H545      1.0  0.97982  0.41789  0.47863  1.0000
  H   H546      1.0  0.54533  0.28619  0.56282  1.0000
  C   C564      1.0  0.87332  0.37417  0.40006  1.0000
  Fe  Fe90      1.0  0.68387  0.30863  0.66588  1.0000
  C   C565      1.0  0.80585  0.47446  0.51467  1.0000
  H   H547      1.0  0.80773  0.45416  0.51280  1.0000
  H   H548      1.0  0.74270  0.37178  0.59295  1.0000
  S   S184      1.0  0.71511  0.48326  0.42581  1.0000
  H   H549      1.0  0.62769  0.28338  0.63847  1.0000
  H   H550      1.0  0.70598  0.29194  0.40899  1.0000
  N   N47       1.0  0.61587  0.08836  0.51677  1.0000
  C   C566      1.0  0.63918  0.08445  0.52183  1.0000
  H   H551      1.0  0.52003  0.43590  0.57516  1.0000
  H   H552      1.0  0.53721  0.27061  0.48530  1.0000
  Fe  Fe91      1.0  0.53588  0.38069  0.55335  1.0000
  H   H553      1.0  0.54335  0.33060  0.47872  1.0000
  Fe  Fe92      1.0  0.86278  0.47806  0.55523  1.0000
  H   H554      1.0  0.80314  0.50671  0.45811  1.0000
  S   S185      1.0  0.88681  0.49253  0.58107  1.0000
  N   N48       1.0  0.79056  0.47893  0.49951  1.0000
  H   H555      1.0  0.79447  0.47325  0.52730  1.0000
  N   N49       1.0  0.62612  0.25245  0.61892  1.0000
  S   S186      1.0  0.52334  0.30201  0.51151  1.0000
  H   H556      1.0  0.92733  0.45365  0.50103  1.0000
  H   H557      1.0  0.75121  0.37742  0.61649  1.0000
  H   H558      1.0  0.82786  0.49282  0.51625  1.0000
  H   H559      1.0  0.82881  0.50032  0.48428  1.0000
  C   C567      1.0  0.76134  0.48577  0.47027  1.0000
  C   C568      1.0  0.57283  0.28090  0.53417  1.0000
  S   S187      1.0  0.53327  0.30720  0.59818  1.0000
  C   C569      1.0  0.66595  0.09994  0.51370  1.0000
  C   C570      1.0  0.76124  0.46869  0.50000  1.0000
  H   H560      1.0  0.58694  0.39398  0.50814  1.0000
  H   H561      1.0  0.74993  0.48865  0.45891  1.0000
  S   S188      1.0  0.53665  0.12881  0.43957  1.0000
  C   C571      1.0  0.54141  0.22947  0.53901  1.0000
  C   C572      1.0  0.56696  0.34720  0.45466  1.0000
  H   H562      1.0  0.73174  0.47716  0.60310  1.0000
  C   C573      1.0  0.52165  0.25505  0.49412  1.0000
  C   C574      1.0  0.57318  0.37267  0.50183  1.0000
  H   H563      1.0  0.95071  0.39965  0.53237  1.0000
  C   C575      1.0  0.65399  0.26972  0.61399  1.0000
  H   H564      1.0  0.95362  0.44754  0.47551  1.0000
  C   C576      1.0  0.58888  0.07439  0.52669  1.0000
  H   H565      1.0  0.68984  0.27335  0.59801  1.0000
  H   H566      1.0  0.52779  0.41283  0.51932  1.0000
  C   C577      1.0  0.00214  0.38615  0.44858  1.0000
  H   H567      1.0  0.66629  0.29066  0.62025  1.0000
  C   C578      1.0  0.83746  0.38560  0.37760  1.0000
  H   H568      1.0  0.58914  0.08901  0.53764  1.0000
  H   H569      1.0  0.81224  0.46593  0.67460  1.0000
  C   C579      1.0  0.92100  0.42991  0.53317  1.0000
  C   C580      1.0  0.65206  0.23279  0.59369  1.0000
  H   H570      1.0  0.58630  0.05393  0.53278  1.0000
  C   C581      1.0  0.84829  0.40141  0.39337  1.0000
  N   N50       1.0  0.67543  0.25265  0.42054  1.0000
  C   C582      1.0  0.67551  0.23196  0.43166  1.0000
  C   C583      1.0  0.65195  0.25789  0.41973  1.0000
  C   C584      1.0  0.65177  0.21619  0.44249  1.0000
  C   C585      1.0  0.62791  0.24259  0.43041  1.0000
  C   C586      1.0  0.62784  0.22155  0.44182  1.0000
  C   C587      1.0  0.69996  0.26849  0.40882  1.0000
  H   H571      1.0  0.69389  0.22742  0.43215  1.0000
  H   H572      1.0  0.65143  0.27351  0.41045  1.0000
  H   H573      1.0  0.65170  0.19970  0.45129  1.0000
  H   H574      1.0  0.60910  0.24642  0.42946  1.0000
  H   H575      1.0  0.60916  0.20914  0.44997  1.0000
  H   H576      1.0  0.71950  0.26643  0.41293  1.0000
  H   H577      1.0  0.69411  0.26018  0.39496  1.0000
  H   H578      1.0  0.97816  0.39376  0.50715  1.0000
  H   H579      1.0  0.64644  0.13754  0.48443  1.0000
  C   C588      1.0  0.86277  0.35786  0.38445  1.0000
  H   H580      1.0  0.80211  0.29703  0.57659  1.0000
  S   S189      1.0  0.71447  0.36888  0.35237  1.0000
  Fe  Fe93      1.0  0.69170  0.49951  0.44458  1.0000
  H   H581      1.0  0.59429  0.28488  0.53948  1.0000
  C   C589      1.0  0.75581  0.38786  0.60325  1.0000
  C   C590      1.0  0.71853  0.43358  0.61177  1.0000
  H   H582      1.0  0.71138  0.39101  0.61882  1.0000
  H   H583      1.0  0.61157  0.19413  0.59265  1.0000
  C   C591      1.0  0.72528  0.41043  0.61172  1.0000
  H   H584      1.0  0.57056  0.30113  0.53512  1.0000
  C   C592      1.0  0.64463  0.12253  0.49486  1.0000
  C   C593      1.0  0.96759  0.40752  0.50593  1.0000
  H   H585      1.0  0.68473  0.09787  0.51828  1.0000
  S   S190      1.0  0.52822  0.19457  0.41714  1.0000
  H   H586      1.0  0.60018  0.11104  0.49981  1.0000
  H   H587      1.0  0.77909  0.39485  0.60073  1.0000
  C   C594      1.0  0.84468  0.36362  0.37319  1.0000
  S   S191      1.0  0.65120  0.31341  0.34412  1.0000
  H   H588      1.0  0.55298  0.32844  0.44673  1.0000
  C   C595      1.0  0.96848  0.42102  0.48985  1.0000
  C   C596      1.0  0.53818  0.26396  0.55856  1.0000
  H   H589      1.0  0.74933  0.45838  0.51183  1.0000
  H   H590      1.0  0.68957  0.13213  0.49425  1.0000
  H   H591      1.0  0.72312  0.46470  0.48612  1.0000
  H   H592      1.0  0.90083  0.40936  0.53450  1.0000
  H   H593      1.0  0.52190  0.21860  0.48053  1.0000
  H   H594      1.0  0.77493  0.48028  0.58727  1.0000
  C   C597      1.0  0.79120  0.49592  0.46983  1.0000
  S   S192      1.0  0.65313  0.50727  0.43959  1.0000
  H   H595      1.0  0.59463  0.36965  0.43284  1.0000
  Fe  Fe94      1.0  0.52218  0.16327  0.43934  1.0000
  H   H596      1.0  0.55074  0.22433  0.52748  1.0000
  H   H597      1.0  0.55360  0.48322  0.46847  1.0000
  Fe  Fe95      1.0  0.51988  0.32803  0.57601  1.0000
  H   H598      1.0  0.72731  0.45234  0.34996  1.0000
  H   H599      1.0  0.59233  0.50219  0.44606  1.0000
  H   H600      1.0  0.83036  0.44435  0.67104  1.0000
  H   H601      1.0  0.67433  0.42385  0.35085  1.0000
  S   S193      1.0  0.83055  0.50702  0.61067  1.0000
  H   H602      1.0  0.52140  0.50662  0.47246  1.0000
  H   H603      1.0  0.74555  0.50730  0.54064  1.0000
  C   C598      1.0  0.51640  0.24195  0.56812  1.0000
  S   S194      1.0  0.51584  0.11765  0.48143  1.0000
  C   C599      1.0  0.55275  0.37840  0.86959  1.0000
  H   H604      1.0  0.75238  0.30916  0.90574  1.0000
  S   S195      1.0  0.55017  0.35156  0.96333  1.0000
  S   S196      1.0  0.84215  0.48919  0.96796  1.0000
  C   C600      1.0  0.84134  0.48469  0.87183  1.0000
  S   S197      1.0  0.87792  0.43982  0.97636  1.0000
  Fe  Fe96      1.0  0.64812  0.17004  0.96478  1.0000
  S   S198      1.0  0.65364  0.13865  0.98243  1.0000
  S   S199      1.0  0.62094  0.19167  0.97207  1.0000
  Fe  Fe97      1.0  0.68825  0.16734  0.93750  1.0000
  S   S200      1.0  0.69787  0.13536  0.95306  1.0000
  S   S201      1.0  0.70942  0.19178  0.91257  1.0000
  Fe  Fe98      1.0  0.64966  0.11219  0.95788  1.0000
  S   S202      1.0  0.61542  0.06505  0.96163  1.0000
  Fe  Fe99      1.0  0.70086  0.16375  0.97667  1.0000
  C   C601      1.0  0.57876  0.43692  0.99236  1.0000
  S   S203      1.0  0.64016  0.14224  0.94057  1.0000
  S   S204      1.0  0.69523  0.19697  0.96081  1.0000
  C   C602      1.0  0.76496  0.23192  0.99205  1.0000
  Fe  Fe100     1.0  0.69362  0.35476  0.69412  1.0000
  C   C603      1.0  0.88735  0.48991  0.89295  1.0000
  S   S205      1.0  0.69014  0.36920  0.72265  1.0000
  H   H605      1.0  0.75423  0.28022  0.91748  1.0000
  Fe  Fe101     1.0  0.88175  0.48259  0.96784  1.0000
  H   H606      1.0  0.65486  0.27238  0.81681  1.0000
  C   C604      1.0  0.57098  0.37422  0.85757  1.0000
  Fe  Fe102     1.0  0.66637  0.35642  0.86064  1.0000
  S   S206      1.0  0.68346  0.33826  0.88178  1.0000
  S   S207      1.0  0.64052  0.37902  0.87015  1.0000
  Fe  Fe103     1.0  0.69236  0.33659  0.83007  1.0000
  S   S208      1.0  0.71171  0.31713  0.84953  1.0000
  S   S209      1.0  0.69763  0.32498  0.80117  1.0000
  Fe  Fe104     1.0  0.66971  0.30001  0.86365  1.0000
  S   S210      1.0  0.64511  0.25502  0.87439  1.0000
  Fe  Fe105     1.0  0.72441  0.35717  0.86626  1.0000
  S   S211      1.0  0.76630  0.37352  0.88205  1.0000
  S   S212      1.0  0.64894  0.31641  0.84345  1.0000
  S   S213      1.0  0.70868  0.37845  0.84589  1.0000
  C   C605      1.0  0.63369  0.02428  0.95085  1.0000
  C   C606      1.0  0.69185  0.35614  0.74433  1.0000
  C   C607      1.0  0.68834  0.37062  0.75932  1.0000
  C   C608      1.0  0.68991  0.36146  0.77676  1.0000
  C   C609      1.0  0.69517  0.33767  0.77949  1.0000
  C   C610      1.0  0.69879  0.32325  0.76450  1.0000
  C   C611      1.0  0.69711  0.33235  0.74706  1.0000
  H   H607      1.0  0.68429  0.38907  0.75743  1.0000
  H   H608      1.0  0.68713  0.37288  0.78807  1.0000
  H   H609      1.0  0.70285  0.30482  0.76637  1.0000
  H   H610      1.0  0.69978  0.32086  0.73575  1.0000
  C   C612      1.0  0.61171  0.02951  0.95802  1.0000
  H   H611      1.0  0.84851  0.39055  0.99827  1.0000
  N   N51       1.0  0.56580  0.34693  0.85251  1.0000
  H   H612      1.0  0.83574  0.49073  0.00596  1.0000
  H   H613      1.0  0.55964  0.16964  0.96175  1.0000
  C   C613      1.0  0.69167  0.20962  0.90209  1.0000
  C   C614      1.0  0.66189  0.19944  0.90371  1.0000
  C   C615      1.0  0.64796  0.21363  0.89517  1.0000
  C   C616      1.0  0.66378  0.23859  0.88533  1.0000
  C   C617      1.0  0.69369  0.24916  0.88387  1.0000
  C   C618      1.0  0.70751  0.23435  0.89196  1.0000
  H   H614      1.0  0.64940  0.18024  0.91124  1.0000
  H   H615      1.0  0.62481  0.20525  0.89628  1.0000
  H   H616      1.0  0.70605  0.26831  0.87620  1.0000
  H   H617      1.0  0.73055  0.24224  0.89055  1.0000
  H   H618      1.0  0.63499  0.25295  0.93267  1.0000
  H   H619      1.0  0.55973  0.39098  0.99649  1.0000
  C   C619      1.0  0.78339  0.38478  0.70640  1.0000
  H   H620      1.0  0.53152  0.19376  0.99039  1.0000
  C   C620      1.0  0.59351  0.46420  0.00032  1.0000
  S   S214      1.0  0.89330  0.49719  0.93994  1.0000
  C   C621      1.0  0.76308  0.39000  0.71569  1.0000
  C   C622      1.0  0.80595  0.46221  0.90997  1.0000
  C   C623      1.0  0.78319  0.45488  0.89769  1.0000
  C   C624      1.0  0.77023  0.42744  0.88945  1.0000
  C   C625      1.0  0.78020  0.40723  0.89328  1.0000
  C   C626      1.0  0.80270  0.41442  0.90575  1.0000
  C   C627      1.0  0.81538  0.44171  0.91419  1.0000
  H   H621      1.0  0.77574  0.47061  0.89440  1.0000
  H   H622      1.0  0.75288  0.42213  0.87988  1.0000
  H   H623      1.0  0.81052  0.39889  0.90880  1.0000
  H   H624      1.0  0.83288  0.44711  0.92363  1.0000
  C   C628      1.0  0.51830  0.10885  0.99495  1.0000
  H   H625      1.0  0.62104  0.40614  0.97635  1.0000
  H   H626      1.0  0.74578  0.41996  0.72040  1.0000
  H   H627      1.0  0.76002  0.31292  0.92933  1.0000
  H   H628      1.0  0.74791  0.37370  0.72442  1.0000
  N   N52       1.0  0.66885  0.24366  0.82886  1.0000
  H   H629      1.0  0.78013  0.45678  0.70018  1.0000
  H   H630      1.0  0.89325  0.31126  0.00352  1.0000
  C   C629      1.0  0.56362  0.33297  0.90711  1.0000
  C   C630      1.0  0.57400  0.31694  0.89696  1.0000
  C   C631      1.0  0.59899  0.33091  0.88665  1.0000
  C   C632      1.0  0.61330  0.36108  0.88599  1.0000
  C   C633      1.0  0.60360  0.37711  0.89668  1.0000
  C   C634      1.0  0.57908  0.36312  0.90741  1.0000
  H   H631      1.0  0.56220  0.29362  0.89671  1.0000
  H   H632      1.0  0.60634  0.31831  0.87856  1.0000
  H   H633      1.0  0.61460  0.40045  0.89627  1.0000
  H   H634      1.0  0.57124  0.37568  0.91514  1.0000
  C   C635      1.0  0.64589  0.25070  0.82300  1.0000
  H   H635      1.0  0.59391  0.32876  0.84645  1.0000
  C   C636      1.0  0.84691  0.46103  0.87374  1.0000
  C   C637      1.0  0.68417  0.21495  0.84674  1.0000
  C   C638      1.0  0.52406  0.32677  0.87119  1.0000
  H   H636      1.0  0.67941  0.19858  0.85680  1.0000
  C   C639      1.0  0.90197  0.37807  0.99283  1.0000
  N   N53       1.0  0.52596  0.15309  0.98089  1.0000
  H   H637      1.0  0.68189  0.50659  0.99668  1.0000
  H   H638      1.0  0.59996  0.48342  0.99243  1.0000
  H   H639      1.0  0.70070  0.27448  0.81203  1.0000
  C   C640      1.0  0.61936  0.19139  0.99529  1.0000
  H   H640      1.0  0.78397  0.36430  0.70776  1.0000
  C   C641      1.0  0.54263  0.32337  0.85909  1.0000
  H   H641      1.0  0.81783  0.40142  0.68759  1.0000
  H   H642      1.0  0.87408  0.44509  0.88627  1.0000
  C   C642      1.0  0.55485  0.12973  0.97259  1.0000
  H   H643      1.0  0.84078  0.46916  0.68972  1.0000
  H   H644      1.0  0.75429  0.49761  0.99227  1.0000
  C   C643      1.0  0.62078  0.07400  0.00817  1.0000
  H   H645      1.0  0.86942  0.33489  0.98619  1.0000
  H   H646      1.0  0.58997  0.39287  0.85291  1.0000
  H   H647      1.0  0.57248  0.12972  0.96492  1.0000
  H   H648      1.0  0.55753  0.39999  0.87409  1.0000
  H   H649      1.0  0.79307  0.27616  0.98530  1.0000
  H   H650      1.0  0.90499  0.49156  0.90141  1.0000
  H   H651      1.0  0.54598  0.09047  0.98633  1.0000
  H   H652      1.0  0.52369  0.45085  0.97318  1.0000
  C   C644      1.0  0.66056  0.46162  0.00384  1.0000
  N   N54       1.0  0.71642  0.28523  0.92248  1.0000
  C   C645      1.0  0.70077  0.29854  0.91629  1.0000
  C   C646      1.0  0.70366  0.26117  0.93278  1.0000
  C   C647      1.0  0.67124  0.28710  0.91979  1.0000
  C   C648      1.0  0.67424  0.24935  0.93671  1.0000
  C   C649      1.0  0.65794  0.26230  0.93004  1.0000
  C   C650      1.0  0.74732  0.29750  0.91860  1.0000
  H   H653      1.0  0.71106  0.31787  0.90835  1.0000
  H   H654      1.0  0.71603  0.25054  0.93765  1.0000
  H   H655      1.0  0.65865  0.29711  0.91434  1.0000
  H   H656      1.0  0.66400  0.22994  0.94460  1.0000
  S   S215      1.0  0.73072  0.17461  0.00079  1.0000
  C   C651      1.0  0.87009  0.46362  0.88432  1.0000
  C   C652      1.0  0.78665  0.26016  0.99563  1.0000
  S   S216      1.0  0.57029  0.43378  0.96972  1.0000
  H   H657      1.0  0.75500  0.22636  0.97902  1.0000
  H   H658      1.0  0.90131  0.48194  0.00488  1.0000
  H   H659      1.0  0.66478  0.49668  0.96525  1.0000
  C   C653      1.0  0.66846  0.48461  0.99209  1.0000
  H   H660      1.0  0.83260  0.44042  0.86757  1.0000
  N   N55       1.0  0.64367  0.43385  0.99820  1.0000
  C   C654      1.0  0.76192  0.41604  0.71342  1.0000
  C   C655      1.0  0.58524  0.34254  0.84019  1.0000
  H   H661      1.0  0.64134  0.21122  0.84666  1.0000
  C   C656      1.0  0.66272  0.22223  0.84097  1.0000
  H   H662      1.0  0.53903  0.30175  0.85550  1.0000
  H   H663      1.0  0.63171  0.23444  0.81310  1.0000
  S   S217      1.0  0.82378  0.49785  0.91857  1.0000
  H   H664      1.0  0.72897  0.22476  0.84473  1.0000
  H   H665      1.0  0.65998  0.19036  0.99903  1.0000
  H   H666      1.0  0.57963  0.19467  0.99618  1.0000
  C   C657      1.0  0.90322  0.33464  0.00275  1.0000
  C   C658      1.0  0.78126  0.43664  0.70190  1.0000
  H   H667      1.0  0.60427  0.36323  0.83686  1.0000
  C   C659      1.0  0.87518  0.43662  0.99941  1.0000
  H   H668      1.0  0.52591  0.18859  0.96666  1.0000
  Fe  Fe106     1.0  0.53837  0.38784  0.96427  1.0000
  H   H669      1.0  0.63280  0.25119  0.83451  1.0000
  S   S218      1.0  0.72088  0.33389  0.68465  1.0000
  H   H670      1.0  0.63404  0.44601  0.95517  1.0000
  H   H671      1.0  0.80466  0.44146  0.99448  1.0000
  H   H672      1.0  0.82265  0.48253  0.86425  1.0000
  C   C660      1.0  0.88978  0.34793  0.99300  1.0000
  H   H673      1.0  0.54135  0.47379  0.99192  1.0000
  C   C661      1.0  0.85891  0.51060  0.88074  1.0000
  C   C662      1.0  0.63470  0.42811  0.98085  1.0000
  C   C663      1.0  0.54015  0.10788  0.98472  1.0000
  C   C664      1.0  0.85984  0.40930  0.00678  1.0000
  C   C665      1.0  0.71201  0.22977  0.84004  1.0000
  C   C666      1.0  0.71794  0.25122  0.82742  1.0000
  C   C667      1.0  0.69588  0.25773  0.82182  1.0000
  N   N56       1.0  0.80114  0.43136  0.69284  1.0000
  H   H674      1.0  0.73950  0.26297  0.82211  1.0000
  H   H675      1.0  0.51575  0.35726  0.88651  1.0000
  H   H676      1.0  0.89107  0.38820  0.98545  1.0000
  Fe  Fe107     1.0  0.85619  0.50771  0.94098  1.0000
  H   H677      1.0  0.57363  0.33217  0.82769  1.0000
  H   H678      1.0  0.65387  0.04226  0.94712  1.0000
  C   C668      1.0  0.54741  0.15229  0.97082  1.0000
  C   C669      1.0  0.65904  0.47902  0.97445  1.0000
  C   C670      1.0  0.64207  0.45060  0.96876  1.0000
  S   S219      1.0  0.65524  0.32706  0.67661  1.0000
  C   C671      1.0  0.51990  0.45946  0.98594  1.0000
  H   H679      1.0  0.61566  0.39117  0.00685  1.0000
  C   C672      1.0  0.80246  0.40588  0.69502  1.0000
  C   C673      1.0  0.59546  0.19126  0.00374  1.0000
  C   C674      1.0  0.57033  0.41214  0.00262  1.0000
  H   H680      1.0  0.70479  0.11169  0.98990  1.0000
  S   S220      1.0  0.52930  0.31495  0.91707  1.0000
  C   C675      1.0  0.52924  0.35447  0.87649  1.0000
  H   H681      1.0  0.64787  0.06144  0.99274  1.0000
  S   S221      1.0  0.51883  0.30866  0.00636  1.0000
  C   C676      1.0  0.64067  0.18866  0.00534  1.0000
  C   C677      1.0  0.64746  0.07630  0.00282  1.0000
  H   H682      1.0  0.93115  0.43424  0.99140  1.0000
  Fe  Fe108     1.0  0.51840  0.33543  0.94069  1.0000
  C   C678      1.0  0.51963  0.17778  0.97971  1.0000
  C   C679      1.0  0.75685  0.21081  0.00515  1.0000
  C   C680      1.0  0.93760  0.42592  0.00332  1.0000
  H   H683      1.0  0.60100  0.05758  0.00220  1.0000
  N   N57       1.0  0.92678  0.39454  0.00221  1.0000
  H   H684      1.0  0.96153  0.43720  0.00427  1.0000
  H   H685      1.0  0.69980  0.07919  0.00121  1.0000
  C   C681      1.0  0.70025  0.10063  0.00291  1.0000
  C   C682      1.0  0.82221  0.45384  0.68155  1.0000
  C   C683      1.0  0.81049  0.44492  0.00847  1.0000
  Fe  Fe109     1.0  0.53727  0.68768  0.04994  1.0000
  S   S222      1.0  0.71588  0.54748  0.06892  1.0000
  H   H686      1.0  0.59080  0.75013  0.06337  1.0000
  H   H687      1.0  0.72933  0.61210  0.11203  1.0000
  Fe  Fe110     1.0  0.51684  0.67754  0.08817  1.0000
  Fe  Fe111     1.0  0.67316  0.54826  0.06402  1.0000
  S   S223      1.0  0.66931  0.59033  0.06491  1.0000
  C   C684      1.0  0.66457  0.53456  0.12529  1.0000
  H   H688      1.0  0.54018  0.80998  0.07124  1.0000
  H   H689      1.0  0.65615  0.59656  0.10255  1.0000
  Fe  Fe112     1.0  0.53903  0.63745  0.07060  1.0000
  H   H690      1.0  0.58559  0.82507  0.03183  1.0000
  S   S224      1.0  0.55238  0.60135  0.07412  1.0000
  H   H691      1.0  0.70935  0.55809  0.11863  1.0000
  S   S225      1.0  0.55915  0.71992  0.02800  1.0000
  S   S226      1.0  0.55926  0.68574  0.07554  1.0000
  H   H692      1.0  0.61326  0.55539  0.11452  1.0000
  C   C685      1.0  0.54695  0.74507  0.02114  1.0000
  C   C686      1.0  0.81532  0.54986  0.02353  1.0000
  C   C687      1.0  0.65877  0.57940  0.10915  1.0000
  H   H693      1.0  0.55449  0.73858  0.08733  1.0000
  H   H694      1.0  0.87333  0.51786  0.02885  1.0000
  H   H695      1.0  0.52678  0.58012  0.03999  1.0000
  C   C688      1.0  0.63637  0.59282  0.06659  1.0000
  C   C689      1.0  0.63673  0.61995  0.06502  1.0000
  C   C690      1.0  0.61126  0.62302  0.06703  1.0000
  C   C691      1.0  0.58515  0.59897  0.07087  1.0000
  C   C692      1.0  0.58484  0.57187  0.07250  1.0000
  C   C693      1.0  0.61022  0.56875  0.07031  1.0000
  H   H696      1.0  0.65685  0.63875  0.06222  1.0000
  H   H697      1.0  0.61192  0.64402  0.06577  1.0000
  H   H698      1.0  0.56480  0.55311  0.07550  1.0000
  H   H699      1.0  0.60956  0.54776  0.07163  1.0000
  C   C694      1.0  0.51985  0.77208  0.02636  1.0000
  C   C695      1.0  0.78621  0.54058  0.02820  1.0000
  C   C696      1.0  0.54499  0.77359  0.08081  1.0000
  N   N58       1.0  0.68539  0.58017  0.11038  1.0000
  H   H700      1.0  0.78095  0.54830  0.04034  1.0000
  C   C697      1.0  0.68845  0.55802  0.11816  1.0000
  H   H701      1.0  0.83237  0.56473  0.03218  1.0000
  C   C698      1.0  0.71068  0.60413  0.10266  1.0000
  C   C699      1.0  0.58605  0.78712  0.05448  1.0000
  C   C700      1.0  0.55944  0.75684  0.07873  1.0000
  N   N59       1.0  0.57173  0.80343  0.05656  1.0000
  H   H702      1.0  0.60159  0.79167  0.04392  1.0000
  C   C701      1.0  0.63737  0.53363  0.12412  1.0000
  H   H703      1.0  0.52874  0.76819  0.09103  1.0000
  C   C702      1.0  0.51647  0.57998  0.01232  1.0000
  H   H704      1.0  0.70629  0.62257  0.09931  1.0000
  H   H705      1.0  0.55996  0.83272  0.04321  1.0000
  C   C703      1.0  0.63438  0.55613  0.11594  1.0000
  C   C704      1.0  0.76405  0.52171  0.01693  1.0000
  H   H706      1.0  0.71656  0.59684  0.09011  1.0000
  C   C705      1.0  0.58004  0.76354  0.06547  1.0000
  H   H707      1.0  0.66708  0.51681  0.13117  1.0000
  Fe  Fe113     1.0  0.70429  0.51679  0.04553  1.0000
  C   C706      1.0  0.55154  0.79707  0.06959  1.0000
  H   H708      1.0  0.59680  0.84806  0.05144  1.0000
  S   S227      1.0  0.52019  0.64018  0.04416  1.0000
  S   S228      1.0  0.52838  0.82132  0.00899  1.0000
  S   S229      1.0  0.66408  0.52110  0.03924  1.0000
  C   C707      1.0  0.53318  0.79004  0.01190  1.0000
  H   H709      1.0  0.51656  0.73638  0.04228  1.0000
  C   C708      1.0  0.57898  0.82862  0.04529  1.0000
  C   C709      1.0  0.52645  0.74952  0.03086  1.0000
  H   H710      1.0  0.84367  0.51903  0.04040  1.0000
  H   H711      1.0  0.61858  0.51520  0.12919  1.0000
  H   H712      1.0  0.66656  0.61417  0.49530  1.0000
  H   H713      1.0  0.71167  0.62864  0.47832  1.0000
  Fe  Fe114     1.0  0.67544  0.54658  0.45719  1.0000
  N   N60       1.0  0.56411  0.54877  0.43995  1.0000
  S   S230      1.0  0.67221  0.58776  0.45084  1.0000
  H   H714      1.0  0.58795  0.89167  0.50755  1.0000
  H   H715      1.0  0.76652  0.54644  0.48926  1.0000
  S   S231      1.0  0.71629  0.54143  0.45984  1.0000
  H   H716      1.0  0.81864  0.56281  0.49574  1.0000
  C   C710      1.0  0.75246  0.52565  0.51447  1.0000
  Fe  Fe115     1.0  0.91562  0.53372  0.56684  1.0000
  Fe  Fe116     1.0  0.52966  0.67179  0.44421  1.0000
  S   S232      1.0  0.96395  0.54597  0.56599  1.0000
  C   C711      1.0  0.68145  0.60565  0.49887  1.0000
  C   C712      1.0  0.55725  0.79402  0.52668  1.0000
  H   H717      1.0  0.53386  0.74963  0.48255  1.0000
  S   S233      1.0  0.88779  0.55558  0.57358  1.0000
  Fe  Fe117     1.0  0.54848  0.63795  0.47000  1.0000
  C   C713      1.0  0.71857  0.58270  0.50764  1.0000
  S   S234      1.0  0.56349  0.60378  0.47597  1.0000
  C   C714      1.0  0.53205  0.78361  0.49841  1.0000
  S   S235      1.0  0.52920  0.65059  0.49309  1.0000
  H   H718      1.0  0.66241  0.00888  0.56364  1.0000
  C   C715      1.0  0.80267  0.55060  0.50553  1.0000
  S   S236      1.0  0.57117  0.68331  0.45957  1.0000
  Fe  Fe118     1.0  0.57299  0.90951  0.56499  1.0000
  C   C716      1.0  0.56594  0.77254  0.52301  1.0000
  S   S237      1.0  0.61529  0.95115  0.56419  1.0000
  H   H719      1.0  0.73315  0.57367  0.51085  1.0000
  C   C717      1.0  0.65215  0.91261  0.55437  1.0000
  H   H720      1.0  0.66008  0.93598  0.55164  1.0000
  C   C718      1.0  0.55757  0.75639  0.50708  1.0000
  Fe  Fe119     1.0  0.86297  0.53534  0.54825  1.0000
  S   S238      1.0  0.54256  0.89848  0.54176  1.0000
  S   S239      1.0  0.57210  0.86548  0.56469  1.0000
  C   C719      1.0  0.53823  0.51449  0.46256  1.0000
  S   S240      1.0  0.53128  0.82829  0.51747  1.0000
  N   N61       1.0  0.63605  0.89487  0.53907  1.0000
  H   H721      1.0  0.61690  0.92233  0.53269  1.0000
  C   C720      1.0  0.70688  0.61389  0.48937  1.0000
  Fe  Fe120     1.0  0.54905  0.69519  0.48173  1.0000
  C   C721      1.0  0.60412  0.86050  0.51065  1.0000
  C   C722      1.0  0.62149  0.85222  0.52087  1.0000
  H   H722      1.0  0.97804  0.60549  0.57727  1.0000
  Fe  Fe121     1.0  0.69570  0.51490  0.48383  1.0000
  C   C723      1.0  0.99688  0.57741  0.57073  1.0000
  S   S241      1.0  0.71517  0.51336  0.51056  1.0000
  C   C724      1.0  0.98721  0.59043  0.52787  1.0000
  H   H723      1.0  0.97541  0.56673  0.52996  1.0000
  H   H724      1.0  0.56396  0.80643  0.53893  1.0000
  C   C725      1.0  0.64292  0.59324  0.45866  1.0000
  C   C726      1.0  0.62310  0.57430  0.47068  1.0000
  C   C727      1.0  0.59979  0.57882  0.47647  1.0000
  C   C728      1.0  0.59564  0.60201  0.47012  1.0000
  C   C729      1.0  0.61583  0.62143  0.45842  1.0000
  C   C730      1.0  0.63943  0.61708  0.45278  1.0000
  H   H725      1.0  0.62545  0.55594  0.47540  1.0000
  H   H726      1.0  0.58437  0.56375  0.48558  1.0000
  H   H727      1.0  0.61295  0.63944  0.45345  1.0000
  H   H728      1.0  0.65478  0.63203  0.44358  1.0000
  H   H729      1.0  0.67439  0.55768  0.54191  1.0000
  C   C731      1.0  0.99792  0.60394  0.57550  1.0000
  H   H730      1.0  0.98041  0.60047  0.53879  1.0000
  C   C732      1.0  0.77317  0.54138  0.50184  1.0000
  H   H731      1.0  0.67127  0.90933  0.55772  1.0000
  S   S242      1.0  0.57038  0.73083  0.50251  1.0000
  H   H732      1.0  0.74506  0.60810  0.48613  1.0000
  H   H733      1.0  0.63784  0.90723  0.56613  1.0000
  C   C733      1.0  0.79086  0.52823  0.53435  1.0000
  C   C734      1.0  0.81163  0.54391  0.52175  1.0000
  C   C735      1.0  0.63721  0.86964  0.53523  1.0000
  C   C736      1.0  0.61604  0.98567  0.56544  1.0000
  C   C737      1.0  0.59067  0.98852  0.56698  1.0000
  H   H734      1.0  0.57933  0.76845  0.53249  1.0000
  H   H735      1.0  0.57006  0.96942  0.56757  1.0000
  C   C738      1.0  0.67492  0.58568  0.51255  1.0000
  H   H736      1.0  0.59915  0.54444  0.42805  1.0000
  C   C739      1.0  0.56788  0.57339  0.42897  1.0000
  C   C740      1.0  0.76143  0.51927  0.53075  1.0000
  S   S243      1.0  0.65730  0.52385  0.48260  1.0000
  C   C741      1.0  0.72555  0.60229  0.49371  1.0000
  H   H737      1.0  0.59098  0.58670  0.42558  1.0000
  N   N62       1.0  0.69358  0.57474  0.51693  1.0000
  C   C742      1.0  0.60238  0.88578  0.51498  1.0000
  C   C743      1.0  0.68575  0.55300  0.53086  1.0000
  H   H738      1.0  0.65018  0.86274  0.54334  1.0000
  H   H739      1.0  0.59125  0.84683  0.49974  1.0000
  C   C744      1.0  0.61863  0.90285  0.52929  1.0000
  H   H740      1.0  0.62218  0.83207  0.51788  1.0000
  H   H741      1.0  0.67152  0.53125  0.52517  1.0000
  S   S244      1.0  0.84876  0.55497  0.52570  1.0000
  H   H742      1.0  0.70518  0.55231  0.53661  1.0000
  C   C745      1.0  0.58170  0.53589  0.43755  1.0000
  Fe  Fe122     1.0  0.53499  0.85275  0.58371  1.0000
  C   C746      1.0  0.54068  0.79994  0.51421  1.0000
  Fe  Fe123     1.0  0.53836  0.85359  0.54325  1.0000
  Fe  Fe124     1.0  0.85757  0.51287  0.58602  1.0000
  H   H743      1.0  0.65469  0.57875  0.51952  1.0000
  S   S245      1.0  0.53868  0.89762  0.58585  1.0000
  C   C747      1.0  0.54025  0.76176  0.49491  1.0000
  C   C748      1.0  0.54236  0.53817  0.45210  1.0000
  H   H744      1.0  0.79749  0.52341  0.54699  1.0000
  H   H745      1.0  0.51924  0.78808  0.48869  1.0000
  S   S246      1.0  0.89312  0.51717  0.54056  1.0000
  H   H746      1.0  0.52865  0.54861  0.45416  1.0000
  H   H747      1.0  0.56106  0.58799  0.43623  1.0000
  H   H748      1.0  0.98046  0.59564  0.51495  1.0000
  S   S247      1.0  0.52788  0.82017  0.60531  1.0000
  H   H749      1.0  0.55489  0.56565  0.41656  1.0000
  S   S248      1.0  0.52318  0.67612  0.41483  1.0000
  C   C749      1.0  0.57809  0.51211  0.44774  1.0000
  C   C750      1.0  0.64265  0.01082  0.56479  1.0000
  H   H750      1.0  0.59333  0.95267  0.91207  1.0000
  H   H751      1.0  0.55927  0.94312  0.92250  1.0000
  Fe  Fe125     1.0  0.92027  0.54133  0.95202  1.0000
  N   N63       1.0  0.55880  0.91191  0.90408  1.0000
  S   S249      1.0  0.96395  0.56367  0.93824  1.0000
  H   H752      1.0  0.59364  0.90726  0.91624  1.0000
  H   H753      1.0  0.88506  0.54364  0.91085  1.0000
  S   S250      1.0  0.88352  0.55321  0.95097  1.0000
  C   C751      1.0  0.57361  0.89686  0.90868  1.0000
  Fe  Fe126     1.0  0.55856  0.89434  0.95638  1.0000
  H   H754      1.0  0.52063  0.90999  0.89217  1.0000
  S   S251      1.0  0.59880  0.93599  0.94935  1.0000
  Fe  Fe127     1.0  0.53112  0.84326  0.98253  1.0000
  S   S252      1.0  0.51796  0.87794  0.93966  1.0000
  H   H755      1.0  0.80539  0.51390  0.98418  1.0000
  C   C752      1.0  0.58562  0.00570  0.96273  1.0000
  S   S253      1.0  0.55755  0.85025  0.95778  1.0000
  Fe  Fe128     1.0  0.87187  0.53353  0.97821  1.0000
  C   C753      1.0  0.89878  0.54004  0.90085  1.0000
  C   C754      1.0  0.62948  0.99561  0.94838  1.0000
  C   C755      1.0  0.99785  0.58903  0.94731  1.0000
  C   C756      1.0  0.58144  0.97709  0.96030  1.0000
  C   C757      1.0  0.60336  0.97181  0.95310  1.0000
  C   C758      1.0  0.53289  0.89837  0.89523  1.0000
  H   H756      1.0  0.56120  0.95912  0.96398  1.0000
  H   H757      1.0  0.91747  0.53989  0.90805  1.0000
  C   C759      1.0  0.56955  0.94211  0.90978  1.0000
  C   C760      1.0  0.00018  0.60349  0.96345  1.0000
  H   H758      1.0  0.90738  0.55852  0.89160  1.0000
  H   H759      1.0  0.56345  0.79875  0.99067  1.0000
  H   H760      1.0  0.98094  0.59894  0.97095  1.0000
  C   C761      1.0  0.55975  0.76257  0.00640  1.0000
  C   C762      1.0  0.80027  0.52122  0.99652  1.0000
  C   C763      1.0  0.52152  0.86918  0.89036  1.0000
  H   H761      1.0  0.85351  0.52840  0.87999  1.0000
  H   H762      1.0  0.56841  0.00937  0.96827  1.0000
  S   S254      1.0  0.85928  0.55167  0.00244  1.0000
  S   S255      1.0  0.53623  0.88877  0.98241  1.0000
  H   H763      1.0  0.52796  0.83110  0.89125  1.0000
  H   H764      1.0  0.64661  0.99187  0.94278  1.0000
  C   C764      1.0  0.56280  0.86763  0.90407  1.0000
  H   H765      1.0  0.57420  0.85554  0.90808  1.0000
  C   C765      1.0  0.55272  0.78481  0.00168  1.0000
  S   S256      1.0  0.91106  0.52554  0.98010  1.0000
  H   H766      1.0  0.56493  0.95487  0.89963  1.0000
  C   C766      1.0  0.53673  0.85385  0.89472  1.0000
  H   H767      1.0  0.57572  0.75936  0.99884  1.0000
  C   C767      1.0  0.82248  0.54024  0.00767  1.0000
  N   N64       1.0  0.88156  0.51294  0.89113  1.0000
  C   C768      1.0  0.77126  0.51206  0.00113  1.0000
  H   H768      1.0  0.53884  0.58940  0.00822  1.0000
