data_image0
_chemical_formula_structural       CH2C5HC2FeS2FeS2FeSFeS3FeS2FeS2FeSFeCS2HSFeSHFeS2FeSFeS3FeS2FeS2FeSFeS3FeS2FeS2FeSFeS2HFeSHFeS2FeSFeS3FeS2FeS2FeSFeS3FeSCFeSFeS3C2HC2H2C6H4C7HNHC6H9CHCHC2H2C6H4C6H4C6H5C5H3CSHCHFeCNHC6H4CH2NH2C3HC6H4CSH3CH4C6H4NH3C2H3CSC3HCH2C8H4C3H4C2H3CNSCH3CSHCH6NHCHC2H2SHCHC3HCHC3H3NC6H8NC3HC2H7NC6H8NC6HCSHC4HCHC3NHCHCHCHC2HNC2H2CH6CH2CH4C2H2CNC6H11C4H2CH2CH3NC2H3NCHC2NHCHC2NC2H2CHC3HCH2NHCHCHC2HCHSCHC3H3FeS2FeS2FeSFeS3FeS2Fe2S2C2HCFeS2FeS2FeS2FeS2FeSFeS3FeS2FeS2FeSFeS3FeS2FeS2FeHFeS3FeSFeS2FeSFeS3FeS2FeS2FeSFeS3HCHFeS2FeSCFeSFeHS2FeS2CHFeHFeHS3H2S2C3NH6SHFeCNC6H4C3H3CHCHC6H4CNC2H2C6H4CHC2H2C6H3C7H4C6H4C6H4C6H4C6H4C6H4CH3C3H3C6H4C7H4C6H4C6H4C6H4C6H2NC6H8SH2SFeHSC3NC6H10SC2SHCH2C6H7CHC4Fe2HCFeHCSC4H4CSHC2SCSHC3HCH3CHCHNHC2SCSH2NC6H2NH7SHFeH2SCHFeCH2CHCHNH5SC2SHCHNC2HCHCH4CH3NCNC6H9FeHC3HCFeH5CNC6HCH3FeHCS2H3CHCHC2H2C2NC6H8SCSC2H3CHNSHCHNC5HCHNCHC2SNC2HC3H5C3H3CNCNSH2C2NCNC6H8NC6H4FeCSCH2C2HCHSHFeHCSH3SCHCSHC3HC2H3CFeH3C2HC2HCHNCHSH4CH3CSHCSH2CSHCS2H2CHFeH2NHC2SH2CH3CFeH2C2HCH2FeS2CFeS2HNCHNH3SC2FeCHFeS2HCH2S3FeS2FeS2FeSFeS3H2CFeSHFeS2FeSFeS3HCHNH2S2CHC3HNSH3FeS2FeS2FeSFeS3C6HCH3C6H6C2HCH2NC6H5C2H5C2HNH4C6H6C4NCH2C6H4CH2SHCH4CHSFeH3C3HC3NHCHCHC6H4C6H4C3H2CHCH4C5HC2FeC2HC2NHC2H3CHC2NCHCFeH7C2H3CHC2HCHCHCHNC4H2C3HCFeCH4C3H2C2H2C2SH2C2HCHCFeSHFeSCFeSFeS3FeSFeSFeSFeS3HSFeS2FeS2FeSFeS3CFeS2FeS2FeSFeS4FeSH2FeSHSFeS2FeHSFeSHS2FeSFeS2FeSFeS3FeS2FeS2FeSFeS3FeS2FeS2FeSFeS3HFeS2FeS2FeSFeS3FeS2FeS2FeSFeS3CHSC7HNC3H2CSH2CFeC6H4C2H2C2HC4NH5C6H4C6H4C6H4FeC6H3C6H4C6H4C6H4C6H9C5SH2C6H4C6H4C6H4C3HC6H4C6H4C6H4C6H8CHCH3CSH2NSH3CHCHSHNC2HCNC6H8CHC2SC2H3CH3SFeHCFeSNC6H8NC6H8CHCNSHCH2C3SCHCH2NC4HCH2C2SH2CH2C2SHCH2FeC2HC3HFeH3NC6H8NC2HCHCH2CHC5HCHCH2CH7CH5C3HCSHCHCNC6H8NC3HCH2CNSH3NHCHC2H2CH2CH3C2HSCHCHCH3SNH2NC2HN2C3H5NC6H3FeH5CHCH6CHCNC6H8S2H4FeH3C4HC2HCSHC2H2CHCHC3FeC3NC4H2NCH2CH2C2H3SC2HC3SH3CH4CFeCH5Fe2S2FeSFeSFeS3FeS2FeSFeSFeS3FeSFeS2FeSFeS3HC2HSHCH2C3SCSCHSHS4HC2H4CH2SHCFeS2FeS2FeSFeS3FeS2FeS2FeSFeS3FeS2FeS2Fe2S3FeS2FeS2FeSFeS2FeS2FeS2FeSFeS2C6H4C6H4C6H6NH2C7H4C6H5C5H3C2HC6H2C6H4C7H3CH2CHC6H6C6H8CH2C6HSH2C6H4C5H4NC6H4C6H4C6H5FeSH3C2HC2H2SNHCH2CHCNC6H10C4SCH6CNC6H8NC6H8CH3C2HC2SFeC3H4CFeHNC6H8NC6H9CHCHNC2H2SHC2H3CH2CHNC3H3NHCHC3HCNC6H8C5NC2H2C2H3NC6H2NC3FeSC2HCH3C2HC4NHCHCH2NCH2CHSCH4SHNCHCHSHCH2CHCHSC2HC4HSH2CH3CH4Fe2S2FeS2Fe2S3FeS2FeSFeSFeS3FeSCFeS2FeSFeS3CHFeS2FeS2FeSFeS3FeS2FeS2FeCFeS3FeCHFeS2H2FeCS2HNC2H2Fe2S2FeS2FeSFeS3FeS2FeS2FeSFeS3CH2C2SHCHSCHC7H4C6H4C6H2FeHC6H4C7H3C2H2CHCH5C5H2SC2H3C3HCSCH4C6H4C6H4C6H4C2H2C2HCHCH4C4FeNH2C4H2C6H4C6H5C6H4C6H4C6H2CHNC6H8C2H3CH2CSCHSC2HCHC2HNC6H8NC5H7SCHCNCHCSC3HSCH2CSH4SHC2HNH2SH2C2NH2NC6H8NC3H4NCH4NC4H4CH3CHCHC3HCH3C2H3CSH2C2HCHC3HCNCH5CHCH4CH2SNC6H7C4H3CNC5SH2FeNHC2HC2H4C4SH6NH2C2H3CH3CH4FeS2FeS2FeSFeS2FeS2FeSC2FeS2FeS2FeSFeS3FeSFeS2FeHFeSCSFeS2FeS2FeSFeS3HSH2SFeSFeS2HSH2SFeS2FeS2FeSFeS3HCSHCHFeS3FeS2FeS2FeS2FeS2FeSFeS3FeS2FeCFeSFeS2FeS2HCFe2SCSC6H4C6H4C6H4C6H4C6H4C6H4C6H4C6H4C6H4C6H4C6H4C6H4C6H4C6H4C6H4CH2CH2CH2CFeCH2C6H4C6HSH2C6H4C2HNH2C3H4NC6H6CH2NC6H8NC6H6C2SH3S2HC2HCHC4HFeHCSH3SH3C3SCH2CH2NSNH2SH3CHNC6H9FeCSHC3HN2FeC3FeHSH2CHSH2CSHCFeCHNH2CH8S2H2SH4NCH2CHC3NH2SH2SC3HSNC5HCH6NC6H8CHFeC2HC2H2CSH5C2H3FeH2CFeCHFeH2NHC3HC2H2CFeH3CH2C3H2CSCSFeH2CHSCH2CHC3HC2HCNH3NHCFeHNHCHC2H2C2HNC4H2SHCNC8SCHCHCHNHCHC2H2SH2CHCH2FeHCHSHCHC4HCH2CFeSCFeSCFeCFeSCSCNCSH2FeS2FeS2FeSFeS3HSCFeCSC2SCHC4H2CFeSHFeS2FeSFeS2HCSFeS2FeS2FeSFeS3C6H5C4H4C7H7NC4HCHC3H2C6H5C4H6C2HCHCHC4HC2H4C6NH4NC3NH3C7H7N2H5SC2HC2HCS2NHC2SHSHCH5C4H4C2H2C3H3CH3CH2NC6H4SH4CH6C2HC2H3CHC4HCHCN2HNH5C2HCHCH3C2HCH2C2HFeS2FeS2FeSFeS3FeSFeSFe2SFeS3FeS2FeSFeSFeS3FeS2FeS2FeSFeS3C2H2SH5FeS2FeS2FeSFeS3FeS2FeS2FeSFeS3FeS2FeS2FeSFeS3FeSFeS2FeSFeS3HFeHFeS2FeS3FeS2FeS2FeSFeS3C4H2C7H5NCNC3HCH2C6H4C2HC4H3C6H4C6H4SC6H5NHCH2C6H4C6H4C6H4C2H3SC2SH2C6H4C6H4C6H4C6H5C6H4CHCH2C6H4C2HCHCHNH2NC6H9CHCH3CH2CNC2H3CH2C3H3C7HCHCHCHNC6H8NC6H8NC6H8C4H4SCHNC6H8CH2CH3C2H2CSHNC6H6CHNC3H3C3NCNH2CHC3HCNC3HC5H3CSNC6H9SC4HCH4CH2CHCHC3H2NC6H6C2HCHCH2CHCH2SNH2CHSHCH2SHCHC2HCH3CSHNHCNH2C2HC4HCH2C2H3C2NHC2H5CHCSC2HC2H3CHCH3C2HCH2FeCHCHCH2CFeS2FeS2FeSFeS3FeS2FeSCFeSFeS3FeS2CFeSCS3FeSC2FeS2FeS2FeSFeS3FeS2FeS2FeSFeS3CHFeS2FeS2FeNFeS3FeS2FeS2Fe2S3FeS2FeS2FeSFeCS2HFeS2FeSFeS3FeS2FeS2FeSFeS3FeS2FeS2FeSFeS3NCHCHC2HSH2C6H4C6H4C6H6C2H2CHCHC2H2CHC6H4C6H4C6H5NHCH2FeCH4C6H4C6H4C6H4C7H2C6H4C6H4C3HC6H4C6H4C6H4C2H4C6H4C6H4C6H5C2NC6H9CHC2HNH4CH2NH2C4NH2C2HC4H2C2H5C2NC6H8NC6H8NC6H8C2H2NC4HCH2C3H4NH7CH3C2NC6H9CHCSH2NC6H8NC6H9NC2HCHCHNC6H5CH2C2HSC2H4SCHCFeHCHCHC2H7CNC6H9CH2CHCH2NC5H3CN2H4CSNC5HC5H2SFeHFeH3C3FeHSHCSHCHNHC2H3FeS2FeS2FeSFeS3FeS2FeS2FeSFeS3H2CSCH4SHCHCHCFeS2FeS2FeSFeS3FeS2FeCSFeHFeCS2FeSFeS2FeSFeS3HSCHFeSHFeSHFeSFeS3FeS2FeS2FeSFeS2FeS2FeSFeSFeS3HC6H5C3HSC3SCH2CHC6H5SH2S2H2FeHC6H5C6H3C6H4C6H4C4HSCH2C3SC5HNHC3HCHSC3HCH4C6H4C6H4C6HC2HC6H4C6FeH3C6H4C6H4CHCH2CHCH5CHCSNHCH3SCHNHCHNC6H8NC6H8NC6H8NC6H8NC6H11C5HC2HCNC6H8CNC6H6CHNC6H8NC6H9CFeH2SNHCHCSCHC2HCH5CSHNC6HCNCSC3H3C2HC3NH10C2NCH2SH3NFeNH3C2HCH2C2HCHCFeS2FeS2FeSFeS3CSHFeSCFeSFeSHSFeS2FeS2FeSFeS4H2SCSFeS2FeS2FeSFeS3FeS2FeS2HFeSCSFeS2FeS2FeS2CFeSFeCS3FeSHFeS2FeS2FeSFeS3FeS2FeSFeSHSCFeHSFeS3H3FeS2Fe3S3FeS2FeSCHCHC2H7C6H4C6H4C6H4C6H4C6H5SH3NHC7H4C6H4C6H4C6H4C6H2C6H4C6H4C6H6C2HC2SC8H4C6H4C6H4C6H4C6H6C3HSCHCHC3NHS4CHCHNC6H9C2FeCHCSH3C2HNC2SCSCHSC2HCH2SHFeH2CFeCSCHFeHCNC6H6CHSC2H2NHFeNC6H8NFeC3H6NC3NCH3CHC2H3CHSNC6H8NC6H6C2H4CSCHC2HSHCFeHCHCFeCHFeC2HCHCH2C3H4C2H2CNC6H9SC3HC2HCHS2CHCHN2C6H8NC6H9CHCH3SHC2NHCH2C5HNC2H5NFeHC3HC2FeHNH5CHC2HCHSCH6C3NCH4NCH4C2H6C2FeHC2H2C2HNHCHCH2CH2FeC2H2C3HSH2CH2FeS2FeS2FeSFeS3FeS2FeHSFeHFeHS3H2C3H2FeS2FeS2FeSFeS3FeSHFeS2FeSFeCSHCH2CH2CH2SHSH3C6H4C7H3C5NCH5NH2NC2SC4H2C2H4CH2NHC3HC6H4C6H4C5H3NHC6H4C6H4CHC2HSHCH2SCH4C2HNCH2NH4CH2C4NC6H10C2HCSC3HC3HSC4SCHC2SH2NH3CH2CH3CH3CH6CHFeS2FeS2FeSFeS4FeS2FeSFeHS2FeS2FeS2FeSFeS3HCHCSHC2FeH3CSFeS2FeS2FeSFeS3FeS2FeS2FeHFeS3FeS2FeS2FeSFeS3FeS2FeS2Fe2S3FeSFeS2FeSFeS3HSFeSHFeSFeS3FeS2FeSCFeSFeS3HC3NHNH2NHCH3C6H4CHC6H4C6H4C6H4C6H4C6H4C6H6C7SH3C6H2CH2C3HCH2C6H4C6H4C6H4C2H2NHCH3CFeC6H5CH5C6H4C6H5C2HCH2CNH2C2H3C3HC6NCH2C3H3C2NCH2NHCHC2HC2H3CHC3H2CHC5H3C3HCFeH2CNH2C5HCHC3H2NH2SHCFeCH3CHC2SHNCHC3HNHCSC2H5C2HCNC5H4SH3CHCHSCH3CHCH2CHNC6H5CHNC2HC2HNC6H8C3HSCH3C2H2C6H5CHCHC2H3NH2NC6H8NC6H8NC6H7C3HCH5CSHC4SHC2H2C2NC6H8C2H2CH3NC2HCH3CH2CHC3SC4HCH2CH3C3H5CH3FeC2NH2CHSCHSFeS2FeSFeS2FeS2FeS2FeSFeS3FeS2FeS2FeSFeS4FeS2FeS2Fe3S3FeSHFeSHFeSFeS3FeS2FeS2FeS3FeS2FeS2FeSFeS3FeS2FeS2FeSFeS3HFeS2FeSHFeSFeS3FeS2FeS2FeSFeCS2FeS2FeS2FeSFeHS2CHC2HCH2CHC6H4CNSCH2CHC6H4C6H5CHCHSH3C6H4C6H4C5H2C6H4C7H3CHC6H4C6H5C6H6CHNCHCH2CFeH5C6H4CHSHC3HC6H4C6H4C6H4C6H4C6H5C4NHNC6H8NC4HCHSH2NC6H8CH4NC6H8NC6H8NC3HC2H2C2H2NCNC6H8CHC2HC3H2C2H2CNC6H8NC6H8NC6H8NC6H8NC6H10CH2CH3CHCFeC2HNH3CNSHCNC6H8CH3C2HCSHCHCH3CSNHCHCHC3H2C3H3CH2NHCH6CHSH2CH2CSHC3HCHFeSHFeSFeS3FeSCFeS2FeSCHSNFeS2FeS2FeSFeS3HFeS2FeS2FeSFeS2FeS2FeS2FeSHCSCFeS2FeS2FeSFeS3CH2NFeS2FeS2FeSFeS3FeS2FeS2FeSFeS3FeC4FeH2C2H4CH3CNHCHSHCH2CHC2H2C3H2C6H4C3HC3H3C6H4C3HC2H3C6H7C6H4C6H3CHC3HC2H4C6H4C6H4CH2CHC6H4C7H4C2HNHCHCH3NC6H9CH3FeC4HSHNC2SHC2H2CH3CHCH5NC6H8NC4HCH3CH5C2NC3HCNH6C2HSH4C3H2CHCHC2H2C6H2C2HNCNC2H3C2H5C2HC2HCNC6H2CSNH2CHC3HCNC2H2SH4C2SC2H2C4H2C2SH7C2SHCNHCSH3CHCHCHCH3CH2CH2CHC2HFeSH2SHS2HCSCFeS2FeS2FeSFeS3FeS2FeS2FeSFeS3FeSHFeSFeSFeS3FeS2FeS2FeSFe2S2FeS2FeSHFeSFeCS2FeS2FeS2FeSFeS4C2FeS2FeS2FeSFeS3FeS2FeS2FeSFeS3FeS2CSFe2S3FeS2CSFeSFeS3CH3C2H5C6H6C6H4CHSC3HCH2C6H2CHC6H4C6H4C6H4C6H4C6H4C6H4C6H4C6H4C6H4C6H4C6H3CHCHC3H4NSCH2C2HNC2H2NCH2C3H2CH3C6H4C3H2C6H3SH3CHCH2C3H2C2NC6HC2H2CSCH2C2H2NC5H5CHCHC5H3NC6H8NC6H8NC6H3CH4NC6H8NC6H8NC2HC2HCH4NC3H3CH2CHC2HCHCHSH2NH2CH3CHSC2HCH3SHC2NC2HNC6H5NH2NC6H10C2FeC4HFeCFeH2C2SCHNH3CH3C3HCNCNC6H5FeH4SCHCSH2NCH3FeC2H2FeHC3H3SCH2CH2FeHSCSH2S2HCN2Fe2SHC2H2CHSH2SH3C6HCFeCH3CHCHCHCHCHSCSH2CH3NCHCSCSCSHCH5CHCHC2HCHCFeCHCNCH2CH2C2FeN2H2SCH2SHNHC2HC3HFeS2FeS2FeSFeS3FeS2FeSHFeCFeS3HNCFeS2CNHFeS2H2NH3CSH4C2SHFeSH2SH2CFeS2FeS2FeSFeS3C8H2CHC6HSH2C6H4SH3CNHC3SH5CHCH3C6H4C2SH2C2HC3NSNH2CH8CH2CSC2H3C3HC6H4C6HCH3C5HCHCSC6H6FeH2CHNC2HC4HCH3C2HCHCSC5H3NHC2H2C2H2CHCH2CHC2HC2HCH3CH3C4HNCH2CH2SCH2FeH2CHCHCSH4CH5C2HCHFeS2FeS2FeSFeS3FeS2FeS2FeSFeS3CFeHFeS2FeS2FeSFeS3HSFeS2FeCFeS3FeS2FeS2FeSFeS5FeSFeS2FeS2FeSFeS3H2CFeS2FeS2FeS2FeSFeS3CSCHS2FeS2FeS2FeS3FeHSFeS2CFeS2FeS2FeS2Fe2S2C6H4C6H4C6H4C6H4C6H4C6H4C6H4C6H4C3H2CHCHC4H2C4H3C4HC7H4C6H4C6H3C6H5CHC3H4C6H4C3HCH2SH4SNHC2HC6H4CNCFeH3C6H4CH3C2NS2H2CH2C3NC6H3CH4CH2CH4SCHSC2HNHCHCH3FeH4CH3FeHC2HCH3CHC2HC2HSH2CHC3HNC6H4SH4NC6H8C5NC6H8NC6H9NH2CHC2H2NHCHC3H2C2NHNC2HNHC3NCNC2HCNC6H8NC6H5CH2NHCH5CHCH2FeHNC4HCH4FeH3NC6H8NSHCHCSHFeHC3H2C2H2CH3SHCHFeHSH3SHC2HCSC3HC3HCH2CNC2H3CHCH2NH2CFeHNC2SC3HFeCHC2HCH2C6SHSHCH2C3HCHSCHCH4CHFeH2C2HSH3CH3C2HC2SCHFeCSC2H5CSH2C2FeCFe2CNHCHCHCHFeS2FeS2FeSFeS2FeSFeS2FeSFeS3FeS2FeSFeSFeS3FeSFeS2FeSFeS3FeS3FeSFeS2FeS2FeSNFeSFeS3H2C2SCH4C3HC3HNCFeS2FeS2FeSFeS3FeS2FeS2FeSFeS3H2CHSH4S2NC6H4C6H4C6H4C6H6C9H4CHC3HCHC2SH2CHFeH2C6H4C6H4C6H4C6H4C6H6C2HC3HC2HCH2C6H4C6H4C2H2C6H4C6H4C6H4NC6HNH2CHC2HCH2CHCH2SHC2H2C2HCNC6H8NC6H8C2SCHC4HFeHSHCSCHNH2NCFeHCHSHNC6H8SCNCHCH4SCH2NC6H8NC6H9C2HSHNHCH3FeCHNC6H8NC6H10CSNHCH3CHCH4FeSHNC6H8CSH2SCSHC3H2NH3C2HSC2H3C6HNCHFeHCHSC5H2CH5CH3C2H2CHN
_chemical_formula_sum              "C4608 H4608 Fe768 S1536 N384"
_cell_length_a       103.638
_cell_length_b       104.415
_cell_length_c       104.43
_cell_angle_alpha    74.2436
_cell_angle_beta     73.8523
_cell_angle_gamma    73.8519

_space_group_name_H-M_alt    "P 1"
_space_group_IT_number       1

loop_
  _space_group_symop_operation_xyz
  'x, y, z'

loop_
  _atom_site_type_symbol
  _atom_site_label
  _atom_site_symmetry_multiplicity
  _atom_site_fract_x
  _atom_site_fract_y
  _atom_site_fract_z
  _atom_site_occupancy
  C   C1        1.0  0.28217  0.15561  0.17487  1.0000
  H   H1        1.0  0.05695  0.42518  0.12805  1.0000
  H   H2        1.0  0.26957  0.22668  0.11908  1.0000
  C   C2        1.0  0.35728  0.16049  0.17686  1.0000
  C   C3        1.0  0.07339  0.41596  0.09781  1.0000
  C   C4        1.0  0.10786  0.36523  0.03754  1.0000
  C   C5        1.0  0.10480  0.33530  0.01865  1.0000
  C   C6        1.0  0.00642  0.37198  0.13412  1.0000
  H   H3        1.0  0.11439  0.40394  0.10815  1.0000
  C   C7        1.0  0.21213  0.35261  0.16702  1.0000
  C   C8        1.0  0.11608  0.39641  0.11767  1.0000
  Fe  Fe1       1.0  0.29687  0.22044  0.14647  1.0000
  S   S1        1.0  0.29401  0.20900  0.13253  1.0000
  S   S2        1.0  0.27956  0.23599  0.15575  1.0000
  Fe  Fe2       1.0  0.32536  0.20289  0.14855  1.0000
  S   S3        1.0  0.32502  0.19016  0.13454  1.0000
  S   S4        1.0  0.34290  0.19631  0.15932  1.0000
  Fe  Fe3       1.0  0.31585  0.21003  0.12211  1.0000
  S   S5        1.0  0.32275  0.21487  0.09927  1.0000
  Fe  Fe4       1.0  0.30335  0.19020  0.14623  1.0000
  S   S6        1.0  0.29510  0.17117  0.15200  1.0000
  S   S7        1.0  0.31814  0.22299  0.13506  1.0000
  S   S8        1.0  0.30431  0.20150  0.16118  1.0000
  Fe  Fe5       1.0  0.21509  0.32430  0.14016  1.0000
  S   S9        1.0  0.19677  0.31488  0.14778  1.0000
  S   S10       1.0  0.21051  0.34516  0.14456  1.0000
  Fe  Fe6       1.0  0.23290  0.30012  0.12837  1.0000
  S   S11       1.0  0.21585  0.28882  0.13479  1.0000
  S   S12       1.0  0.25397  0.29010  0.11782  1.0000
  Fe  Fe7       1.0  0.20256  0.30909  0.12753  1.0000
  S   S13       1.0  0.18381  0.31166  0.11940  1.0000
  Fe  Fe8       1.0  0.21152  0.29568  0.15438  1.0000
  C   C9        1.0  0.33760  0.13001  0.99666  1.0000
  S   S14       1.0  0.21995  0.32001  0.11922  1.0000
  S   S15       1.0  0.22952  0.30554  0.14865  1.0000
  H   H4        1.0  0.11381  0.37251  0.03005  1.0000
  S   S16       1.0  0.47074  0.13763  0.13045  1.0000
  Fe  Fe9       1.0  0.35064  0.07099  0.16719  1.0000
  S   S17       1.0  0.37045  0.05540  0.16655  1.0000
  H   H5        1.0  0.11338  0.36053  0.04598  1.0000
  Fe  Fe10      1.0  0.35508  0.07874  0.13648  1.0000
  S   S18       1.0  0.37550  0.06389  0.13316  1.0000
  S   S19       1.0  0.34457  0.09554  0.12174  1.0000
  Fe  Fe11      1.0  0.36471  0.04925  0.15012  1.0000
  S   S20       1.0  0.36872  0.02626  0.15222  1.0000
  Fe  Fe12      1.0  0.37936  0.07123  0.14985  1.0000
  S   S21       1.0  0.39985  0.07545  0.14903  1.0000
  S   S22       1.0  0.34394  0.06371  0.15226  1.0000
  S   S23       1.0  0.35990  0.08722  0.15165  1.0000
  Fe  Fe13      1.0  0.34619  0.15850  0.05931  1.0000
  S   S24       1.0  0.35724  0.17286  0.04269  1.0000
  S   S25       1.0  0.32701  0.16412  0.07511  1.0000
  Fe  Fe14      1.0  0.36847  0.13370  0.05290  1.0000
  S   S26       1.0  0.38122  0.14607  0.03555  1.0000
  S   S27       1.0  0.37678  0.11150  0.06077  1.0000
  Fe  Fe15      1.0  0.37635  0.16025  0.04988  1.0000
  S   S28       1.0  0.39192  0.16918  0.05419  1.0000
  Fe  Fe16      1.0  0.36094  0.15724  0.02997  1.0000
  S   S29       1.0  0.35636  0.16482  0.00877  1.0000
  S   S30       1.0  0.36490  0.14716  0.06742  1.0000
  S   S31       1.0  0.34850  0.14364  0.04633  1.0000
  Fe  Fe17      1.0  0.42281  0.16674  0.13684  1.0000
  S   S32       1.0  0.43253  0.15097  0.15282  1.0000
  S   S33       1.0  0.41647  0.18921  0.13695  1.0000
  Fe  Fe18      1.0  0.42412  0.14610  0.12023  1.0000
  S   S34       1.0  0.43451  0.12890  0.13475  1.0000
  S   S35       1.0  0.41788  0.13803  0.10527  1.0000
  Fe  Fe19      1.0  0.41881  0.13832  0.15112  1.0000
  S   S36       1.0  0.40391  0.12707  0.16735  1.0000
  Fe  Fe20      1.0  0.44730  0.14314  0.13486  1.0000
  S   S37       1.0  0.40787  0.15488  0.13665  1.0000
  S   S38       1.0  0.43820  0.15962  0.11883  1.0000
  H   H6        1.0  0.14600  0.47334  0.15482  1.0000
  Fe  Fe21      1.0  0.06545  0.36221  0.14984  1.0000
  S   S39       1.0  0.04767  0.37298  0.16372  1.0000
  H   H7        1.0  0.12224  0.47714  0.12157  1.0000
  Fe  Fe22      1.0  0.05683  0.38063  0.12457  1.0000
  S   S40       1.0  0.03836  0.39302  0.13633  1.0000
  S   S41       1.0  0.06205  0.38702  0.10186  1.0000
  Fe  Fe23      1.0  0.05290  0.39202  0.14923  1.0000
  S   S42       1.0  0.05231  0.41083  0.15618  1.0000
  Fe  Fe24      1.0  0.03492  0.37278  0.14946  1.0000
  S   S43       1.0  0.01457  0.36605  0.15861  1.0000
  S   S44       1.0  0.07159  0.38126  0.13638  1.0000
  S   S45       1.0  0.05247  0.36042  0.13666  1.0000
  Fe  Fe25      1.0  0.16033  0.36069  0.05811  1.0000
  S   S46       1.0  0.15698  0.38195  0.04527  1.0000
  S   S47       1.0  0.18165  0.35072  0.06159  1.0000
  Fe  Fe26      1.0  0.13040  0.35978  0.06383  1.0000
  S   S48       1.0  0.12473  0.38092  0.05168  1.0000
  S   S49       1.0  0.11435  0.34756  0.07480  1.0000
  Fe  Fe27      1.0  0.14376  0.37440  0.03630  1.0000
  S   S50       1.0  0.14295  0.38011  0.01390  1.0000
  Fe  Fe28      1.0  0.13829  0.38616  0.06196  1.0000
  S   S51       1.0  0.13011  0.40470  0.07147  1.0000
  S   S52       1.0  0.14864  0.35279  0.04785  1.0000
  S   S53       1.0  0.14253  0.36544  0.07535  1.0000
  Fe  Fe29      1.0  0.14592  0.42600  0.15798  1.0000
  S   S54       1.0  0.13109  0.44642  0.15562  1.0000
  C   C10       1.0  0.41976  0.20434  0.17292  1.0000
  Fe  Fe30      1.0  0.14912  0.42373  0.12895  1.0000
  S   S55       1.0  0.15944  0.40809  0.11583  1.0000
  Fe  Fe31      1.0  0.12151  0.43742  0.14421  1.0000
  S   S56       1.0  0.09852  0.44388  0.14606  1.0000
  S   S57       1.0  0.16120  0.43184  0.13867  1.0000
  S   S58       1.0  0.13483  0.41658  0.14850  1.0000
  C   C11       1.0  0.23652  0.37815  0.15364  1.0000
  C   C12       1.0  0.13931  0.36901  0.00592  1.0000
  H   H8        1.0  0.47585  0.19364  0.15854  1.0000
  C   C13       1.0  0.13631  0.34683  0.00562  1.0000
  C   C14       1.0  0.13897  0.35545  0.01239  1.0000
  H   H9        1.0  0.13603  0.33635  0.01069  1.0000
  H   H10       1.0  0.14079  0.35159  0.02258  1.0000
  C   C15       1.0  0.15121  0.40738  0.10348  1.0000
  C   C16       1.0  0.15553  0.39594  0.09752  1.0000
  C   C17       1.0  0.14919  0.39507  0.08761  1.0000
  C   C18       1.0  0.13858  0.40573  0.08350  1.0000
  C   C19       1.0  0.13426  0.41719  0.08945  1.0000
  C   C20       1.0  0.14048  0.41797  0.09950  1.0000
  H   H11       1.0  0.16380  0.38774  0.10063  1.0000
  H   H12       1.0  0.15256  0.38622  0.08307  1.0000
  H   H13       1.0  0.12617  0.42554  0.08621  1.0000
  H   H14       1.0  0.13717  0.42687  0.10396  1.0000
  C   C21       1.0  0.06604  0.41894  0.15328  1.0000
  C   C22       1.0  0.08003  0.41265  0.14948  1.0000
  C   C23       1.0  0.09036  0.41995  0.14748  1.0000
  C   C24       1.0  0.08661  0.43356  0.14903  1.0000
  C   C25       1.0  0.07267  0.43971  0.15258  1.0000
  C   C26       1.0  0.06252  0.43244  0.15483  1.0000
  C   C27       1.0  0.23335  0.34856  0.17454  1.0000
  H   H15       1.0  0.10113  0.41514  0.14476  1.0000
  N   N1        1.0  0.32628  0.98896  0.15909  1.0000
  H   H16       1.0  0.48815  0.17116  0.11878  1.0000
  C   C28       1.0  0.07608  0.37563  0.09431  1.0000
  C   C29       1.0  0.08060  0.36243  0.10153  1.0000
  C   C30       1.0  0.09198  0.35355  0.09526  1.0000
  C   C31       1.0  0.09913  0.35805  0.08198  1.0000
  C   C32       1.0  0.09450  0.37120  0.07480  1.0000
  C   C33       1.0  0.08294  0.37993  0.08090  1.0000
  H   H17       1.0  0.07526  0.35902  0.11187  1.0000
  H   H18       1.0  0.09545  0.34333  0.10081  1.0000
  H   H19       1.0  0.09963  0.37462  0.06445  1.0000
  H   H20       1.0  0.07935  0.39007  0.07524  1.0000
  H   H21       1.0  0.35821  0.09062  0.17789  1.0000
  H   H22       1.0  0.37696  0.12327  0.98996  1.0000
  H   H23       1.0  0.15637  0.26249  0.17953  1.0000
  H   H24       1.0  0.17287  0.37301  0.00248  1.0000
  H   H25       1.0  0.01532  0.37647  0.12955  1.0000
  C   C34       1.0  0.36082  0.15490  0.99623  1.0000
  H   H26       1.0  0.07794  0.43435  0.12317  1.0000
  C   C35       1.0  0.11611  0.37909  0.10579  1.0000
  H   H27       1.0  0.10271  0.36929  0.01302  1.0000
  C   C36       1.0  0.22934  0.37614  0.14511  1.0000
  C   C37       1.0  0.36841  0.14143  0.99828  1.0000
  H   H28       1.0  0.05502  0.33390  0.16039  1.0000
  H   H29       1.0  0.37216  0.13697  0.00756  1.0000
  C   C38       1.0  0.39763  0.16140  0.06952  1.0000
  C   C39       1.0  0.39524  0.14862  0.07684  1.0000
  C   C40       1.0  0.40083  0.14199  0.08831  1.0000
  C   C41       1.0  0.40894  0.14804  0.09259  1.0000
  C   C42       1.0  0.41095  0.16107  0.08565  1.0000
  C   C43       1.0  0.40534  0.16771  0.07409  1.0000
  H   H30       1.0  0.38983  0.14339  0.07321  1.0000
  H   H31       1.0  0.39936  0.13185  0.09353  1.0000
  H   H32       1.0  0.41733  0.16575  0.08879  1.0000
  H   H33       1.0  0.40731  0.17758  0.06845  1.0000
  C   C44       1.0  0.40051  0.08981  0.15443  1.0000
  C   C45       1.0  0.38859  0.09889  0.15948  1.0000
  C   C46       1.0  0.38963  0.11025  0.16362  1.0000
  C   C47       1.0  0.40259  0.11273  0.16242  1.0000
  C   C48       1.0  0.41446  0.10362  0.15745  1.0000
  C   C49       1.0  0.41342  0.09210  0.15368  1.0000
  H   H34       1.0  0.37859  0.09714  0.16029  1.0000
  H   H35       1.0  0.38040  0.11722  0.16754  1.0000
  H   H36       1.0  0.42450  0.10532  0.15674  1.0000
  H   H37       1.0  0.42269  0.08502  0.15000  1.0000
  C   C50       1.0  0.35343  0.09927  0.10466  1.0000
  C   C51       1.0  0.34834  0.11152  0.09625  1.0000
  C   C52       1.0  0.35537  0.11512  0.08272  1.0000
  C   C53       1.0  0.36758  0.10652  0.07750  1.0000
  C   C54       1.0  0.37259  0.09413  0.08583  1.0000
  C   C55       1.0  0.36550  0.09048  0.09941  1.0000
  H   H38       1.0  0.33891  0.11827  0.10019  1.0000
  H   H39       1.0  0.35119  0.12451  0.07628  1.0000
  H   H40       1.0  0.38191  0.08733  0.08176  1.0000
  H   H41       1.0  0.36929  0.08084  0.10573  1.0000
  H   H42       1.0  0.46497  0.14449  0.15714  1.0000
  C   C56       1.0  0.35330  0.00242  0.13052  1.0000
  C   C57       1.0  0.34951  0.01675  0.12788  1.0000
  C   C58       1.0  0.35448  0.02428  0.13408  1.0000
  C   C59       1.0  0.36334  0.01751  0.14295  1.0000
  C   C60       1.0  0.36742  0.00320  0.14527  1.0000
  H   H43       1.0  0.41833  0.22400  0.15925  1.0000
  H   H44       1.0  0.34251  0.02206  0.12118  1.0000
  H   H45       1.0  0.35130  0.03529  0.13216  1.0000
  C   C61       1.0  0.42729  0.13394  0.06237  1.0000
  S   S59       1.0  0.13496  0.44406  0.12389  1.0000
  H   H46       1.0  0.09743  0.37089  0.04177  1.0000
  C   C62       1.0  0.06320  0.41734  0.10968  1.0000
  H   H47       1.0  0.42504  0.11641  0.07852  1.0000
  Fe  Fe32      1.0  0.14554  0.45177  0.13553  1.0000
  C   C63       1.0  0.33521  0.13077  0.98389  1.0000
  N   N2        1.0  0.11331  0.38335  0.11777  1.0000
  H   H48       1.0  0.10981  0.46715  0.13092  1.0000
  C   C64       1.0  0.18358  0.32188  0.10299  1.0000
  C   C65       1.0  0.17125  0.32611  0.09843  1.0000
  C   C66       1.0  0.17062  0.33480  0.08563  1.0000
  C   C67       1.0  0.18237  0.33919  0.07729  1.0000
  C   C68       1.0  0.19476  0.33478  0.08174  1.0000
  C   C69       1.0  0.19536  0.32620  0.09461  1.0000
  H   H49       1.0  0.16214  0.32271  0.10483  1.0000
  H   H50       1.0  0.16109  0.33797  0.08217  1.0000
  H   H51       1.0  0.20389  0.33809  0.07528  1.0000
  H   H52       1.0  0.20494  0.32286  0.09797  1.0000
  C   C70       1.0  0.48112  0.14095  0.13955  1.0000
  H   H53       1.0  0.38825  0.18357  0.14834  1.0000
  H   H54       1.0  0.23466  0.37015  0.13741  1.0000
  N   N3        1.0  0.17219  0.36086  0.98924  1.0000
  H   H55       1.0  0.12353  0.38022  0.17170  1.0000
  H   H56       1.0  0.26456  0.26861  0.09915  1.0000
  C   C71       1.0  0.10745  0.33152  0.03172  1.0000
  C   C72       1.0  0.99735  0.37235  0.12610  1.0000
  C   C73       1.0  0.21922  0.35407  0.17599  1.0000
  H   H57       1.0  0.04221  0.32436  0.17084  1.0000
  C   C74       1.0  0.32309  0.20128  0.09218  1.0000
  C   C75       1.0  0.31692  0.19054  0.10014  1.0000
  C   C76       1.0  0.31781  0.17940  0.09463  1.0000
  C   C77       1.0  0.32520  0.17875  0.08128  1.0000
  C   C78       1.0  0.33135  0.18951  0.07330  1.0000
  C   C79       1.0  0.33012  0.20086  0.07869  1.0000
  H   H58       1.0  0.31142  0.19080  0.11055  1.0000
  H   H59       1.0  0.31299  0.17112  0.10082  1.0000
  H   H60       1.0  0.33694  0.18913  0.06294  1.0000
  H   H61       1.0  0.33489  0.20916  0.07248  1.0000
  C   C80       1.0  0.29088  0.16481  0.16966  1.0000
  S   S60       1.0  0.15144  0.41322  0.17777  1.0000
  H   H62       1.0  0.32147  0.11174  0.13757  1.0000
  H   H63       1.0  0.10108  0.35197  0.00171  1.0000
  H   H64       1.0  0.10406  0.48437  0.12220  1.0000
  C   C81       1.0  0.45554  0.17796  0.13765  1.0000
  H   H65       1.0  0.24507  0.24570  0.11766  1.0000
  H   H66       1.0  0.28738  0.26368  0.08365  1.0000
  H   H67       1.0  0.14099  0.39082  0.17466  1.0000
  H   H68       1.0  0.27768  0.15289  0.16805  1.0000
  C   C82       1.0  0.27301  0.25130  0.14520  1.0000
  C   C83       1.0  0.25989  0.25886  0.14999  1.0000
  C   C84       1.0  0.25414  0.27093  0.14173  1.0000
  C   C85       1.0  0.26162  0.27569  0.12873  1.0000
  C   C86       1.0  0.27497  0.26839  0.12411  1.0000
  C   C87       1.0  0.28058  0.25606  0.13223  1.0000
  H   H69       1.0  0.25402  0.25525  0.16005  1.0000
  H   H70       1.0  0.24384  0.27646  0.14541  1.0000
  H   H71       1.0  0.28090  0.27218  0.11417  1.0000
  H   H72       1.0  0.29079  0.25035  0.12855  1.0000
  N   N4        1.0  0.33257  0.14098  0.00278  1.0000
  H   H73       1.0  0.18839  0.38824  0.15465  1.0000
  H   H74       1.0  0.32113  0.16155  0.00134  1.0000
  H   H75       1.0  0.37433  0.99788  0.15207  1.0000
  C   C88       1.0  0.47574  0.14413  0.15244  1.0000
  C   C89       1.0  0.18713  0.42307  0.17676  1.0000
  H   H76       1.0  0.37341  0.20599  0.13848  1.0000
  H   H77       1.0  0.17165  0.43014  0.16465  1.0000
  H   H78       1.0  0.37301  0.14481  0.16807  1.0000
  C   C90       1.0  0.28622  0.23172  0.10244  1.0000
  S   S61       1.0  0.34563  0.99329  0.12372  1.0000
  C   C91       1.0  0.18481  0.27117  0.15685  1.0000
  C   C92       1.0  0.23310  0.33932  0.15560  1.0000
  C   C93       1.0  0.21913  0.34545  0.15667  1.0000
  H   H79       1.0  0.20984  0.39605  0.17344  1.0000
  C   C94       1.0  0.09539  0.41923  0.08266  1.0000
  H   H80       1.0  0.09984  0.32492  0.17299  1.0000
  H   H81       1.0  0.23855  0.33374  0.14761  1.0000
  C   C95       1.0  0.04503  0.33442  0.16798  1.0000
  C   C96       1.0  0.09540  0.33364  0.17774  1.0000
  C   C97       1.0  0.21510  0.38133  0.14703  1.0000
  C   C98       1.0  0.41868  0.21330  0.16040  1.0000
  C   C99       1.0  0.41801  0.20846  0.14935  1.0000
  C   C100      1.0  0.41842  0.19464  0.15073  1.0000
  C   C101      1.0  0.41972  0.18561  0.16320  1.0000
  C   C102      1.0  0.22946  0.38546  0.16381  1.0000
  H   H82       1.0  0.41699  0.21550  0.13976  1.0000
  H   H83       1.0  0.41986  0.17496  0.16444  1.0000
  H   H84       1.0  0.18389  0.30388  0.17410  1.0000
  H   H85       1.0  0.39042  0.20082  0.17270  1.0000
  C   C103      1.0  0.34407  0.23283  0.16490  1.0000
  C   C104      1.0  0.34091  0.22287  0.16025  1.0000
  C   C105      1.0  0.34501  0.20906  0.16607  1.0000
  H   H86       1.0  0.38793  0.22572  0.16872  1.0000
  H   H87       1.0  0.24746  0.37373  0.15264  1.0000
  H   H88       1.0  0.34132  0.24348  0.16009  1.0000
  H   H89       1.0  0.33577  0.22587  0.15187  1.0000
  C   C106      1.0  0.38365  0.18719  0.15804  1.0000
  C   C107      1.0  0.16275  0.26858  0.17153  1.0000
  H   H90       1.0  0.99939  0.37710  0.11537  1.0000
  H   H91       1.0  0.18840  0.39178  0.17046  1.0000
  H   H92       1.0  0.07200  0.41082  0.09070  1.0000
  C   C108      1.0  0.14647  0.48350  0.14882  1.0000
  N   N5        1.0  0.08494  0.42095  0.09519  1.0000
  S   S62       1.0  0.20726  0.28076  0.17416  1.0000
  C   C109      1.0  0.06483  0.42400  0.11884  1.0000
  H   H93       1.0  0.43400  0.13712  0.06667  1.0000
  H   H94       1.0  0.07331  0.36464  0.17364  1.0000
  H   H95       1.0  0.37332  0.18479  0.16235  1.0000
  C   C110      1.0  0.00391  0.36591  0.14800  1.0000
  S   S63       1.0  0.14977  0.47309  0.12599  1.0000
  H   H96       1.0  0.09580  0.43152  0.10209  1.0000
  C   C111      1.0  0.07663  0.42914  0.11607  1.0000
  H   H97       1.0  0.46664  0.18114  0.17009  1.0000
  H   H98       1.0  0.09942  0.40821  0.08251  1.0000
  H   H99       1.0  0.12016  0.38539  0.09618  1.0000
  H   H100      1.0  0.19345  0.43008  0.17034  1.0000
  H   H101      1.0  0.15748  0.30583  0.14153  1.0000
  H   H102      1.0  0.10649  0.37845  0.13945  1.0000
  N   N6        1.0  0.47182  0.18007  0.14904  1.0000
  H   H103      1.0  0.49292  0.17639  0.13854  1.0000
  C   C112      1.0  0.32039  0.10521  0.15921  1.0000
  H   H104      1.0  0.08282  0.40218  0.14834  1.0000
  C   C113      1.0  0.31955  0.11494  0.14713  1.0000
  C   C114      1.0  0.32341  0.00277  0.15426  1.0000
  H   H105      1.0  0.42656  0.15134  0.04555  1.0000
  H   H106      1.0  0.10450  0.32765  0.01354  1.0000
  S   S64       1.0  0.08121  0.34402  0.15733  1.0000
  H   H107      1.0  0.33447  0.14993  0.01815  1.0000
  C   C115      1.0  0.13705  0.37381  0.99262  1.0000
  H   H108      1.0  0.32303  0.09440  0.15912  1.0000
  C   C116      1.0  0.31609  0.12878  0.14743  1.0000
  C   C117      1.0  0.48439  0.14664  0.15934  1.0000
  C   C118      1.0  0.37687  0.21028  0.14496  1.0000
  H   H109      1.0  0.22659  0.31119  0.18020  1.0000
  C   C119      1.0  0.48235  0.17703  0.13827  1.0000
  H   H110      1.0  0.31516  0.13646  0.13815  1.0000
  C   C120      1.0  0.11376  0.36654  0.10575  1.0000
  C   C121      1.0  0.10621  0.36255  0.13022  1.0000
  C   C122      1.0  0.10870  0.35827  0.11805  1.0000
  H   H111      1.0  0.11583  0.36324  0.09624  1.0000
  H   H112      1.0  0.10235  0.35615  0.13984  1.0000
  H   H113      1.0  0.10670  0.34857  0.11814  1.0000
  N   N7        1.0  0.40073  0.10762  0.12231  1.0000
  C   C123      1.0  0.39512  0.09822  0.12009  1.0000
  C   C124      1.0  0.39260  0.11977  0.12509  1.0000
  C   C125      1.0  0.38100  0.10085  0.12071  1.0000
  C   C126      1.0  0.37843  0.12274  0.12573  1.0000
  C   C127      1.0  0.37262  0.11320  0.12348  1.0000
  C   C128      1.0  0.41565  0.10491  0.12096  1.0000
  H   H114      1.0  0.40149  0.08846  0.11818  1.0000
  H   H115      1.0  0.39707  0.12722  0.12684  1.0000
  H   H116      1.0  0.37654  0.09327  0.11924  1.0000
  H   H117      1.0  0.37203  0.13235  0.12799  1.0000
  H   H118      1.0  0.36164  0.11524  0.12397  1.0000
  H   H119      1.0  0.41827  0.11065  0.12710  1.0000
  H   H120      1.0  0.41989  0.09390  0.12465  1.0000
  H   H121      1.0  0.42076  0.10816  0.11014  1.0000
  N   N8        1.0  0.41313  0.11856  0.06402  1.0000
  C   C129      1.0  0.40899  0.12632  0.05242  1.0000
  C   C130      1.0  0.42213  0.12223  0.06905  1.0000
  C   C131      1.0  0.41397  0.13808  0.04547  1.0000
  H   H122      1.0  0.10075  0.47518  0.17461  1.0000
  C   C132      1.0  0.42312  0.14192  0.05054  1.0000
  C   C133      1.0  0.40703  0.10683  0.07161  1.0000
  H   H123      1.0  0.40160  0.12356  0.04863  1.0000
  H   H124      1.0  0.11041  0.33852  0.04805  1.0000
  H   H125      1.0  0.41041  0.14446  0.03648  1.0000
  H   H126      1.0  0.10915  0.40089  0.12634  1.0000
  H   H127      1.0  0.41368  0.09932  0.07819  1.0000
  H   H128      1.0  0.39675  0.11041  0.07800  1.0000
  H   H129      1.0  0.40551  0.10140  0.06450  1.0000
  N   N9        1.0  0.18653  0.36460  0.09350  1.0000
  C   C134      1.0  0.17635  0.35800  0.10135  1.0000
  C   C135      1.0  0.19772  0.36383  0.09841  1.0000
  C   C136      1.0  0.17728  0.35035  0.11446  1.0000
  C   C137      1.0  0.19894  0.35631  0.11150  1.0000
  C   C138      1.0  0.18864  0.34954  0.11954  1.0000
  C   C139      1.0  0.18566  0.37244  0.07969  1.0000
  H   H130      1.0  0.16761  0.35837  0.09737  1.0000
  H   H131      1.0  0.20581  0.36900  0.09216  1.0000
  H   H132      1.0  0.16944  0.34476  0.12048  1.0000
  H   H133      1.0  0.20785  0.35563  0.11539  1.0000
  H   H134      1.0  0.18956  0.34357  0.12966  1.0000
  H   H135      1.0  0.18571  0.38328  0.07881  1.0000
  H   H136      1.0  0.19445  0.36798  0.07211  1.0000
  H   H137      1.0  0.17612  0.37224  0.07691  1.0000
  N   N10       1.0  0.26574  0.24791  0.10996  1.0000
  C   C140      1.0  0.27336  0.23481  0.11119  1.0000
  C   C141      1.0  0.27053  0.25817  0.10004  1.0000
  C   C142      1.0  0.29135  0.24214  0.09253  1.0000
  C   C143      1.0  0.28346  0.25546  0.09126  1.0000
  C   C144      1.0  0.49517  0.14042  0.13361  1.0000
  C   C145      1.0  0.25234  0.25079  0.11935  1.0000
  H   H138      1.0  0.24772  0.26193  0.11803  1.0000
  C   C146      1.0  0.47487  0.18289  0.16077  1.0000
  S   S65       1.0  0.12972  0.34075  0.98458  1.0000
  H   H139      1.0  0.29230  0.22132  0.10341  1.0000
  C   C147      1.0  0.08039  0.35597  0.17811  1.0000
  C   C148      1.0  0.31775  0.10950  0.17145  1.0000
  C   C149      1.0  0.32238  0.15390  0.98379  1.0000
  C   C150      1.0  0.14830  0.48604  0.13465  1.0000
  H   H140      1.0  0.03716  0.34205  0.16282  1.0000
  C   C151      1.0  0.33796  0.00548  0.16737  1.0000
  H   H141      1.0  0.25115  0.33655  0.16337  1.0000
  C   C152      1.0  0.37531  0.22442  0.14250  1.0000
  C   C153      1.0  0.38493  0.22144  0.16190  1.0000
  C   C154      1.0  0.37941  0.23001  0.15103  1.0000
  N   N11       1.0  0.38243  0.20194  0.15557  1.0000
  H   H142      1.0  0.06597  0.32542  0.18048  1.0000
  C   C155      1.0  0.36793  0.14883  0.17720  1.0000
  H   H143      1.0  0.37068  0.23102  0.13423  1.0000
  C   C156      1.0  0.47973  0.17411  0.12705  1.0000
  H   H144      1.0  0.37794  0.24097  0.14953  1.0000
  C   C157      1.0  0.21524  0.39050  0.16544  1.0000
  H   H145      1.0  0.34379  0.12071  0.00147  1.0000
  C   C158      1.0  0.16983  0.34878  0.98869  1.0000
  C   C159      1.0  0.17897  0.28480  0.15191  1.0000
  H   H146      1.0  0.12694  0.39492  0.11834  1.0000
  N   N12       1.0  0.20821  0.38820  0.15727  1.0000
  C   C160      1.0  0.19327  0.39345  0.15938  1.0000
  C   C161      1.0  0.10858  0.37519  0.12991  1.0000
  H   H147      1.0  0.09087  0.42429  0.07358  1.0000
  H   H148      1.0  0.10899  0.32089  0.03699  1.0000
  C   C162      1.0  0.08667  0.42748  0.10414  1.0000
  H   H149      1.0  0.10429  0.42369  0.08161  1.0000
  H   H150      1.0  0.48018  0.14892  0.16939  1.0000
  H   H151      1.0  0.48464  0.17599  0.16313  1.0000
  H   H152      1.0  0.05413  0.41319  0.11177  1.0000
  H   H153      1.0  0.25357  0.24707  0.13008  1.0000
  H   H154      1.0  0.16913  0.35680  0.01090  1.0000
  C   C163      1.0  0.38625  0.20736  0.16413  1.0000
  H   H155      1.0  0.20955  0.37936  0.14062  1.0000
  H   H156      1.0  0.19093  0.40457  0.15496  1.0000
  C   C164      1.0  0.37112  0.13370  0.98829  1.0000
  H   H157      1.0  0.30147  0.23983  0.08593  1.0000
  H   H158      1.0  0.18537  0.29107  0.14421  1.0000
  H   H159      1.0  0.16978  0.34039  0.99749  1.0000
  H   H160      1.0  0.05179  0.43736  0.15777  1.0000
  C   C165      1.0  0.08613  0.34476  0.17189  1.0000
  C   C166      1.0  0.42043  0.19045  0.17425  1.0000
  H   H161      1.0  0.34500  0.13334  0.01760  1.0000
  H   H162      1.0  0.44502  0.17831  0.13752  1.0000
  C   C167      1.0  0.15730  0.28231  0.16650  1.0000
  N   N13       1.0  0.35627  0.17818  0.09171  1.0000
  C   C168      1.0  0.36338  0.18050  0.07845  1.0000
  C   C169      1.0  0.35345  0.18777  0.09938  1.0000
  C   C170      1.0  0.36763  0.19278  0.07243  1.0000
  C   C171      1.0  0.35744  0.20022  0.09366  1.0000
  C   C172      1.0  0.36457  0.20272  0.08009  1.0000
  C   C173      1.0  0.35216  0.16511  0.09784  1.0000
  H   H163      1.0  0.36562  0.17294  0.07237  1.0000
  H   H164      1.0  0.34767  0.18604  0.10983  1.0000
  H   H165      1.0  0.37319  0.19453  0.06186  1.0000
  H   H166      1.0  0.35462  0.20802  0.09961  1.0000
  H   H167      1.0  0.36757  0.21239  0.07547  1.0000
  H   H168      1.0  0.36092  0.15730  0.10129  1.0000
  H   H169      1.0  0.34313  0.16607  0.10653  1.0000
  H   H170      1.0  0.34893  0.16157  0.09032  1.0000
  H   H171      1.0  0.18650  0.35783  0.00148  1.0000
  H   H172      1.0  0.35029  0.17101  0.98240  1.0000
  H   H173      1.0  0.19569  0.26707  0.15329  1.0000
  C   C174      1.0  0.13388  0.35168  0.99237  1.0000
  C   C175      1.0  0.17541  0.36216  0.00159  1.0000
  C   C176      1.0  0.45850  0.18087  0.14870  1.0000
  C   C177      1.0  0.17482  0.42308  0.17350  1.0000
  H   H174      1.0  0.23489  0.38695  0.17062  1.0000
  H   H175      1.0  0.18111  0.25254  0.17094  1.0000
  C   C178      1.0  0.10453  0.48083  0.16449  1.0000
  H   H176      1.0  0.16716  0.31098  0.15041  1.0000
  H   H177      1.0  0.10222  0.46655  0.15433  1.0000
  C   C179      1.0  0.24023  0.34097  0.16446  1.0000
  H   H178      1.0  0.13735  0.38428  0.98753  1.0000
  H   H179      1.0  0.14664  0.28666  0.17069  1.0000
  H   H180      1.0  0.35389  0.16570  0.16746  1.0000
  N   N14       1.0  0.10675  0.35487  0.03110  1.0000
  C   C180      1.0  0.10831  0.34152  0.03788  1.0000
  C   C181      1.0  0.10382  0.35872  0.01843  1.0000
  H   H181      1.0  0.29762  0.24276  0.16916  1.0000
  H   H182      1.0  0.20126  0.35720  0.16800  1.0000
  H   H183      1.0  0.15013  0.30867  0.15874  1.0000
  N   N15       1.0  0.11060  0.48281  0.14019  1.0000
  C   C182      1.0  0.10281  0.34900  0.01201  1.0000
  H   H184      1.0  0.46412  0.17171  0.11842  1.0000
  C   C183      1.0  0.10546  0.47596  0.15296  1.0000
  C   C184      1.0  0.31374  0.13269  0.15984  1.0000
  N   N16       1.0  0.16546  0.29027  0.15693  1.0000
  H   H185      1.0  0.34293  0.01190  0.17016  1.0000
  C   C185      1.0  0.17662  0.26302  0.16674  1.0000
  H   H186      1.0  0.19957  0.32665  0.17253  1.0000
  C   C186      1.0  0.36241  0.99568  0.13913  1.0000
  C   C187      1.0  0.13432  0.36520  0.98587  1.0000
  N   N17       1.0  0.04600  0.33825  0.18013  1.0000
  C   C188      1.0  0.32906  0.01124  0.15845  1.0000
  C   C189      1.0  0.32499  0.15281  0.99655  1.0000
  H   H187      1.0  0.45008  0.18362  0.15706  1.0000
  H   H188      1.0  0.32712  0.02214  0.15429  1.0000
  C   C190      1.0  0.33472  0.13980  0.01640  1.0000
  H   H189      1.0  0.31707  0.00725  0.14678  1.0000
  C   C191      1.0  0.34106  0.99136  0.17203  1.0000
  C   C192      1.0  0.11169  0.47763  0.12813  1.0000
  C   C193      1.0  0.15970  0.30464  0.15166  1.0000
  H   H190      1.0  0.31108  0.14347  0.15995  1.0000
  C   C194      1.0  0.46624  0.17443  0.12684  1.0000
  H   H191      1.0  0.32664  0.13531  0.02434  1.0000
  H   H192      1.0  0.06966  0.45019  0.15377  1.0000
  N   N18       1.0  0.31475  0.12308  0.17161  1.0000
  H   H193      1.0  0.39055  0.18147  0.16515  1.0000
  C   C195      1.0  0.35610  0.16058  0.98409  1.0000
  H   H194      1.0  0.40237  0.07051  0.17893  1.0000
  C   C196      1.0  0.35173  0.20527  0.17687  1.0000
  H   H195      1.0  0.30383  0.17489  0.17456  1.0000
  C   C197      1.0  0.35116  0.22898  0.17546  1.0000
  C   C198      1.0  0.29673  0.16821  0.17851  1.0000
  H   H196      1.0  0.31533  0.24744  0.17824  1.0000
  C   C199      1.0  0.30160  0.23555  0.17757  1.0000
  H   H197      1.0  0.28940  0.22139  0.17917  1.0000
  S   S66       1.0  0.35616  0.24140  0.18032  1.0000
  C   C200      1.0  0.18053  0.29499  0.18070  1.0000
  H   H198      1.0  0.20398  0.30856  0.17977  1.0000
  C   C201      1.0  0.12587  0.37835  0.18163  1.0000
  C   C202      1.0  0.16666  0.41395  0.18172  1.0000
  C   C203      1.0  0.35470  0.21522  0.18160  1.0000
  H   H199      1.0  0.31809  0.10189  0.18084  1.0000
  H   H200      1.0  0.35476  0.19463  0.18155  1.0000
  H   H201      1.0  0.34835  0.98676  0.17857  1.0000
  Fe  Fe33      1.0  0.39355  0.30492  0.29822  1.0000
  S   S67       1.0  0.38522  0.28625  0.30127  1.0000
  S   S68       1.0  0.40330  0.30553  0.31500  1.0000
  Fe  Fe34      1.0  0.38175  0.31885  0.27311  1.0000
  S   S69       1.0  0.37214  0.30172  0.27444  1.0000
  S   S70       1.0  0.37984  0.33605  0.25490  1.0000
  Fe  Fe35      1.0  0.36606  0.30124  0.29681  1.0000
  S   S71       1.0  0.34435  0.30001  0.30771  1.0000
  Fe  Fe36      1.0  0.39206  0.28815  0.27855  1.0000
  S   S72       1.0  0.40193  0.26971  0.26876  1.0000
  S   S73       1.0  0.37373  0.31981  0.29513  1.0000
  S   S74       1.0  0.40237  0.30538  0.27583  1.0000
  Fe  Fe37      1.0  0.38272  0.24235  0.21372  1.0000
  S   S75       1.0  0.39521  0.22128  0.22012  1.0000
  S   S76       1.0  0.37968  0.26168  0.22125  1.0000
  Fe  Fe38      1.0  0.40018  0.22053  0.19784  1.0000
  Fe  Fe39      1.0  0.37633  0.21423  0.22098  1.0000
  S   S77       1.0  0.36796  0.19789  0.23757  1.0000
  S   S78       1.0  0.36335  0.23528  0.21647  1.0000
  C   C204      1.0  0.13154  0.02554  0.32928  1.0000
  C   C205      1.0  0.24839  0.15904  0.28421  1.0000
  H   H202      1.0  0.16453  0.39792  0.19972  1.0000
  C   C206      1.0  0.19699  0.11958  0.37909  1.0000
  Fe  Fe40      1.0  0.23500  0.37549  0.22310  1.0000
  S   S79       1.0  0.21287  0.38710  0.22715  1.0000
  S   S80       1.0  0.25222  0.37086  0.23437  1.0000
  Fe  Fe41      1.0  0.20779  0.36852  0.22448  1.0000
  S   S81       1.0  0.19056  0.35869  0.23812  1.0000
  S   S82       1.0  0.22947  0.35633  0.22246  1.0000
  Fe  Fe42      1.0  0.28191  0.39268  0.28412  1.0000
  S   S83       1.0  0.29684  0.40612  0.27995  1.0000
  S   S84       1.0  0.26283  0.40052  0.27509  1.0000
  Fe  Fe43      1.0  0.29917  0.36953  0.30133  1.0000
  S   S85       1.0  0.31554  0.38090  0.29858  1.0000
  S   S86       1.0  0.30210  0.34730  0.31127  1.0000
  Fe  Fe44      1.0  0.29777  0.39864  0.30203  1.0000
  S   S87       1.0  0.29590  0.41314  0.31550  1.0000
  Fe  Fe45      1.0  0.31331  0.38733  0.27688  1.0000
  S   S88       1.0  0.33052  0.38775  0.25827  1.0000
  S   S89       1.0  0.28138  0.38663  0.30665  1.0000
  S   S90       1.0  0.29839  0.37460  0.27924  1.0000
  Fe  Fe46      1.0  0.23199  0.13933  0.34499  1.0000
  S   S91       1.0  0.21164  0.15377  0.34404  1.0000
  S   S92       1.0  0.24173  0.13559  0.36269  1.0000
  Fe  Fe47      1.0  0.23508  0.13192  0.31791  1.0000
  S   S93       1.0  0.21473  0.14560  0.31483  1.0000
  S   S94       1.0  0.24733  0.12148  0.30057  1.0000
  Fe  Fe48      1.0  0.22148  0.16043  0.32208  1.0000
  S   S95       1.0  0.22175  0.18177  0.31058  1.0000
  Fe  Fe49      1.0  0.20686  0.13736  0.33706  1.0000
  S   S96       1.0  0.18573  0.13274  0.34627  1.0000
  S   S97       1.0  0.24232  0.14745  0.32365  1.0000
  S   S98       1.0  0.22664  0.12228  0.33965  1.0000
  Fe  Fe50      1.0  0.32065  0.16068  0.22401  1.0000
  S   S99       1.0  0.29984  0.15807  0.23649  1.0000
  S   S100      1.0  0.32532  0.18146  0.21522  1.0000
  Fe  Fe51      1.0  0.33106  0.13062  0.22318  1.0000
  S   S101      1.0  0.31116  0.12514  0.23591  1.0000
  S   S102      1.0  0.34978  0.11772  0.21198  1.0000
  Fe  Fe52      1.0  0.30118  0.14421  0.22296  1.0000
  H   H203      1.0  0.18542  0.37974  0.27116  1.0000
  Fe  Fe53      1.0  0.31142  0.13941  0.24850  1.0000
  S   S103      1.0  0.30519  0.13653  0.27136  1.0000
  S   S104      1.0  0.32100  0.14851  0.20924  1.0000
  S   S105      1.0  0.33240  0.14316  0.23699  1.0000
  Fe  Fe54      1.0  0.13709  0.30436  0.21147  1.0000
  S   S106      1.0  0.13316  0.32589  0.19965  1.0000
  Fe  Fe55      1.0  0.13133  0.31205  0.23848  1.0000
  S   S107      1.0  0.12664  0.33452  0.22942  1.0000
  S   S108      1.0  0.13387  0.30326  0.26012  1.0000
  Fe  Fe56      1.0  0.11509  0.32924  0.21699  1.0000
  S   S109      1.0  0.09604  0.34448  0.21199  1.0000
  Fe  Fe57      1.0  0.14491  0.32989  0.21265  1.0000
  S   S110      1.0  0.15846  0.34487  0.20223  1.0000
  S   S111      1.0  0.11783  0.30713  0.22780  1.0000
  S   S112      1.0  0.15083  0.30794  0.22268  1.0000
  Fe  Fe58      1.0  0.12796  0.20868  0.32857  1.0000
  S   S113      1.0  0.12955  0.21511  0.30595  1.0000
  S   S114      1.0  0.11862  0.19220  0.34423  1.0000
  Fe  Fe59      1.0  0.14343  0.22910  0.32903  1.0000
  S   S115      1.0  0.14646  0.23765  0.30657  1.0000
  S   S116      1.0  0.15077  0.23547  0.34414  1.0000
  Fe  Fe60      1.0  0.12461  0.23654  0.30909  1.0000
  S   S117      1.0  0.11021  0.25192  0.29670  1.0000
  Fe  Fe61      1.0  0.15117  0.21589  0.30481  1.0000
  S   S118      1.0  0.16836  0.21020  0.28761  1.0000
  S   S119      1.0  0.12092  0.23008  0.33194  1.0000
  S   S120      1.0  0.15028  0.20731  0.32706  1.0000
  H   H204      1.0  0.40897  0.24750  0.25492  1.0000
  C   C207      1.0  0.14059  0.03087  0.33304  1.0000
  H   H205      1.0  0.00122  0.11395  0.36531  1.0000
  Fe  Fe62      1.0  0.44161  0.37806  0.34174  1.0000
  S   S121      1.0  0.42645  0.36488  0.34646  1.0000
  S   S122      1.0  0.43520  0.40086  0.33792  1.0000
  Fe  Fe63      1.0  0.46660  0.35469  0.33959  1.0000
  S   S123      1.0  0.45362  0.33925  0.34387  1.0000
  C   C208      1.0  0.09873  0.33361  0.18991  1.0000
  Fe  Fe64      1.0  0.44087  0.35461  0.32996  1.0000
  S   S124      1.0  0.43270  0.35244  0.31275  1.0000
  Fe  Fe65      1.0  0.44013  0.35062  0.36004  1.0000
  H   H206      1.0  0.24300  0.15259  0.29331  1.0000
  S   S125      1.0  0.45508  0.36906  0.32415  1.0000
  S   S126      1.0  0.45408  0.36481  0.35689  1.0000
  Fe  Fe66      1.0  0.34553  0.43576  0.34363  1.0000
  S   S127      1.0  0.36014  0.44718  0.34592  1.0000
  S   S128      1.0  0.34804  0.42676  0.32536  1.0000
  C   C209      1.0  0.30595  0.38760  0.34162  1.0000
  H   H207      1.0  0.12212  0.03227  0.32677  1.0000
  Fe  Fe67      1.0  0.34117  0.45946  0.35770  1.0000
  H   H208      1.0  0.19274  0.26142  0.19325  1.0000
  Fe  Fe68      1.0  0.36053  0.43217  0.36598  1.0000
  H   H209      1.0  0.48474  0.36483  0.35488  1.0000
  S   S129      1.0  0.32658  0.44906  0.35378  1.0000
  S   S130      1.0  0.34764  0.41988  0.36271  1.0000
  S   S131      1.0  0.18091  0.07264  0.34965  1.0000
  H   H210      1.0  0.40037  0.24391  0.23639  1.0000
  H   H211      1.0  0.18684  0.36478  0.26516  1.0000
  S   S132      1.0  0.07198  0.17371  0.33060  1.0000
  S   S133      1.0  0.04851  0.14778  0.34220  1.0000
  C   C210      1.0  0.15531  0.00839  0.33645  1.0000
  C   C211      1.0  0.12617  0.99407  0.36234  1.0000
  C   C212      1.0  0.04814  0.34555  0.20304  1.0000
  N   N19       1.0  0.00227  0.13364  0.32638  1.0000
  H   H212      1.0  0.09270  0.23820  0.32364  1.0000
  H   H213      1.0  0.14666  0.11627  0.38128  1.0000
  H   H214      1.0  0.30505  0.32358  0.29812  1.0000
  H   H215      1.0  0.13700  0.36013  0.22508  1.0000
  H   H216      1.0  0.12291  0.01169  0.31520  1.0000
  H   H217      1.0  0.30476  0.42940  0.25581  1.0000
  S   S134      1.0  0.14457  0.28554  0.20289  1.0000
  H   H218      1.0  0.13759  0.16728  0.35135  1.0000
  Fe  Fe69      1.0  0.23156  0.36462  0.20004  1.0000
  C   C213      1.0  0.38182  0.37910  0.38116  1.0000
  N   N20       1.0  0.13429  0.01195  0.32918  1.0000
  C   C214      1.0  0.41931  0.40625  0.34863  1.0000
  C   C215      1.0  0.41007  0.41809  0.34388  1.0000
  C   C216      1.0  0.39711  0.42216  0.35223  1.0000
  C   C217      1.0  0.39365  0.41469  0.36553  1.0000
  C   C218      1.0  0.40305  0.40306  0.37036  1.0000
  C   C219      1.0  0.41572  0.39865  0.36183  1.0000
  H   H219      1.0  0.41287  0.42405  0.33371  1.0000
  H   H220      1.0  0.38997  0.43125  0.34851  1.0000
  H   H221      1.0  0.22837  0.33088  0.21059  1.0000
  H   H222      1.0  0.42289  0.38960  0.36559  1.0000
  C   C220      1.0  0.18994  0.28250  0.18275  1.0000
  C   C221      1.0  0.30749  0.40609  0.23788  1.0000
  C   C222      1.0  0.20816  0.33285  0.20739  1.0000
  H   H223      1.0  0.31932  0.41634  0.25117  1.0000
  H   H224      1.0  0.42171  0.27629  0.23442  1.0000
  H   H225      1.0  0.30608  0.19303  0.19421  1.0000
  C   C223      1.0  0.37030  0.14051  0.21385  1.0000
  H   H226      1.0  0.17799  0.15694  0.35966  1.0000
  C   C224      1.0  0.13876  0.98816  0.36620  1.0000
  H   H227      1.0  0.31229  0.13815  0.18307  1.0000
  C   C225      1.0  0.10684  0.18589  0.33976  1.0000
  C   C226      1.0  0.10374  0.19067  0.32687  1.0000
  C   C227      1.0  0.09338  0.18641  0.32393  1.0000
  C   C228      1.0  0.08611  0.17738  0.33387  1.0000
  C   C229      1.0  0.08954  0.17221  0.34662  1.0000
  C   C230      1.0  0.09990  0.17649  0.34956  1.0000
  H   H228      1.0  0.10911  0.19785  0.31925  1.0000
  H   H229      1.0  0.09077  0.19036  0.31405  1.0000
  H   H230      1.0  0.08387  0.16534  0.35436  1.0000
  H   H231      1.0  0.10218  0.17289  0.35959  1.0000
  C   C231      1.0  0.09269  0.34465  0.19633  1.0000
  N   N21       1.0  0.20733  0.32168  0.19040  1.0000
  C   C232      1.0  0.32066  0.25534  0.36846  1.0000
  C   C233      1.0  0.39372  0.07253  0.18735  1.0000
  H   H232      1.0  0.10568  0.32487  0.19450  1.0000
  H   H233      1.0  0.07753  0.09208  0.32464  1.0000
  C   C234      1.0  0.11664  0.26629  0.28658  1.0000
  C   C235      1.0  0.12685  0.27032  0.28994  1.0000
  C   C236      1.0  0.13184  0.28180  0.28186  1.0000
  C   C237      1.0  0.12680  0.28928  0.27025  1.0000
  C   C238      1.0  0.11654  0.28531  0.26687  1.0000
  C   C239      1.0  0.11143  0.27388  0.27506  1.0000
  H   H234      1.0  0.13067  0.26482  0.29899  1.0000
  H   H235      1.0  0.13966  0.28490  0.28462  1.0000
  H   H236      1.0  0.11243  0.29114  0.25805  1.0000
  H   H237      1.0  0.10342  0.27091  0.27249  1.0000
  C   C240      1.0  0.34539  0.10693  0.20439  1.0000
  H   H238      1.0  0.13814  0.04157  0.33352  1.0000
  C   C241      1.0  0.33112  0.09174  0.20511  1.0000
  C   C242      1.0  0.33386  0.10127  0.21066  1.0000
  H   H239      1.0  0.32230  0.08723  0.21012  1.0000
  H   H240      1.0  0.32725  0.10393  0.22000  1.0000
  C   C243      1.0  0.18455  0.11591  0.34755  1.0000
  C   C244      1.0  0.19593  0.10640  0.34241  1.0000
  C   C245      1.0  0.19477  0.09305  0.34351  1.0000
  C   C246      1.0  0.18220  0.08913  0.34965  1.0000
  C   C247      1.0  0.17080  0.09862  0.35489  1.0000
  C   C248      1.0  0.17198  0.11200  0.35380  1.0000
  H   H241      1.0  0.20564  0.10933  0.33748  1.0000
  H   H242      1.0  0.20362  0.08576  0.33944  1.0000
  H   H243      1.0  0.16112  0.09566  0.35979  1.0000
  C   C249      1.0  0.00359  0.14666  0.36201  1.0000
  C   C250      1.0  0.20686  0.18944  0.30426  1.0000
  C   C251      1.0  0.20695  0.20086  0.29352  1.0000
  C   C252      1.0  0.19516  0.20704  0.28823  1.0000
  C   C253      1.0  0.18315  0.20208  0.29398  1.0000
  C   C254      1.0  0.18296  0.19079  0.30491  1.0000
  C   C255      1.0  0.19492  0.18430  0.30990  1.0000
  H   H244      1.0  0.21617  0.20486  0.28920  1.0000
  H   H245      1.0  0.19527  0.21581  0.27984  1.0000
  H   H246      1.0  0.17367  0.18692  0.30929  1.0000
  H   H247      1.0  0.19486  0.17543  0.31817  1.0000
  C   C256      1.0  0.26382  0.12487  0.29282  1.0000
  C   C257      1.0  0.27006  0.12286  0.27954  1.0000
  C   C258      1.0  0.28270  0.12652  0.27278  1.0000
  C   C259      1.0  0.28935  0.13185  0.27944  1.0000
  C   C260      1.0  0.28330  0.13349  0.29285  1.0000
  C   C261      1.0  0.27055  0.13008  0.29949  1.0000
  H   H248      1.0  0.26501  0.11864  0.27439  1.0000
  H   H249      1.0  0.28738  0.12507  0.26250  1.0000
  H   H250      1.0  0.28851  0.13739  0.29811  1.0000
  H   H251      1.0  0.26610  0.13120  0.30987  1.0000
  C   C262      1.0  0.31056  0.41744  0.31730  1.0000
  C   C263      1.0  0.32392  0.41109  0.31160  1.0000
  C   C264      1.0  0.33534  0.41413  0.31402  1.0000
  C   C265      1.0  0.33348  0.42338  0.32230  1.0000
  C   C266      1.0  0.32012  0.42978  0.32791  1.0000
  C   C267      1.0  0.30873  0.42691  0.32531  1.0000
  H   H252      1.0  0.32547  0.40384  0.30534  1.0000
  H   H253      1.0  0.34565  0.40925  0.30952  1.0000
  H   H254      1.0  0.31856  0.43709  0.33411  1.0000
  H   H255      1.0  0.29843  0.43202  0.32959  1.0000
  C   C268      1.0  0.18012  0.35581  0.22894  1.0000
  C   C269      1.0  0.17878  0.36406  0.21616  1.0000
  C   C270      1.0  0.17196  0.36071  0.20810  1.0000
  C   C271      1.0  0.16600  0.34934  0.21299  1.0000
  C   C272      1.0  0.16661  0.34148  0.22608  1.0000
  C   C273      1.0  0.17373  0.34469  0.23403  1.0000
  H   H256      1.0  0.18289  0.37312  0.21252  1.0000
  H   H257      1.0  0.17133  0.36695  0.19806  1.0000
  H   H258      1.0  0.16195  0.33271  0.22993  1.0000
  H   H259      1.0  0.17460  0.33832  0.24397  1.0000
  C   C274      1.0  0.25491  0.37962  0.24538  1.0000
  C   C275      1.0  0.26612  0.37378  0.25171  1.0000
  C   C276      1.0  0.26852  0.37998  0.26095  1.0000
  C   C277      1.0  0.25976  0.39215  0.26394  1.0000
  C   C278      1.0  0.24853  0.39802  0.25760  1.0000
  C   C279      1.0  0.24610  0.39179  0.24834  1.0000
  H   H260      1.0  0.27294  0.36432  0.24952  1.0000
  H   H261      1.0  0.27715  0.37532  0.26576  1.0000
  H   H262      1.0  0.24171  0.40747  0.25983  1.0000
  H   H263      1.0  0.23742  0.39637  0.24353  1.0000
  C   C280      1.0  0.19734  0.22955  0.33707  1.0000
  C   C281      1.0  0.18858  0.23388  0.34867  1.0000
  C   C282      1.0  0.17428  0.23632  0.35038  1.0000
  C   C283      1.0  0.16863  0.23407  0.34069  1.0000
  C   C284      1.0  0.17734  0.22978  0.32902  1.0000
  C   C285      1.0  0.19170  0.22760  0.32717  1.0000
  H   H264      1.0  0.19279  0.23541  0.35634  1.0000
  H   H265      1.0  0.16758  0.23971  0.35937  1.0000
  H   H266      1.0  0.17305  0.22797  0.32150  1.0000
  H   H267      1.0  0.19843  0.22418  0.31820  1.0000
  C   C286      1.0  0.24465  0.14998  0.36614  1.0000
  H   H268      1.0  0.23795  0.13472  0.25901  1.0000
  H   H269      1.0  0.08252  0.23786  0.31257  1.0000
  H   H270      1.0  0.03754  0.12584  0.33598  1.0000
  C   C287      1.0  0.24069  0.17450  0.36374  1.0000
  C   C288      1.0  0.23820  0.16324  0.36061  1.0000
  C   C289      1.0  0.37205  0.14229  0.18948  1.0000
  H   H271      1.0  0.26798  0.41817  0.24679  1.0000
  H   H272      1.0  0.23595  0.18468  0.35921  1.0000
  H   H273      1.0  0.23136  0.16481  0.35391  1.0000
  C   C290      1.0  0.28910  0.33735  0.35769  1.0000
  C   C291      1.0  0.29454  0.32691  0.35042  1.0000
  C   C292      1.0  0.29843  0.33008  0.33615  1.0000
  C   C293      1.0  0.29707  0.34370  0.32911  1.0000
  C   C294      1.0  0.29181  0.35417  0.33637  1.0000
  C   C295      1.0  0.28775  0.35099  0.35066  1.0000
  H   H274      1.0  0.29553  0.31639  0.35574  1.0000
  H   H275      1.0  0.30243  0.32197  0.33055  1.0000
  H   H276      1.0  0.29070  0.36470  0.33097  1.0000
  H   H277      1.0  0.28347  0.35909  0.35626  1.0000
  C   C296      1.0  0.18312  0.40489  0.19644  1.0000
  C   C297      1.0  0.35577  0.19324  0.23192  1.0000
  C   C298      1.0  0.35120  0.20129  0.22029  1.0000
  C   C299      1.0  0.34191  0.19751  0.21533  1.0000
  C   C300      1.0  0.33689  0.18576  0.22204  1.0000
  C   C301      1.0  0.34128  0.17772  0.23381  1.0000
  C   C302      1.0  0.35073  0.18146  0.23876  1.0000
  H   H278      1.0  0.35478  0.21052  0.21511  1.0000
  H   H279      1.0  0.33874  0.20368  0.20616  1.0000
  H   H280      1.0  0.33731  0.16873  0.23920  1.0000
  H   H281      1.0  0.35417  0.17523  0.24782  1.0000
  C   C303      1.0  0.41139  0.31868  0.31422  1.0000
  C   C304      1.0  0.41340  0.32891  0.30250  1.0000
  C   C305      1.0  0.42008  0.33907  0.30218  1.0000
  C   C306      1.0  0.42467  0.33921  0.31360  1.0000
  C   C307      1.0  0.42252  0.32907  0.32538  1.0000
  C   C308      1.0  0.41596  0.31882  0.32565  1.0000
  H   H282      1.0  0.41001  0.32886  0.29361  1.0000
  H   H283      1.0  0.42182  0.34678  0.29297  1.0000
  H   H284      1.0  0.42605  0.32903  0.33422  1.0000
  H   H285      1.0  0.41451  0.31089  0.33473  1.0000
  C   C309      1.0  0.36635  0.35049  0.25673  1.0000
  C   C310      1.0  0.36507  0.36104  0.24527  1.0000
  C   C311      1.0  0.35415  0.37246  0.24600  1.0000
  C   C312      1.0  0.34434  0.37343  0.25817  1.0000
  C   C313      1.0  0.34558  0.36292  0.26974  1.0000
  C   C314      1.0  0.35665  0.35146  0.26904  1.0000
  H   H286      1.0  0.37254  0.36038  0.23576  1.0000
  H   H287      1.0  0.35329  0.38055  0.23705  1.0000
  H   H288      1.0  0.33802  0.36359  0.27919  1.0000
  H   H289      1.0  0.35753  0.34332  0.27792  1.0000
  C   C315      1.0  0.34220  0.29341  0.32529  1.0000
  C   C316      1.0  0.35355  0.28701  0.33118  1.0000
  C   C317      1.0  0.35165  0.28226  0.34532  1.0000
  C   C318      1.0  0.33842  0.28425  0.35365  1.0000
  C   C319      1.0  0.32703  0.29046  0.34775  1.0000
  C   C320      1.0  0.32892  0.29492  0.33357  1.0000
  H   H290      1.0  0.36382  0.28575  0.32488  1.0000
  H   H291      1.0  0.36049  0.27738  0.34984  1.0000
  H   H292      1.0  0.31680  0.29197  0.35406  1.0000
  H   H293      1.0  0.32009  0.29982  0.32904  1.0000
  C   C321      1.0  0.39525  0.26712  0.25604  1.0000
  C   C322      1.0  0.38485  0.27702  0.25062  1.0000
  C   C323      1.0  0.38014  0.27506  0.24008  1.0000
  C   C324      1.0  0.38564  0.26312  0.23493  1.0000
  C   C325      1.0  0.39597  0.25310  0.24039  1.0000
  C   C326      1.0  0.40083  0.25516  0.25086  1.0000
  H   H294      1.0  0.38067  0.28636  0.25427  1.0000
  H   H295      1.0  0.37222  0.28289  0.23582  1.0000
  N   N22       1.0  0.14698  0.26474  0.25274  1.0000
  C   C327      1.0  0.14448  0.25205  0.25894  1.0000
  C   C328      1.0  0.15640  0.26936  0.25620  1.0000
  C   C329      1.0  0.15160  0.24358  0.26882  1.0000
  C   C330      1.0  0.16366  0.26117  0.26610  1.0000
  C   C331      1.0  0.16134  0.24814  0.27231  1.0000
  C   C332      1.0  0.14014  0.27310  0.24173  1.0000
  H   H296      1.0  0.13692  0.24842  0.25630  1.0000
  H   H297      1.0  0.15818  0.27954  0.25147  1.0000
  H   H298      1.0  0.14961  0.23351  0.27377  1.0000
  H   H299      1.0  0.17098  0.26494  0.26897  1.0000
  H   H300      1.0  0.16701  0.24157  0.27988  1.0000
  H   H301      1.0  0.12973  0.27118  0.24330  1.0000
  H   H302      1.0  0.13866  0.28412  0.24141  1.0000
  H   H303      1.0  0.14644  0.27092  0.23174  1.0000
  S   S135      1.0  0.24268  0.22401  0.35600  1.0000
  H   H304      1.0  0.02492  0.14986  0.32961  1.0000
  H   H305      1.0  0.34117  0.34677  0.24847  1.0000
  S   S136      1.0  0.38238  0.21171  0.19936  1.0000
  Fe  Fe70      1.0  0.16023  0.06700  0.35771  1.0000
  H   H306      1.0  0.32433  0.23061  0.19739  1.0000
  S   S137      1.0  0.12457  0.07456  0.33108  1.0000
  C   C333      1.0  0.14603  0.00340  0.33266  1.0000
  C   C334      1.0  0.20607  0.12732  0.37909  1.0000
  C   C335      1.0  0.31147  0.23818  0.18269  1.0000
  N   N23       1.0  0.17099  0.08573  0.31921  1.0000
  C   C336      1.0  0.15735  0.08646  0.32028  1.0000
  C   C337      1.0  0.17525  0.09687  0.31961  1.0000
  C   C338      1.0  0.14754  0.09848  0.32210  1.0000
  C   C339      1.0  0.16572  0.10900  0.32160  1.0000
  C   C340      1.0  0.15177  0.10978  0.32285  1.0000
  C   C341      1.0  0.18108  0.07306  0.31715  1.0000
  H   H307      1.0  0.15395  0.07767  0.31985  1.0000
  H   H308      1.0  0.18606  0.09631  0.31877  1.0000
  H   H309      1.0  0.13672  0.09892  0.32306  1.0000
  H   H310      1.0  0.16916  0.11764  0.32234  1.0000
  H   H311      1.0  0.14425  0.11912  0.32441  1.0000
  H   H312      1.0  0.18324  0.07214  0.30638  1.0000
  H   H313      1.0  0.19090  0.07267  0.31980  1.0000
  H   H314      1.0  0.17721  0.06411  0.32404  1.0000
  H   H315      1.0  0.21513  0.14885  0.38014  1.0000
  H   H316      1.0  0.31891  0.30883  0.29668  1.0000
  S   S138      1.0  0.05034  0.16030  0.36723  1.0000
  C   C342      1.0  0.17164  0.20173  0.35297  1.0000
  C   C343      1.0  0.16209  0.28449  0.19571  1.0000
  S   S139      1.0  0.34277  0.44514  0.37789  1.0000
  H   H317      1.0  0.06806  0.33178  0.20085  1.0000
  C   C344      1.0  0.18937  0.19962  0.36418  1.0000
  H   H318      1.0  0.36622  0.04904  0.21364  1.0000
  H   H319      1.0  0.08276  0.20418  0.36276  1.0000
  C   C345      1.0  0.25552  0.14361  0.24858  1.0000
  C   C346      1.0  0.31039  0.42377  0.24753  1.0000
  C   C347      1.0  0.26406  0.15141  0.24945  1.0000
  C   C348      1.0  0.21403  0.35781  0.25937  1.0000
  C   C349      1.0  0.24233  0.14614  0.27113  1.0000
  C   C350      1.0  0.26164  0.15633  0.26129  1.0000
  H   H320      1.0  0.28807  0.20137  0.19653  1.0000
  H   H321      1.0  0.11135  0.36542  0.19177  1.0000
  H   H322      1.0  0.25753  0.13958  0.23948  1.0000
  H   H323      1.0  0.27273  0.14258  0.19281  1.0000
  H   H324      1.0  0.39953  0.08983  0.18987  1.0000
  H   H325      1.0  0.16317  0.11934  0.35777  1.0000
  H   H326      1.0  0.16428  0.00149  0.33982  1.0000
  C   C351      1.0  0.00792  0.14414  0.32606  1.0000
  H   H327      1.0  0.17014  0.21605  0.37821  1.0000
  C   C352      1.0  0.33988  0.08786  0.19326  1.0000
  C   C353      1.0  0.18546  0.27108  0.19157  1.0000
  C   C354      1.0  0.15839  0.16128  0.35428  1.0000
  C   C355      1.0  0.22794  0.35337  0.25993  1.0000
  Fe  Fe71      1.0  0.37078  0.23340  0.19465  1.0000
  Fe  Fe72      1.0  0.22110  0.22553  0.35455  1.0000
  H   H328      1.0  0.27259  0.15346  0.24101  1.0000
  C   C356      1.0  0.13568  0.38426  0.18326  1.0000
  Fe  Fe73      1.0  0.06051  0.12799  0.35200  1.0000
  H   H329      1.0  0.00456  0.11207  0.33032  1.0000
  C   C357      1.0  0.08102  0.10057  0.33968  1.0000
  S   S140      1.0  0.15443  0.05370  0.34755  1.0000
  C   C358      1.0  0.14562  0.99617  0.36977  1.0000
  C   C359      1.0  0.29700  0.22340  0.18325  1.0000
  C   C360      1.0  0.11903  0.37009  0.19285  1.0000
  C   C361      1.0  0.08358  0.35586  0.19037  1.0000
  H   H330      1.0  0.26855  0.16212  0.26199  1.0000
  H   H331      1.0  0.31824  0.35764  0.26061  1.0000
  H   H332      1.0  0.09404  0.22079  0.34454  1.0000
  H   H333      1.0  0.07512  0.07696  0.36695  1.0000
  C   C362      1.0  0.13470  0.37125  0.22063  1.0000
  S   S141      1.0  0.48999  0.34882  0.33421  1.0000
  H   H334      1.0  0.23394  0.14381  0.27966  1.0000
  C   C363      1.0  0.47833  0.39216  0.32831  1.0000
  C   C364      1.0  0.14445  0.16749  0.35744  1.0000
  S   S142      1.0  0.20738  0.41318  0.19150  1.0000
  C   C365      1.0  0.38386  0.06454  0.19183  1.0000
  S   S143      1.0  0.07657  0.13725  0.35430  1.0000
  H   H335      1.0  0.36266  0.48371  0.34666  1.0000
  C   C366      1.0  0.25043  0.25812  0.38001  1.0000
  C   C367      1.0  0.35397  0.10330  0.19237  1.0000
  C   C368      1.0  0.16568  0.20956  0.37449  1.0000
  H   H336      1.0  0.37954  0.09414  0.20923  1.0000
  C   C369      1.0  0.20075  0.32959  0.19984  1.0000
  H   H337      1.0  0.30207  0.12555  0.19101  1.0000
  H   H338      1.0  0.14384  0.37510  0.22018  1.0000
  H   H339      1.0  0.01638  0.12708  0.36844  1.0000
  C   C370      1.0  0.28531  0.15313  0.19767  1.0000
  H   H340      1.0  0.11763  0.15438  0.37366  1.0000
  C   C371      1.0  0.21171  0.37605  0.26993  1.0000
  H   H341      1.0  0.07624  0.15994  0.38155  1.0000
  N   N24       1.0  0.14811  0.17467  0.37591  1.0000
  H   H342      1.0  0.19258  0.20104  0.37261  1.0000
  C   C372      1.0  0.22241  0.32806  0.20514  1.0000
  C   C373      1.0  0.12922  0.11590  0.37400  1.0000
  S   S144      1.0  0.12437  0.05746  0.36946  1.0000
  C   C374      1.0  0.31650  0.22875  0.19346  1.0000
  S   S145      1.0  0.28318  0.14456  0.21481  1.0000
  H   H343      1.0  0.27772  0.42403  0.35998  1.0000
  H   H344      1.0  0.36326  0.13373  0.22018  1.0000
  N   N25       1.0  0.34427  0.31666  0.34616  1.0000
  C   C375      1.0  0.34887  0.30953  0.35773  1.0000
  C   C376      1.0  0.35341  0.31892  0.33393  1.0000
  C   C377      1.0  0.36293  0.30404  0.35713  1.0000
  C   C378      1.0  0.36754  0.31376  0.33303  1.0000
  C   C379      1.0  0.37231  0.30619  0.34467  1.0000
  C   C380      1.0  0.32952  0.32237  0.34691  1.0000
  H   H345      1.0  0.34163  0.30758  0.36741  1.0000
  H   H346      1.0  0.34979  0.32449  0.32472  1.0000
  N   N26       1.0  0.11701  0.12314  0.37058  1.0000
  H   H347      1.0  0.37478  0.31545  0.32335  1.0000
  H   H348      1.0  0.38327  0.30189  0.34391  1.0000
  H   H349      1.0  0.32666  0.32225  0.33745  1.0000
  H   H350      1.0  0.32317  0.31627  0.35550  1.0000
  H   H351      1.0  0.32680  0.33304  0.34828  1.0000
  H   H352      1.0  0.24192  0.16956  0.28284  1.0000
  H   H353      1.0  0.31514  0.38804  0.33307  1.0000
  S   S146      1.0  0.15301  0.05520  0.37877  1.0000
  H   H354      1.0  0.10136  0.07843  0.31973  1.0000
  Fe  Fe74      1.0  0.14520  0.04323  0.36853  1.0000
  H   H355      1.0  0.41685  0.28340  0.20451  1.0000
  H   H356      1.0  0.32018  0.32196  0.30418  1.0000
  S   S147      1.0  0.43152  0.33844  0.38048  1.0000
  C   C381      1.0  0.09838  0.08463  0.32730  1.0000
  H   H357      1.0  0.25824  0.15907  0.28647  1.0000
  Fe  Fe75      1.0  0.21601  0.39303  0.20422  1.0000
  C   C382      1.0  0.17082  0.40493  0.19324  1.0000
  H   H358      1.0  0.16800  0.26310  0.20441  1.0000
  H   H359      1.0  0.27851  0.39876  0.23508  1.0000
  C   C383      1.0  0.22132  0.31706  0.18802  1.0000
  H   H360      1.0  0.41271  0.26980  0.21885  1.0000
  C   C384      1.0  0.16715  0.16183  0.36202  1.0000
  H   H361      1.0  0.35243  0.06409  0.21203  1.0000
  N   N27       1.0  0.30208  0.21415  0.19373  1.0000
  H   H362      1.0  0.15649  0.21635  0.37079  1.0000
  H   H363      1.0  0.28093  0.24144  0.37546  1.0000
  H   H364      1.0  0.18971  0.33350  0.20146  1.0000
  H   H365      1.0  0.29723  0.38834  0.33700  1.0000
  H   H366      1.0  0.32037  0.12122  0.19027  1.0000
  S   S148      1.0  0.21146  0.23954  0.36916  1.0000
  C   C385      1.0  0.28502  0.40389  0.23754  1.0000
  C   C386      1.0  0.12210  0.36791  0.20559  1.0000
  S   S149      1.0  0.06389  0.10973  0.34315  1.0000
  H   H367      1.0  0.04919  0.34866  0.21175  1.0000
  C   C387      1.0  0.13732  0.12222  0.37793  1.0000
  H   H368      1.0  0.21372  0.35958  0.18389  1.0000
  N   N28       1.0  0.13185  0.37362  0.20708  1.0000
  C   C388      1.0  0.29931  0.39943  0.23446  1.0000
  C   C389      1.0  0.25627  0.15926  0.37758  1.0000
  H   H369      1.0  0.24451  0.35715  0.26603  1.0000
  C   C390      1.0  0.22555  0.37179  0.27079  1.0000
  H   H370      1.0  0.37963  0.39017  0.37894  1.0000
  C   C391      1.0  0.03630  0.35112  0.19779  1.0000
  H   H371      1.0  0.20969  0.35238  0.25470  1.0000
  H   H372      1.0  0.35988  0.21219  0.18991  1.0000
  H   H373      1.0  0.08763  0.10717  0.35419  1.0000
  H   H374      1.0  0.24019  0.31676  0.19327  1.0000
  C   C392      1.0  0.36252  0.05870  0.20671  1.0000
  H   H375      1.0  0.18610  0.39802  0.20545  1.0000
  H   H376      1.0  0.13261  0.10509  0.37406  1.0000
  H   H377      1.0  0.23434  0.34479  0.25552  1.0000
  N   N29       1.0  0.25093  0.15358  0.27198  1.0000
  C   C393      1.0  0.05749  0.33250  0.18542  1.0000
  N   N30       1.0  0.40031  0.38550  0.30894  1.0000
  C   C394      1.0  0.41035  0.38732  0.31401  1.0000
  C   C395      1.0  0.38756  0.39408  0.31041  1.0000
  C   C396      1.0  0.40785  0.39812  0.32051  1.0000
  C   C397      1.0  0.38472  0.40499  0.31686  1.0000
  C   C398      1.0  0.39494  0.40700  0.32195  1.0000
  C   C399      1.0  0.40307  0.37388  0.30250  1.0000
  H   H378      1.0  0.42041  0.38041  0.31303  1.0000
  H   H379      1.0  0.37950  0.39259  0.30657  1.0000
  H   H380      1.0  0.41589  0.39960  0.32436  1.0000
  H   H381      1.0  0.37467  0.41187  0.31790  1.0000
  H   H382      1.0  0.39283  0.41543  0.32699  1.0000
  H   H383      1.0  0.41376  0.37219  0.29620  1.0000
  H   H384      1.0  0.40200  0.36447  0.31047  1.0000
  H   H385      1.0  0.39599  0.37551  0.29565  1.0000
  H   H386      1.0  0.48421  0.32054  0.35821  1.0000
  Fe  Fe76      1.0  0.13296  0.07044  0.37768  1.0000
  H   H387      1.0  0.11067  0.01263  0.35937  1.0000
  C   C400      1.0  0.19930  0.19421  0.35373  1.0000
  C   C401      1.0  0.18130  0.19634  0.34234  1.0000
  C   C402      1.0  0.19521  0.19270  0.34269  1.0000
  H   H388      1.0  0.26686  0.28204  0.38090  1.0000
  C   C403      1.0  0.07701  0.08056  0.37495  1.0000
  Fe  Fe77      1.0  0.23293  0.23659  0.37205  1.0000
  H   H389      1.0  0.21013  0.19159  0.35396  1.0000
  H   H390      1.0  0.17811  0.19553  0.33359  1.0000
  H   H391      1.0  0.20285  0.18900  0.33428  1.0000
  H   H392      1.0  0.16090  0.20507  0.35235  1.0000
  H   H393      1.0  0.10339  0.14265  0.36724  1.0000
  C   C404      1.0  0.07944  0.20800  0.35317  1.0000
  N   N31       1.0  0.40707  0.28976  0.22319  1.0000
  C   C405      1.0  0.39797  0.30212  0.22158  1.0000
  C   C406      1.0  0.41467  0.28616  0.23294  1.0000
  C   C407      1.0  0.39620  0.31117  0.22998  1.0000
  C   C408      1.0  0.41312  0.29495  0.24153  1.0000
  C   C409      1.0  0.40388  0.30756  0.23996  1.0000
  C   C410      1.0  0.40913  0.28064  0.21396  1.0000
  H   H394      1.0  0.39197  0.30498  0.21383  1.0000
  C   C411      1.0  0.48916  0.32446  0.36376  1.0000
  H   H395      1.0  0.38892  0.32094  0.22884  1.0000
  H   H396      1.0  0.30402  0.39084  0.22953  1.0000
  H   H397      1.0  0.40261  0.31452  0.24649  1.0000
  Fe  Fe78      1.0  0.32988  0.43388  0.37305  1.0000
  H   H398      1.0  0.39931  0.28124  0.21121  1.0000
  C   C412      1.0  0.27911  0.41484  0.24403  1.0000
  S   S150      1.0  0.38920  0.24223  0.19127  1.0000
  S   S151      1.0  0.29541  0.29227  0.37741  1.0000
  H   H399      1.0  0.36048  0.05631  0.19779  1.0000
  H   H400      1.0  0.32005  0.41296  0.36296  1.0000
  H   H401      1.0  0.35038  0.16253  0.21003  1.0000
  C   C413      1.0  0.13856  0.38178  0.19614  1.0000
  H   H402      1.0  0.07890  0.36444  0.19529  1.0000
  C   C414      1.0  0.22905  0.32009  0.19543  1.0000
  H   H403      1.0  0.16242  0.15608  0.34581  1.0000
  C   C415      1.0  0.00910  0.12039  0.32992  1.0000
  C   C416      1.0  0.37143  0.07736  0.20877  1.0000
  H   H404      1.0  0.47957  0.40334  0.34224  1.0000
  H   H405      1.0  0.15539  0.99153  0.37270  1.0000
  C   C417      1.0  0.13311  0.13612  0.37788  1.0000
  C   C418      1.0  0.35539  0.15870  0.20081  1.0000
  N   N32       1.0  0.26524  0.17992  0.33778  1.0000
  C   C419      1.0  0.26096  0.17372  0.33022  1.0000
  C   C420      1.0  0.25938  0.19325  0.33854  1.0000
  C   C421      1.0  0.25042  0.18082  0.32335  1.0000
  C   C422      1.0  0.24870  0.20061  0.33189  1.0000
  C   C423      1.0  0.24415  0.19431  0.32432  1.0000
  C   C424      1.0  0.27643  0.17224  0.34472  1.0000
  H   H406      1.0  0.26558  0.16315  0.32960  1.0000
  H   H407      1.0  0.26269  0.19816  0.34461  1.0000
  H   H408      1.0  0.24710  0.17588  0.31735  1.0000
  H   H409      1.0  0.24387  0.21110  0.33267  1.0000
  H   H410      1.0  0.23576  0.19986  0.31923  1.0000
  H   H411      1.0  0.27687  0.17717  0.35274  1.0000
  H   H412      1.0  0.27478  0.16183  0.34997  1.0000
  H   H413      1.0  0.28645  0.17142  0.33724  1.0000
  S   S152      1.0  0.37770  0.41965  0.37638  1.0000
  C   C425      1.0  0.27931  0.14984  0.18887  1.0000
  S   S153      1.0  0.33370  0.48218  0.35820  1.0000
  C   C426      1.0  0.25539  0.27015  0.37615  1.0000
  C   C427      1.0  0.31161  0.21675  0.19892  1.0000
  H   H414      1.0  0.32421  0.39463  0.35044  1.0000
  H   H415      1.0  0.40470  0.35189  0.37023  1.0000
  H   H416      1.0  0.42569  0.36706  0.38151  1.0000
  C   C428      1.0  0.19136  0.41390  0.18818  1.0000
  H   H417      1.0  0.31861  0.40259  0.23543  1.0000
  N   N33       1.0  0.48156  0.33062  0.37434  1.0000
  S   S154      1.0  0.01322  0.15632  0.36563  1.0000
  H   H418      1.0  0.09300  0.06300  0.37989  1.0000
  C   C429      1.0  0.39217  0.08328  0.19357  1.0000
  H   H419      1.0  0.29815  0.16540  0.19930  1.0000
  N   N34       1.0  0.30336  0.39879  0.34863  1.0000
  C   C430      1.0  0.31391  0.40083  0.35279  1.0000
  C   C431      1.0  0.29046  0.40693  0.35122  1.0000
  C   C432      1.0  0.31167  0.41121  0.35980  1.0000
  C   C433      1.0  0.28788  0.41743  0.35817  1.0000
  C   C434      1.0  0.29856  0.41954  0.36249  1.0000
  H   H420      1.0  0.11659  0.36163  0.21427  1.0000
  C   C435      1.0  0.13944  0.17419  0.36835  1.0000
  H   H421      1.0  0.06466  0.19534  0.35858  1.0000
  N   N35       1.0  0.36594  0.14740  0.20101  1.0000
  C   C436      1.0  0.10821  0.11629  0.36718  1.0000
  H   H422      1.0  0.36263  0.07951  0.21702  1.0000
  C   C437      1.0  0.24986  0.17253  0.37214  1.0000
  C   C438      1.0  0.05874  0.33606  0.19694  1.0000
  S   S155      1.0  0.24272  0.35109  0.18499  1.0000
  N   N36       1.0  0.08205  0.22186  0.33048  1.0000
  C   C439      1.0  0.08581  0.21739  0.34279  1.0000
  C   C440      1.0  0.07226  0.21690  0.32804  1.0000
  H   H423      1.0  0.02801  0.35856  0.20241  1.0000
  C   C441      1.0  0.06568  0.20748  0.33818  1.0000
  C   C442      1.0  0.02190  0.11740  0.33339  1.0000
  C   C443      1.0  0.08926  0.23124  0.31953  1.0000
  H   H424      1.0  0.36291  0.10764  0.18750  1.0000
  H   H425      1.0  0.06972  0.21994  0.31809  1.0000
  H   H426      1.0  0.20555  0.38514  0.27356  1.0000
  H   H427      1.0  0.05829  0.20317  0.33606  1.0000
  H   H428      1.0  0.38508  0.05631  0.18681  1.0000
  C   C444      1.0  0.38102  0.08567  0.20443  1.0000
  C   C445      1.0  0.03533  0.34721  0.18634  1.0000
  C   C446      1.0  0.28822  0.24695  0.36739  1.0000
  H   H429      1.0  0.20294  0.33923  0.21477  1.0000
  H   H430      1.0  0.19090  0.37985  0.25311  1.0000
  H   H431      1.0  0.06177  0.09928  0.37227  1.0000
  C   C447      1.0  0.17150  0.27202  0.19788  1.0000
  N   N37       1.0  0.37275  0.06718  0.20225  1.0000
  C   C448      1.0  0.08491  0.09236  0.33007  1.0000
  N   N38       1.0  0.30158  0.41671  0.24443  1.0000
  S   S156      1.0  0.33645  0.07554  0.18684  1.0000
  H   H432      1.0  0.28224  0.25712  0.36322  1.0000
  H   H433      1.0  0.12567  0.37640  0.22747  1.0000
  C   C449      1.0  0.09062  0.10090  0.34670  1.0000
  C   C450      1.0  0.06931  0.20303  0.35082  1.0000
  N   N39       1.0  0.20607  0.36892  0.26449  1.0000
  C   C451      1.0  0.23366  0.36033  0.26581  1.0000
  N   N40       1.0  0.37577  0.22072  0.26027  1.0000
  C   C452      1.0  0.36660  0.22776  0.25222  1.0000
  C   C453      1.0  0.37944  0.22718  0.26807  1.0000
  C   C454      1.0  0.36086  0.24164  0.25179  1.0000
  C   C455      1.0  0.37372  0.24101  0.26806  1.0000
  C   C456      1.0  0.36437  0.24825  0.25985  1.0000
  C   C457      1.0  0.38174  0.20623  0.26029  1.0000
  H   H434      1.0  0.36375  0.22265  0.24600  1.0000
  H   H435      1.0  0.38690  0.22172  0.27427  1.0000
  H   H436      1.0  0.35396  0.24729  0.24501  1.0000
  H   H437      1.0  0.37682  0.24620  0.27405  1.0000
  H   H438      1.0  0.36019  0.25908  0.25942  1.0000
  H   H439      1.0  0.38782  0.20497  0.24992  1.0000
  H   H440      1.0  0.38860  0.20150  0.26758  1.0000
  H   H441      1.0  0.37341  0.20051  0.26308  1.0000
  N   N41       1.0  0.32301  0.32717  0.28272  1.0000
  C   C458      1.0  0.33575  0.32119  0.27617  1.0000
  C   C459      1.0  0.31674  0.34011  0.27729  1.0000
  C   C460      1.0  0.34240  0.32808  0.26369  1.0000
  C   C461      1.0  0.32307  0.34727  0.26479  1.0000
  C   C462      1.0  0.33595  0.34116  0.25794  1.0000
  C   C463      1.0  0.31644  0.32001  0.29604  1.0000
  H   H442      1.0  0.34089  0.31109  0.28068  1.0000
  H   H443      1.0  0.30686  0.34499  0.28275  1.0000
  H   H444      1.0  0.35266  0.32349  0.25867  1.0000
  H   H445      1.0  0.37006  0.14806  0.21970  1.0000
  Fe  Fe79      1.0  0.06323  0.15726  0.34665  1.0000
  C   C464      1.0  0.35126  0.09372  0.18685  1.0000
  S   S157      1.0  0.33647  0.27942  0.37139  1.0000
  C   C465      1.0  0.24456  0.14094  0.25948  1.0000
  H   H446      1.0  0.31547  0.20949  0.20731  1.0000
  H   H447      1.0  0.10860  0.11919  0.35605  1.0000
  C   C466      1.0  0.29800  0.20099  0.19890  1.0000
  C   C467      1.0  0.29380  0.16253  0.19251  1.0000
  H   H448      1.0  0.46714  0.39425  0.33081  1.0000
  C   C468      1.0  0.25355  0.14804  0.37474  1.0000
  H   H449      1.0  0.28219  0.40559  0.34757  1.0000
  S   S158      1.0  0.23858  0.38300  0.20030  1.0000
  H   H450      1.0  0.29682  0.19784  0.21015  1.0000
  Fe  Fe80      1.0  0.13415  0.06853  0.34910  1.0000
  H   H451      1.0  0.39976  0.37717  0.36480  1.0000
  C   C469      1.0  0.16665  0.29606  0.18738  1.0000
  S   S159      1.0  0.20950  0.37524  0.20199  1.0000
  H   H452      1.0  0.11133  0.09274  0.34990  1.0000
  H   H453      1.0  0.09844  0.22540  0.31344  1.0000
  H   H454      1.0  0.23008  0.37751  0.27498  1.0000
  S   S160      1.0  0.21531  0.22615  0.33515  1.0000
  C   C470      1.0  0.10789  0.08468  0.33449  1.0000
  H   H455      1.0  0.15939  0.30574  0.18578  1.0000
  C   C471      1.0  0.28757  0.42113  0.24749  1.0000
  S   S161      1.0  0.14068  0.08285  0.35718  1.0000
  H   H456      1.0  0.41884  0.29187  0.24955  1.0000
  C   C472      1.0  0.15252  0.02219  0.33671  1.0000
  C   C473      1.0  0.10400  0.09273  0.34430  1.0000
  C   C474      1.0  0.19160  0.37360  0.26347  1.0000
  H   H457      1.0  0.12302  0.02677  0.36527  1.0000
  C   C475      1.0  0.48542  0.39725  0.33475  1.0000
  C   C476      1.0  0.02768  0.12804  0.33318  1.0000
  H   H458      1.0  0.30753  0.37762  0.34886  1.0000
  H   H459      1.0  0.14618  0.38648  0.19728  1.0000
  H   H460      1.0  0.31429  0.43106  0.23827  1.0000
  C   C477      1.0  0.12742  0.01604  0.36560  1.0000
  Fe  Fe81      1.0  0.03643  0.14905  0.36337  1.0000
  H   H461      1.0  0.38097  0.13425  0.21201  1.0000
  H   H462      1.0  0.28281  0.42943  0.25283  1.0000
  H   H463      1.0  0.32926  0.25919  0.36135  1.0000
  C   C478      1.0  0.12433  0.00661  0.32568  1.0000
  C   C479      1.0  0.14010  0.01018  0.36930  1.0000
  H   H464      1.0  0.42136  0.18347  0.18390  1.0000
  C   C480      1.0  0.00714  0.13240  0.36472  1.0000
  C   C481      1.0  0.02065  0.14151  0.32954  1.0000
  H   H465      1.0  0.31054  0.25609  0.35283  1.0000
  C   C482      1.0  0.31224  0.12721  0.18460  1.0000
  H   H466      1.0  0.02615  0.35169  0.18223  1.0000
  N   N42       1.0  0.17580  0.20359  0.36355  1.0000
  C   C483      1.0  0.39306  0.37180  0.37319  1.0000
  H   H467      1.0  0.15932  0.02599  0.34030  1.0000
  S   S162      1.0  0.42084  0.21041  0.18666  1.0000
  H   H468      1.0  0.22128  0.27905  0.38085  1.0000
  H   H469      1.0  0.36646  0.29793  0.36622  1.0000
  H   H470      1.0  0.40050  0.39742  0.38072  1.0000
  H   H471      1.0  0.11137  0.10500  0.37021  1.0000
  C   C484      1.0  0.12046  0.00799  0.36224  1.0000
  H   H472      1.0  0.02726  0.10691  0.33635  1.0000
  H   H473      1.0  0.29678  0.42772  0.36779  1.0000
  H   H474      1.0  0.14798  0.99254  0.33309  1.0000
  C   C485      1.0  0.06955  0.09316  0.37789  1.0000
  S   S163      1.0  0.04756  0.12853  0.37301  1.0000
  H   H475      1.0  0.18861  0.31898  0.18776  1.0000
  C   C486      1.0  0.35092  0.16543  0.18875  1.0000
  S   S164      1.0  0.21846  0.20674  0.37041  1.0000
  H   H476      1.0  0.12858  0.17910  0.37068  1.0000
  H   H477      1.0  0.48049  0.37990  0.31389  1.0000
  C   C487      1.0  0.99848  0.12498  0.36302  1.0000
  S   S165      1.0  0.24025  0.25577  0.37015  1.0000
  H   H478      1.0  0.25329  0.27753  0.36703  1.0000
  C   C488      1.0  0.39579  0.35752  0.37632  1.0000
  S   S166      1.0  0.28402  0.33353  0.37555  1.0000
  S   S167      1.0  0.14968  0.02003  0.37278  1.0000
  H   H479      1.0  0.38019  0.13313  0.18970  1.0000
  H   H480      1.0  0.19833  0.11515  0.37039  1.0000
  C   C489      1.0  0.31007  0.25350  0.36372  1.0000
  H   H481      1.0  0.34253  0.17442  0.18865  1.0000
  Fe  Fe82      1.0  0.23911  0.20622  0.37320  1.0000
  H   H482      1.0  0.29257  0.24103  0.35920  1.0000
  H   H483      1.0  0.21454  0.12872  0.37036  1.0000
  N   N43       1.0  0.29924  0.24860  0.37267  1.0000
  H   H484      1.0  0.16876  0.16916  0.37867  1.0000
  C   C490      1.0  0.16183  0.16870  0.37280  1.0000
  C   C491      1.0  0.46675  0.33112  0.37892  1.0000
  S   S168      1.0  0.25459  0.18631  0.37498  1.0000
  H   H485      1.0  0.11428  0.00832  0.33309  1.0000
  H   H486      1.0  0.25854  0.13781  0.37905  1.0000
  C   C492      1.0  0.11300  0.13686  0.37010  1.0000
  H   H487      1.0  0.13912  0.14107  0.38121  1.0000
  H   H488      1.0  0.46238  0.32983  0.37087  1.0000
  H   H489      1.0  0.09739  0.11926  0.37279  1.0000
  C   C493      1.0  0.48579  0.38421  0.31875  1.0000
  Fe  Fe83      1.0  0.06279  0.13949  0.37471  1.0000
  H   H490      1.0  0.00248  0.15463  0.32334  1.0000
  H   H491      1.0  0.12765  0.99541  0.32626  1.0000
  C   C494      1.0  0.12102  0.14357  0.37368  1.0000
  C   C495      1.0  0.48782  0.33583  0.38110  1.0000
  H   H492      1.0  0.46100  0.34110  0.38155  1.0000
  C   C496      1.0  0.19948  0.31884  0.18219  1.0000
  H   H493      1.0  0.13676  0.09069  0.57963  1.0000
  H   H494      1.0  0.18021  0.23416  0.57102  1.0000
  Fe  Fe84      1.0  0.28752  0.28281  0.39930  1.0000
  S   S169      1.0  0.28167  0.30256  0.40654  1.0000
  S   S170      1.0  0.27517  0.26625  0.40614  1.0000
  C   C497      1.0  0.11962  0.18487  0.51095  1.0000
  Fe  Fe85      1.0  0.30311  0.29747  0.41011  1.0000
  S   S171      1.0  0.30646  0.30197  0.42884  1.0000
  S   S172      1.0  0.30822  0.27689  0.40488  1.0000
  H   H495      1.0  0.37457  0.40853  0.40707  1.0000
  N   N44       1.0  0.08234  0.09027  0.39485  1.0000
  C   C498      1.0  0.31060  0.34710  0.40446  1.0000
  H   H496      1.0  0.14063  0.19330  0.38273  1.0000
  N   N45       1.0  0.38763  0.35073  0.38723  1.0000
  H   H497      1.0  0.23836  0.23420  0.56312  1.0000
  H   H498      1.0  0.48180  0.34068  0.38950  1.0000
  H   H499      1.0  0.32939  0.43396  0.40501  1.0000
  S   S173      1.0  0.19066  0.21800  0.40093  1.0000
  C   C499      1.0  0.14175  0.11556  0.52384  1.0000
  C   C500      1.0  0.20526  0.26113  0.39407  1.0000
  Fe  Fe86      1.0  0.38143  0.34749  0.57056  1.0000
  C   C501      1.0  0.33445  0.32700  0.54265  1.0000
  H   H500      1.0  0.35509  0.42646  0.40004  1.0000
  Fe  Fe87      1.0  0.35935  0.35863  0.55396  1.0000
  S   S174      1.0  0.34213  0.35601  0.57259  1.0000
  S   S175      1.0  0.35537  0.36845  0.53269  1.0000
  H   H501      1.0  0.33154  0.44421  0.41538  1.0000
  C   C502      1.0  0.32423  0.35374  0.50647  1.0000
  H   H502      1.0  0.40435  0.34708  0.49634  1.0000
  H   H503      1.0  0.10294  0.15604  0.56498  1.0000
  S   S176      1.0  0.36990  0.36876  0.56347  1.0000
  S   S177      1.0  0.37233  0.33768  0.55951  1.0000
  S   S178      1.0  0.31229  0.30771  0.38911  1.0000
  Fe  Fe88      1.0  0.35486  0.34319  0.43761  1.0000
  S   S179      1.0  0.35546  0.36474  0.42689  1.0000
  S   S180      1.0  0.35443  0.33173  0.42221  1.0000
  Fe  Fe89      1.0  0.35808  0.34815  0.46417  1.0000
  S   S181      1.0  0.35906  0.37007  0.45509  1.0000
  S   S182      1.0  0.35990  0.33776  0.48609  1.0000
  Fe  Fe90      1.0  0.34176  0.37059  0.44582  1.0000
  S   S183      1.0  0.32344  0.38813  0.44462  1.0000
  Fe  Fe91      1.0  0.37279  0.36232  0.43668  1.0000
  S   S184      1.0  0.39007  0.37209  0.42309  1.0000
  S   S185      1.0  0.33954  0.34918  0.45618  1.0000
  S   S186      1.0  0.37334  0.34026  0.44630  1.0000
  H   H504      1.0  0.19508  0.21504  0.56037  1.0000
  H   H505      1.0  0.09752  0.07172  0.39761  1.0000
  C   C503      1.0  0.29007  0.33497  0.42262  1.0000
  Fe  Fe92      1.0  0.13060  0.16552  0.55632  1.0000
  S   S187      1.0  0.14786  0.17442  0.54155  1.0000
  H   H506      1.0  0.40153  0.33134  0.38663  1.0000
  Fe  Fe93      1.0  0.14516  0.13674  0.55411  1.0000
  S   S188      1.0  0.16388  0.14299  0.53951  1.0000
  S   S189      1.0  0.14113  0.11559  0.56079  1.0000
  Fe  Fe94      1.0  0.16150  0.15735  0.55318  1.0000
  S   S190      1.0  0.17996  0.15970  0.55938  1.0000
  Fe  Fe95      1.0  0.14866  0.15948  0.52908  1.0000
  S   S191      1.0  0.15266  0.16528  0.50584  1.0000
  S   S192      1.0  0.14415  0.14937  0.56874  1.0000
  S   S193      1.0  0.13006  0.15230  0.54284  1.0000
  H   H507      1.0  0.13410  0.20168  0.52468  1.0000
  C   C504      1.0  0.42077  0.34779  0.39266  1.0000
  H   H508      1.0  0.19924  0.18593  0.57910  1.0000
  N   N46       1.0  0.21983  0.22824  0.56420  1.0000
  H   H509      1.0  0.13029  0.10973  0.51279  1.0000
  H   H510      1.0  0.09106  0.08772  0.41199  1.0000
  S   S194      1.0  0.12025  0.08304  0.39319  1.0000
  S   S195      1.0  0.23107  0.21854  0.38958  1.0000
  C   C505      1.0  0.36491  0.41065  0.41443  1.0000
  H   H511      1.0  0.32731  0.35160  0.41711  1.0000
  C   C506      1.0  0.21911  0.27737  0.39216  1.0000
  C   C507      1.0  0.09726  0.15892  0.57453  1.0000
  C   C508      1.0  0.15269  0.12140  0.52272  1.0000
  H   H512      1.0  0.17540  0.12047  0.48278  1.0000
  N   N47       1.0  0.15759  0.12455  0.49832  1.0000
  S   S196      1.0  0.07356  0.13167  0.39236  1.0000
  H   H513      1.0  0.11469  0.19505  0.54019  1.0000
  H   H514      1.0  0.30442  0.34163  0.38878  1.0000
  H   H515      1.0  0.14458  0.11768  0.49018  1.0000
  Fe  Fe96      1.0  0.15532  0.15562  0.41663  1.0000
  S   S197      1.0  0.13453  0.16663  0.42652  1.0000
  S   S198      1.0  0.17483  0.16255  0.40440  1.0000
  Fe  Fe97      1.0  0.14614  0.12878  0.42270  1.0000
  S   S199      1.0  0.12478  0.13736  0.43341  1.0000
  S   S200      1.0  0.15517  0.10821  0.41719  1.0000
  Fe  Fe98      1.0  0.12593  0.15556  0.41605  1.0000
  S   S201      1.0  0.11082  0.16579  0.40223  1.0000
  Fe  Fe99      1.0  0.13518  0.14749  0.44320  1.0000
  S   S202      1.0  0.12815  0.14599  0.46632  1.0000
  S   S203      1.0  0.14669  0.14629  0.40487  1.0000
  S   S204      1.0  0.15655  0.13720  0.43377  1.0000
  C   C509      1.0  0.08360  0.14142  0.39519  1.0000
  C   C510      1.0  0.08307  0.15507  0.38849  1.0000
  C   C511      1.0  0.09125  0.16251  0.39096  1.0000
  C   C512      1.0  0.10015  0.15633  0.39998  1.0000
  C   C513      1.0  0.10079  0.14264  0.40653  1.0000
  C   C514      1.0  0.09247  0.13526  0.40421  1.0000
  H   H516      1.0  0.16636  0.11591  0.56745  1.0000
  C   C515      1.0  0.19392  0.13092  0.40118  1.0000
  H   H517      1.0  0.10764  0.13774  0.41344  1.0000
  H   H518      1.0  0.09294  0.12473  0.40946  1.0000
  H   H519      1.0  0.33019  0.34525  0.55041  1.0000
  C   C516      1.0  0.12989  0.08977  0.40022  1.0000
  C   C517      1.0  0.14421  0.08541  0.39796  1.0000
  C   C518      1.0  0.15182  0.09108  0.40332  1.0000
  C   C519      1.0  0.14521  0.10141  0.41066  1.0000
  C   C520      1.0  0.13091  0.10607  0.41261  1.0000
  C   C521      1.0  0.12325  0.10013  0.40754  1.0000
  H   H520      1.0  0.14946  0.07753  0.39225  1.0000
  H   H521      1.0  0.16287  0.08744  0.40177  1.0000
  H   H522      1.0  0.12574  0.11403  0.41826  1.0000
  H   H523      1.0  0.11220  0.10366  0.40923  1.0000
  H   H524      1.0  0.07618  0.10149  0.41068  1.0000
  H   H525      1.0  0.32637  0.36395  0.50507  1.0000
  C   C522      1.0  0.20660  0.23990  0.41072  1.0000
  C   C523      1.0  0.32726  0.34973  0.52984  1.0000
  H   H526      1.0  0.29647  0.34025  0.43800  1.0000
  C   C524      1.0  0.10281  0.18288  0.53688  1.0000
  H   H527      1.0  0.10797  0.17246  0.50735  1.0000
  H   H528      1.0  0.42859  0.33673  0.58082  1.0000
  N   N48       1.0  0.20435  0.13300  0.38999  1.0000
  C   C525      1.0  0.14534  0.16026  0.49501  1.0000
  C   C526      1.0  0.13482  0.15305  0.50017  1.0000
  C   C527      1.0  0.12938  0.14917  0.49118  1.0000
  C   C528      1.0  0.13458  0.15219  0.47699  1.0000
  C   C529      1.0  0.14498  0.15955  0.47184  1.0000
  C   C530      1.0  0.15023  0.16366  0.48081  1.0000
  H   H529      1.0  0.13093  0.15038  0.51106  1.0000
  H   H530      1.0  0.12128  0.14354  0.49525  1.0000
  H   H531      1.0  0.14902  0.16202  0.46094  1.0000
  H   H532      1.0  0.15830  0.16933  0.47670  1.0000
  H   H533      1.0  0.28242  0.32977  0.42986  1.0000
  C   C531      1.0  0.19732  0.24118  0.57255  1.0000
  C   C532      1.0  0.29852  0.24564  0.38641  1.0000
  H   H534      1.0  0.28986  0.24198  0.39359  1.0000
  H   H535      1.0  0.12955  0.20821  0.50827  1.0000
  H   H536      1.0  0.30726  0.32727  0.57232  1.0000
  H   H537      1.0  0.22044  0.21114  0.55640  1.0000
  H   H538      1.0  0.17649  0.12161  0.41045  1.0000
  C   C533      1.0  0.17890  0.17342  0.56683  1.0000
  C   C534      1.0  0.33009  0.43407  0.41540  1.0000
  H   H539      1.0  0.16886  0.13068  0.50905  1.0000
  N   N49       1.0  0.21507  0.26428  0.39842  1.0000
  H   H540      1.0  0.22431  0.13421  0.39039  1.0000
  H   H541      1.0  0.32002  0.43249  0.42218  1.0000
  H   H542      1.0  0.08453  0.14428  0.57966  1.0000
  H   H543      1.0  0.38414  0.33226  0.38551  1.0000
  C   C535      1.0  0.32076  0.39740  0.42838  1.0000
  C   C536      1.0  0.30760  0.40525  0.42737  1.0000
  C   C537      1.0  0.30514  0.41349  0.41489  1.0000
  C   C538      1.0  0.31589  0.41429  0.40333  1.0000
  C   C539      1.0  0.32912  0.40641  0.40421  1.0000
  C   C540      1.0  0.33152  0.39785  0.41671  1.0000
  H   H544      1.0  0.29926  0.40502  0.43633  1.0000
  H   H545      1.0  0.29490  0.41956  0.41428  1.0000
  H   H546      1.0  0.33750  0.40704  0.39532  1.0000
  H   H547      1.0  0.34179  0.39211  0.41744  1.0000
  H   H548      1.0  0.06678  0.10786  0.38990  1.0000
  H   H549      1.0  0.20339  0.23031  0.41536  1.0000
  C   C541      1.0  0.41029  0.36919  0.40007  1.0000
  C   C542      1.0  0.40199  0.36258  0.41158  1.0000
  C   C543      1.0  0.40329  0.34851  0.41374  1.0000
  C   C544      1.0  0.41284  0.34110  0.40443  1.0000
  N   N50       1.0  0.12155  0.19100  0.52009  1.0000
  C   C545      1.0  0.18624  0.11752  0.39042  1.0000
  H   H550      1.0  0.39708  0.34329  0.42268  1.0000
  H   H551      1.0  0.41389  0.33019  0.40623  1.0000
  C   C546      1.0  0.35755  0.35967  0.51966  1.0000
  C   C547      1.0  0.36146  0.34545  0.52174  1.0000
  C   C548      1.0  0.36248  0.33889  0.51123  1.0000
  C   C549      1.0  0.35977  0.34647  0.49852  1.0000
  C   C550      1.0  0.35629  0.36071  0.49633  1.0000
  C   C551      1.0  0.35512  0.36726  0.50687  1.0000
  H   H552      1.0  0.36341  0.33949  0.53151  1.0000
  H   H553      1.0  0.36519  0.32787  0.51301  1.0000
  H   H554      1.0  0.35415  0.36667  0.48662  1.0000
  H   H555      1.0  0.35214  0.37827  0.50516  1.0000
  C   C552      1.0  0.07244  0.09794  0.38784  1.0000
  H   H556      1.0  0.31866  0.35176  0.39730  1.0000
  H   H557      1.0  0.16253  0.20139  0.38317  1.0000
  S   S205      1.0  0.11227  0.17866  0.56753  1.0000
  H   H558      1.0  0.31312  0.35490  0.50705  1.0000
  C   C553      1.0  0.35096  0.40602  0.43716  1.0000
  H   H559      1.0  0.16981  0.13808  0.48454  1.0000
  H   H560      1.0  0.14231  0.19254  0.51129  1.0000
  H   H561      1.0  0.31191  0.36430  0.42182  1.0000
  H   H562      1.0  0.12624  0.18550  0.50081  1.0000
  C   C554      1.0  0.16052  0.12592  0.50981  1.0000
  H   H563      1.0  0.32795  0.25413  0.38627  1.0000
  S   S206      1.0  0.40394  0.34150  0.57101  1.0000
  Fe  Fe100     1.0  0.29135  0.31154  0.38507  1.0000
  H   H564      1.0  0.33261  0.32668  0.51080  1.0000
  H   H565      1.0  0.40934  0.33255  0.52258  1.0000
  H   H566      1.0  0.19305  0.24643  0.39674  1.0000
  C   C555      1.0  0.40865  0.35026  0.58063  1.0000
  C   C556      1.0  0.20081  0.24896  0.40022  1.0000
  C   C557      1.0  0.22069  0.25553  0.40884  1.0000
  H   H567      1.0  0.15505  0.12238  0.53185  1.0000
  C   C558      1.0  0.39463  0.34730  0.50427  1.0000
  C   C559      1.0  0.13237  0.19879  0.51589  1.0000
  C   C560      1.0  0.29233  0.33532  0.40874  1.0000
  N   N51       1.0  0.32807  0.34455  0.51885  1.0000
  H   H568      1.0  0.28621  0.33073  0.40509  1.0000
  C   C561      1.0  0.30263  0.34143  0.39958  1.0000
  H   H569      1.0  0.41241  0.33950  0.54226  1.0000
  C   C562      1.0  0.19134  0.23270  0.56885  1.0000
  H   H570      1.0  0.16052  0.13149  0.47668  1.0000
  C   C563      1.0  0.18626  0.20224  0.40318  1.0000
  C   C564      1.0  0.17262  0.20077  0.40877  1.0000
  C   C565      1.0  0.16894  0.18846  0.40969  1.0000
  C   C566      1.0  0.17890  0.17769  0.40484  1.0000
  C   C567      1.0  0.19252  0.17913  0.39949  1.0000
  C   C568      1.0  0.19623  0.19121  0.39894  1.0000
  H   H571      1.0  0.16487  0.20921  0.41224  1.0000
  H   H572      1.0  0.15841  0.18742  0.41392  1.0000
  H   H573      1.0  0.19255  0.13532  0.40989  1.0000
  H   H574      1.0  0.40947  0.38003  0.39848  1.0000
  C   C569      1.0  0.32017  0.30973  0.42711  1.0000
  C   C570      1.0  0.32967  0.31197  0.41472  1.0000
  C   C571      1.0  0.34021  0.31858  0.41345  1.0000
  C   C572      1.0  0.34131  0.32304  0.42454  1.0000
  C   C573      1.0  0.33186  0.32078  0.43697  1.0000
  C   C574      1.0  0.32135  0.31408  0.43826  1.0000
  H   H575      1.0  0.32907  0.30842  0.40618  1.0000
  H   H576      1.0  0.34756  0.32018  0.40385  1.0000
  H   H577      1.0  0.33272  0.32407  0.44562  1.0000
  H   H578      1.0  0.31411  0.31227  0.44792  1.0000
  C   C575      1.0  0.26557  0.26345  0.39596  1.0000
  C   C576      1.0  0.16628  0.12881  0.48493  1.0000
  C   C577      1.0  0.19072  0.17472  0.57006  1.0000
  H   H579      1.0  0.09640  0.18209  0.54713  1.0000
  H   H580      1.0  0.36477  0.37775  0.39841  1.0000
  C   C578      1.0  0.26052  0.25145  0.39988  1.0000
  H   H581      1.0  0.38281  0.37119  0.51197  1.0000
  C   C579      1.0  0.26306  0.27275  0.38400  1.0000
  H   H582      1.0  0.38613  0.35436  0.49963  1.0000
  H   H583      1.0  0.26243  0.24420  0.40913  1.0000
  H   H584      1.0  0.21054  0.14639  0.39837  1.0000
  H   H585      1.0  0.13559  0.11213  0.53385  1.0000
  C   C580      1.0  0.18472  0.12319  0.40154  1.0000
  C   C581      1.0  0.39044  0.33579  0.39032  1.0000
  C   C582      1.0  0.31643  0.35319  0.42293  1.0000
  C   C583      1.0  0.33511  0.32180  0.53145  1.0000
  C   C584      1.0  0.31394  0.31972  0.57838  1.0000
  H   H586      1.0  0.24932  0.23941  0.39493  1.0000
  C   C585      1.0  0.35382  0.42078  0.41050  1.0000
  C   C586      1.0  0.13883  0.11419  0.51207  1.0000
  Fe  Fe101     1.0  0.31563  0.28770  0.38347  1.0000
  C   C587      1.0  0.36345  0.40327  0.42786  1.0000
  C   C588      1.0  0.14612  0.09270  0.58056  1.0000
  H   H587      1.0  0.31677  0.34871  0.43382  1.0000
  C   C589      1.0  0.11323  0.19019  0.53289  1.0000
  C   C590      1.0  0.33185  0.33077  0.51956  1.0000
  N   N52       1.0  0.34155  0.42332  0.41966  1.0000
  H   H588      1.0  0.13285  0.17948  0.39335  1.0000
  C   C591      1.0  0.41954  0.36185  0.39051  1.0000
  C   C592      1.0  0.10930  0.17747  0.51460  1.0000
  H   H589      1.0  0.09295  0.17060  0.53074  1.0000
  H   H590      1.0  0.33034  0.34973  0.49723  1.0000
  H   H591      1.0  0.32441  0.36066  0.52927  1.0000
  C   C593      1.0  0.37647  0.35783  0.39498  1.0000
  H   H592      1.0  0.21622  0.24532  0.57326  1.0000
  C   C594      1.0  0.14699  0.11865  0.49931  1.0000
  C   C595      1.0  0.19971  0.22195  0.56283  1.0000
  N   N53       1.0  0.30834  0.34668  0.41811  1.0000
  C   C596      1.0  0.31995  0.25244  0.38245  1.0000
  H   H593      1.0  0.33819  0.31088  0.53196  1.0000
  C   C597      1.0  0.16277  0.10693  0.57370  1.0000
  Fe  Fe102     1.0  0.21041  0.22037  0.38532  1.0000
  H   H594      1.0  0.23804  0.21667  0.57070  1.0000
  H   H595      1.0  0.33704  0.32014  0.55190  1.0000
  H   H596      1.0  0.19090  0.24932  0.57760  1.0000
  H   H597      1.0  0.36996  0.35240  0.40354  1.0000
  H   H598      1.0  0.34959  0.40019  0.44756  1.0000
  H   H599      1.0  0.15727  0.18178  0.56775  1.0000
  H   H600      1.0  0.37196  0.39540  0.43105  1.0000
  C   C598      1.0  0.39942  0.35949  0.53801  1.0000
  C   C599      1.0  0.08960  0.07781  0.39214  1.0000
  H   H601      1.0  0.39223  0.33700  0.50737  1.0000
  H   H602      1.0  0.20688  0.19193  0.39530  1.0000
  H   H603      1.0  0.26342  0.15764  0.38400  1.0000
  C   C600      1.0  0.34008  0.41617  0.43288  1.0000
  H   H604      1.0  0.17914  0.11145  0.39067  1.0000
  C   C601      1.0  0.33053  0.34105  0.54185  1.0000
  C   C602      1.0  0.21402  0.21980  0.56065  1.0000
  H   H605      1.0  0.38552  0.37835  0.53154  1.0000
  C   C603      1.0  0.21665  0.24316  0.41505  1.0000
  H   H606      1.0  0.40069  0.36256  0.54665  1.0000
  C   C604      1.0  0.37344  0.37211  0.39211  1.0000
  H   H607      1.0  0.20032  0.17083  0.39584  1.0000
  C   C605      1.0  0.10089  0.17643  0.52769  1.0000
  H   H608      1.0  0.33030  0.41795  0.44012  1.0000
  N   N54       1.0  0.39599  0.35148  0.51607  1.0000
  C   C606      1.0  0.40419  0.34266  0.52443  1.0000
  C   C607      1.0  0.38949  0.36422  0.51843  1.0000
  C   C608      1.0  0.40602  0.34653  0.53552  1.0000
  C   C609      1.0  0.39102  0.36838  0.52948  1.0000
  H   H609      1.0  0.24012  0.22269  0.55237  1.0000
  H   H610      1.0  0.22851  0.25800  0.41228  1.0000
  C   C610      1.0  0.16645  0.18268  0.57014  1.0000
  C   C611      1.0  0.23482  0.22531  0.56244  1.0000
  C   C612      1.0  0.14267  0.18215  0.38699  1.0000
  H   H611      1.0  0.38792  0.33175  0.40154  1.0000
  C   C613      1.0  0.25312  0.24870  0.39185  1.0000
  Fe  Fe103     1.0  0.35587  0.33569  0.57876  1.0000
  C   C614      1.0  0.08565  0.09586  0.40470  1.0000
  H   H612      1.0  0.09071  0.17308  0.38583  1.0000
  H   H613      1.0  0.09250  0.10306  0.39919  1.0000
  H   H614      1.0  0.22869  0.27766  0.39481  1.0000
  H   H615      1.0  0.22132  0.23611  0.42311  1.0000
  C   C615      1.0  0.29816  0.34080  0.42716  1.0000
  C   C616      1.0  0.17760  0.19423  0.58008  1.0000
  C   C617      1.0  0.21403  0.14101  0.38976  1.0000
  H   H616      1.0  0.15617  0.20021  0.57914  1.0000
  H   H617      1.0  0.32858  0.33231  0.57464  1.0000
  C   C618      1.0  0.16585  0.19309  0.57664  1.0000
  C   C619      1.0  0.15070  0.10436  0.57242  1.0000
  H   H618      1.0  0.20093  0.26797  0.38570  1.0000
  H   H619      1.0  0.21075  0.28583  0.39559  1.0000
  C   C620      1.0  0.30878  0.24763  0.39151  1.0000
  C   C621      1.0  0.21167  0.23882  0.57011  1.0000
  S   S207      1.0  0.31238  0.42566  0.38820  1.0000
  H   H620      1.0  0.20039  0.16762  0.56751  1.0000
  H   H621      1.0  0.30789  0.24573  0.40244  1.0000
  C   C622      1.0  0.32598  0.32257  0.57965  1.0000
  C   C623      1.0  0.19007  0.18504  0.57670  1.0000
  H   H622      1.0  0.14987  0.17958  0.39393  1.0000
  C   C624      1.0  0.09995  0.16959  0.57836  1.0000
  H   H623      1.0  0.46471  0.32288  0.38803  1.0000
  C   C625      1.0  0.08708  0.07279  0.38214  1.0000
  Fe  Fe104     1.0  0.46216  0.35487  0.62962  1.0000
  S   S208      1.0  0.45616  0.33986  0.64896  1.0000
  H   H624      1.0  0.10204  0.21415  0.65276  1.0000
  Fe  Fe105     1.0  0.43443  0.35936  0.62183  1.0000
  S   S209      1.0  0.42631  0.34497  0.64069  1.0000
  C   C626      1.0  0.31075  0.15783  0.75880  1.0000
  Fe  Fe106     1.0  0.43569  0.35471  0.65131  1.0000
  S   S210      1.0  0.42409  0.35902  0.67178  1.0000
  Fe  Fe107     1.0  0.44724  0.33153  0.63646  1.0000
  S   S211      1.0  0.45052  0.30907  0.63748  1.0000
  S   S212      1.0  0.44215  0.37040  0.63294  1.0000
  S   S213      1.0  0.45488  0.34524  0.61670  1.0000
  Fe  Fe108     1.0  0.36363  0.42634  0.62896  1.0000
  S   S214      1.0  0.35479  0.41384  0.64893  1.0000
  Fe  Fe109     1.0  0.35829  0.45198  0.64062  1.0000
  S   S215      1.0  0.34867  0.44147  0.66146  1.0000
  Fe  Fe110     1.0  0.36608  0.42347  0.65777  1.0000
  S   S216      1.0  0.37574  0.41140  0.67535  1.0000
  Fe  Fe111     1.0  0.33823  0.43272  0.65075  1.0000
  S   S217      1.0  0.31586  0.43202  0.65865  1.0000
  S   S218      1.0  0.37654  0.43449  0.63767  1.0000
  S   S219      1.0  0.34622  0.44470  0.63009  1.0000
  H   H625      1.0  0.41611  0.39971  0.59602  1.0000
  S   S220      1.0  0.24513  0.13414  0.75359  1.0000
  Fe  Fe112     1.0  0.20985  0.12487  0.69025  1.0000
  S   S221      1.0  0.19223  0.11819  0.68729  1.0000
  S   S222      1.0  0.21738  0.14420  0.68069  1.0000
  Fe  Fe113     1.0  0.21603  0.10121  0.71340  1.0000
  S   S223      1.0  0.19918  0.09189  0.71268  1.0000
  S   S224      1.0  0.22961  0.09268  0.72880  1.0000
  Fe  Fe114     1.0  0.20597  0.09724  0.68988  1.0000
  S   S225      1.0  0.20776  0.08178  0.67757  1.0000
  Fe  Fe115     1.0  0.18646  0.11323  0.71014  1.0000
  S   S226      1.0  0.16439  0.11724  0.72139  1.0000
  S   S227      1.0  0.22429  0.10438  0.69077  1.0000
  S   S228      1.0  0.20257  0.12202  0.71288  1.0000
  C   C627      1.0  0.17631  0.41856  0.77505  1.0000
  Fe  Fe116     1.0  0.12355  0.18919  0.71445  1.0000
  S   S229      1.0  0.11945  0.21191  0.70805  1.0000
  S   S230      1.0  0.14260  0.17979  0.72274  1.0000
  Fe  Fe117     1.0  0.09755  0.18746  0.70718  1.0000
  S   S231      1.0  0.09095  0.21021  0.70097  1.0000
  S   S232      1.0  0.08711  0.17178  0.70547  1.0000
  Fe  Fe118     1.0  0.11323  0.20887  0.69036  1.0000
  S   S233      1.0  0.12001  0.21785  0.66812  1.0000
  Fe  Fe119     1.0  0.09785  0.21100  0.71946  1.0000
  S   S234      1.0  0.08741  0.22309  0.73611  1.0000
  S   S235      1.0  0.11951  0.18612  0.69568  1.0000
  S   S236      1.0  0.10231  0.18820  0.72672  1.0000
  S   S237      1.0  0.37881  0.17031  0.77060  1.0000
  Fe  Fe120     1.0  0.37165  0.19308  0.76368  1.0000
  S   S238      1.0  0.38553  0.20549  0.74741  1.0000
  H   H626      1.0  0.08659  0.29509  0.76993  1.0000
  H   H627      1.0  0.08569  0.18955  0.63684  1.0000
  Fe  Fe121     1.0  0.17632  0.37545  0.75259  1.0000
  S   S239      1.0  0.18729  0.37996  0.73055  1.0000
  H   H628      1.0  0.37215  0.12872  0.77804  1.0000
  S   S240      1.0  0.15340  0.38221  0.75926  1.0000
  Fe  Fe122     1.0  0.21408  0.18589  0.61364  1.0000
  S   S241      1.0  0.19116  0.19120  0.62013  1.0000
  S   S242      1.0  0.22207  0.16318  0.61721  1.0000
  Fe  Fe123     1.0  0.21613  0.21576  0.60391  1.0000
  H   H629      1.0  0.40259  0.30669  0.68855  1.0000
  S   S243      1.0  0.23026  0.23074  0.59405  1.0000
  Fe  Fe124     1.0  0.19439  0.20725  0.62855  1.0000
  S   S244      1.0  0.18481  0.20877  0.65034  1.0000
  H   H630      1.0  0.41960  0.28682  0.68104  1.0000
  S   S245      1.0  0.21741  0.20078  0.62372  1.0000
  S   S246      1.0  0.21497  0.20009  0.59312  1.0000
  Fe  Fe125     1.0  0.28609  0.29147  0.60474  1.0000
  S   S247      1.0  0.26333  0.29389  0.61380  1.0000
  Fe  Fe126     1.0  0.29399  0.27455  0.63116  1.0000
  S   S248      1.0  0.27200  0.27566  0.64235  1.0000
  S   S249      1.0  0.31178  0.26387  0.64143  1.0000
  Fe  Fe127     1.0  0.26874  0.27150  0.62345  1.0000
  S   S250      1.0  0.25511  0.25609  0.62867  1.0000
  Fe  Fe128     1.0  0.26857  0.29766  0.63174  1.0000
  S   S251      1.0  0.25694  0.31570  0.64130  1.0000
  S   S252      1.0  0.29126  0.26877  0.61298  1.0000
  S   S253      1.0  0.29073  0.29684  0.62198  1.0000
  Fe  Fe129     1.0  0.28776  0.36871  0.67758  1.0000
  S   S254      1.0  0.26766  0.36183  0.68456  1.0000
  S   S255      1.0  0.29656  0.38037  0.65699  1.0000
  Fe  Fe130     1.0  0.29789  0.35296  0.70323  1.0000
  S   S256      1.0  0.27906  0.34442  0.71233  1.0000
  S   S257      1.0  0.31392  0.34935  0.71522  1.0000
  Fe  Fe131     1.0  0.28091  0.34135  0.69142  1.0000
  S   S258      1.0  0.28108  0.32064  0.68875  1.0000
  Fe  Fe132     1.0  0.26753  0.36558  0.70492  1.0000
  S   S259      1.0  0.25128  0.37444  0.72153  1.0000
  S   S260      1.0  0.30092  0.34796  0.68301  1.0000
  S   S261      1.0  0.28642  0.37437  0.69716  1.0000
  Fe  Fe133     1.0  0.36570  0.27289  0.69242  1.0000
  S   S262      1.0  0.36667  0.27296  0.67063  1.0000
  S   S263      1.0  0.35587  0.25763  0.70968  1.0000
  Fe  Fe134     1.0  0.37148  0.30146  0.68471  1.0000
  S   S264      1.0  0.37232  0.30409  0.66257  1.0000
  S   S265      1.0  0.37402  0.31825  0.69268  1.0000
  Fe  Fe135     1.0  0.35415  0.29435  0.66947  1.0000
  S   S266      1.0  0.33578  0.30361  0.65979  1.0000
  Fe  Fe136     1.0  0.38474  0.28270  0.66557  1.0000
  S   S267      1.0  0.40301  0.27750  0.64893  1.0000
  S   S268      1.0  0.35205  0.29385  0.69146  1.0000
  S   S269      1.0  0.38521  0.28054  0.68748  1.0000
  H   H631      1.0  0.09537  0.16913  0.65260  1.0000
  Fe  Fe137     1.0  0.16273  0.06320  0.62070  1.0000
  S   S270      1.0  0.14950  0.04947  0.62073  1.0000
  S   S271      1.0  0.17561  0.07441  0.60230  1.0000
  Fe  Fe138     1.0  0.15374  0.06154  0.65129  1.0000
  S   S272      1.0  0.13942  0.04767  0.65414  1.0000
  S   S273      1.0  0.15412  0.07187  0.66765  1.0000
  Fe  Fe139     1.0  0.15657  0.03662  0.63964  1.0000
  S   S274      1.0  0.16446  0.01349  0.64278  1.0000
  Fe  Fe140     1.0  0.13346  0.06144  0.63507  1.0000
  S   S275      1.0  0.11230  0.07032  0.63088  1.0000
  S   S276      1.0  0.17143  0.04946  0.63836  1.0000
  S   S277      1.0  0.14617  0.07610  0.63348  1.0000
  Fe  Fe141     1.0  0.05556  0.16323  0.65045  1.0000
  S   S278      1.0  0.04694  0.14668  0.66630  1.0000
  S   S279      1.0  0.05917  0.18151  0.65559  1.0000
  Fe  Fe142     1.0  0.05885  0.14919  0.62741  1.0000
  S   S280      1.0  0.05037  0.13152  0.64152  1.0000
  S   S281      1.0  0.06672  0.14702  0.60554  1.0000
  Fe  Fe143     1.0  0.03435  0.14729  0.65160  1.0000
  S   S282      1.0  0.01223  0.14514  0.66122  1.0000
  Fe  Fe144     1.0  0.06356  0.13244  0.65479  1.0000
  S   S283      1.0  0.07679  0.11418  0.66567  1.0000
  S   S284      1.0  0.04168  0.16512  0.63641  1.0000
  S   S285      1.0  0.07325  0.14890  0.64003  1.0000
  C   C628      1.0  0.17184  0.41539  0.75434  1.0000
  H   H632      1.0  0.44382  0.28874  0.67011  1.0000
  S   S286      1.0  0.35978  0.47436  0.63365  1.0000
  C   C629      1.0  0.43637  0.29725  0.67386  1.0000
  C   C630      1.0  0.09339  0.20323  0.64358  1.0000
  C   C631      1.0  0.41318  0.30753  0.68407  1.0000
  C   C632      1.0  0.19584  0.12936  0.75715  1.0000
  C   C633      1.0  0.10595  0.19255  0.66141  1.0000
  C   C634      1.0  0.43034  0.32063  0.67634  1.0000
  C   C635      1.0  0.20539  0.14158  0.60407  1.0000
  H   H633      1.0  0.40387  0.33869  0.67701  1.0000
  N   N55       1.0  0.19382  0.15159  0.60260  1.0000
  C   C636      1.0  0.15447  0.08428  0.70804  1.0000
  C   C637      1.0  0.15681  0.00272  0.63813  1.0000
  C   C638      1.0  0.14381  0.00727  0.63501  1.0000
  H   H634      1.0  0.09661  0.12513  0.63567  1.0000
  H   H635      1.0  0.16999  0.30677  0.77020  1.0000
  C   C639      1.0  0.38347  0.34810  0.61775  1.0000
  S   S287      1.0  0.41943  0.37103  0.60840  1.0000
  H   H636      1.0  0.13820  0.01765  0.63534  1.0000
  H   H637      1.0  0.31373  0.11363  0.77947  1.0000
  C   C640      1.0  0.41445  0.42033  0.63176  1.0000
  Fe  Fe145     1.0  0.19207  0.20624  0.60027  1.0000
  C   C641      1.0  0.10274  0.08274  0.64035  1.0000
  C   C642      1.0  0.10626  0.08322  0.65218  1.0000
  C   C643      1.0  0.09820  0.09287  0.65994  1.0000
  C   C644      1.0  0.08683  0.10230  0.65570  1.0000
  C   C645      1.0  0.08353  0.10206  0.64368  1.0000
  C   C646      1.0  0.09137  0.09217  0.63611  1.0000
  H   H638      1.0  0.11504  0.07596  0.65549  1.0000
  H   H639      1.0  0.10081  0.09305  0.66922  1.0000
  H   H640      1.0  0.07489  0.10940  0.64023  1.0000
  H   H641      1.0  0.08870  0.09189  0.62689  1.0000
  C   C647      1.0  0.16578  0.08606  0.59110  1.0000
  C   C648      1.0  0.12673  0.11344  0.60702  1.0000
  H   H642      1.0  0.08896  0.21229  0.63684  1.0000
  H   H643      1.0  0.00066  0.17467  0.62894  1.0000
  C   C649      1.0  0.18724  0.02750  0.60984  1.0000
  C   C650      1.0  0.14234  0.22592  0.74821  1.0000
  H   H644      1.0  0.12508  0.39507  0.77821  1.0000
  C   C651      1.0  0.34549  0.26981  0.62077  1.0000
  C   C652      1.0  0.19163  0.16392  0.60775  1.0000
  C   C653      1.0  0.40710  0.33715  0.62036  1.0000
  C   C654      1.0  0.21681  0.34354  0.75925  1.0000
  N   N56       1.0  0.35387  0.27599  0.62557  1.0000
  H   H645      1.0  0.24667  0.34766  0.76342  1.0000
  H   H646      1.0  0.40695  0.34520  0.62515  1.0000
  H   H647      1.0  0.18831  0.07005  0.70770  1.0000
  H   H648      1.0  0.17435  0.11899  0.74474  1.0000
  H   H649      1.0  0.01426  0.14658  0.63240  1.0000
  C   C655      1.0  0.35754  0.32782  0.69811  1.0000
  C   C656      1.0  0.34684  0.32851  0.69204  1.0000
  C   C657      1.0  0.33342  0.33534  0.69707  1.0000
  C   C658      1.0  0.33068  0.34137  0.70824  1.0000
  C   C659      1.0  0.34145  0.34095  0.71409  1.0000
  C   C660      1.0  0.35490  0.33430  0.70895  1.0000
  H   H650      1.0  0.34889  0.32374  0.68349  1.0000
  H   H651      1.0  0.32520  0.33560  0.69251  1.0000
  H   H652      1.0  0.33935  0.34564  0.72274  1.0000
  H   H653      1.0  0.36315  0.33373  0.71369  1.0000
  C   C661      1.0  0.32841  0.29198  0.65636  1.0000
  C   C662      1.0  0.31585  0.29668  0.65230  1.0000
  C   C663      1.0  0.31039  0.28795  0.64824  1.0000
  C   C664      1.0  0.31738  0.27442  0.64833  1.0000
  C   C665      1.0  0.32951  0.26946  0.65323  1.0000
  C   C666      1.0  0.33505  0.27825  0.65717  1.0000
  H   H654      1.0  0.31029  0.30705  0.65232  1.0000
  H   H655      1.0  0.30075  0.29171  0.64508  1.0000
  H   H656      1.0  0.33484  0.25891  0.65358  1.0000
  H   H657      1.0  0.34460  0.27442  0.66047  1.0000
  C   C667      1.0  0.27427  0.31956  0.67552  1.0000
  C   C668      1.0  0.27861  0.30753  0.67051  1.0000
  C   C669      1.0  0.27335  0.30632  0.65999  1.0000
  C   C670      1.0  0.26355  0.31706  0.65456  1.0000
  C   C671      1.0  0.25908  0.32905  0.65965  1.0000
  C   C672      1.0  0.26455  0.33037  0.67002  1.0000
  H   H658      1.0  0.28609  0.29910  0.67476  1.0000
  H   H659      1.0  0.27673  0.29699  0.65622  1.0000
  H   H660      1.0  0.25146  0.33738  0.65550  1.0000
  H   H661      1.0  0.26106  0.33964  0.67391  1.0000
  Fe  Fe146     1.0  0.28423  0.14310  0.76536  1.0000
  C   C673      1.0  0.23731  0.23761  0.60373  1.0000
  C   C674      1.0  0.24562  0.24713  0.59699  1.0000
  C   C675      1.0  0.25134  0.25279  0.60438  1.0000
  C   C676      1.0  0.24884  0.24893  0.61862  1.0000
  C   C677      1.0  0.24051  0.23944  0.62533  1.0000
  C   C678      1.0  0.23475  0.23384  0.61796  1.0000
  H   H662      1.0  0.25770  0.26010  0.59908  1.0000
  H   H663      1.0  0.23850  0.23637  0.63634  1.0000
  H   H664      1.0  0.22839  0.22654  0.62331  1.0000
  C   C679      1.0  0.20518  0.37788  0.72798  1.0000
  C   C680      1.0  0.21095  0.37762  0.73866  1.0000
  C   C681      1.0  0.22506  0.37691  0.73637  1.0000
  C   C682      1.0  0.23361  0.37589  0.72353  1.0000
  C   C683      1.0  0.22795  0.37586  0.71285  1.0000
  C   C684      1.0  0.21368  0.37704  0.71504  1.0000
  H   H665      1.0  0.20452  0.37823  0.74864  1.0000
  H   H666      1.0  0.22942  0.37694  0.74465  1.0000
  H   H667      1.0  0.23451  0.37516  0.70288  1.0000
  H   H668      1.0  0.20923  0.37731  0.70672  1.0000
  C   C685      1.0  0.37738  0.22055  0.73746  1.0000
  C   C686      1.0  0.36303  0.22471  0.74004  1.0000
  C   C687      1.0  0.35667  0.23615  0.73147  1.0000
  C   C688      1.0  0.36456  0.24366  0.72033  1.0000
  C   C689      1.0  0.37893  0.23964  0.71780  1.0000
  C   C690      1.0  0.38531  0.22809  0.72634  1.0000
  H   H669      1.0  0.35681  0.21913  0.74865  1.0000
  H   H670      1.0  0.34555  0.23924  0.73354  1.0000
  H   H671      1.0  0.38511  0.24536  0.70924  1.0000
  H   H672      1.0  0.39643  0.22494  0.72429  1.0000
  C   C691      1.0  0.07851  0.17487  0.69213  1.0000
  C   C692      1.0  0.07555  0.16384  0.68909  1.0000
  C   C693      1.0  0.06942  0.16578  0.67805  1.0000
  C   C694      1.0  0.06592  0.17885  0.67014  1.0000
  C   C695      1.0  0.06857  0.18995  0.67339  1.0000
  C   C696      1.0  0.07500  0.18796  0.68423  1.0000
  H   H673      1.0  0.07820  0.15369  0.69517  1.0000
  H   H674      1.0  0.06748  0.15715  0.67565  1.0000
  H   H675      1.0  0.06588  0.20010  0.66733  1.0000
  H   H676      1.0  0.07716  0.19654  0.68652  1.0000
  C   C697      1.0  0.13803  0.21523  0.66308  1.0000
  C   C698      1.0  0.14456  0.21593  0.64928  1.0000
  C   C699      1.0  0.15898  0.21381  0.64523  1.0000
  C   C700      1.0  0.16682  0.21133  0.65496  1.0000
  C   C701      1.0  0.16027  0.21072  0.66871  1.0000
  C   C702      1.0  0.14593  0.21244  0.67279  1.0000
  H   H677      1.0  0.13848  0.21810  0.64173  1.0000
  H   H678      1.0  0.16400  0.21434  0.63459  1.0000
  H   H679      1.0  0.16631  0.20892  0.67622  1.0000
  H   H680      1.0  0.14099  0.21195  0.68341  1.0000
  H   H681      1.0  0.28401  0.32746  0.62522  1.0000
  H   H682      1.0  0.25380  0.34570  0.73925  1.0000
  H   H683      1.0  0.23000  0.34577  0.71900  1.0000
  H   H684      1.0  0.09353  0.13013  0.61201  1.0000
  H   H685      1.0  0.36764  0.25704  0.63108  1.0000
  C   C703      1.0  0.11150  0.24842  0.74628  1.0000
  C   C704      1.0  0.09367  0.23541  0.75310  1.0000
  C   C705      1.0  0.09695  0.23259  0.74001  1.0000
  C   C706      1.0  0.10756  0.23765  0.73013  1.0000
  C   C707      1.0  0.11475  0.24558  0.73324  1.0000
  S   S288      1.0  0.34374  0.37677  0.59875  1.0000
  H   H686      1.0  0.10996  0.23584  0.71993  1.0000
  H   H687      1.0  0.12279  0.24965  0.72542  1.0000
  C   C708      1.0  0.19314  0.08040  0.67290  1.0000
  C   C709      1.0  0.18046  0.08952  0.67559  1.0000
  C   C710      1.0  0.16868  0.08732  0.67306  1.0000
  C   C711      1.0  0.16949  0.07603  0.66777  1.0000
  C   C712      1.0  0.18229  0.06728  0.66447  1.0000
  C   C713      1.0  0.19406  0.06946  0.66704  1.0000
  H   H688      1.0  0.17964  0.09805  0.67998  1.0000
  H   H689      1.0  0.15884  0.09418  0.67557  1.0000
  H   H690      1.0  0.18303  0.05851  0.66047  1.0000
  H   H691      1.0  0.20386  0.06241  0.66486  1.0000
  C   C714      1.0  0.21969  0.14859  0.66291  1.0000
  C   C715      1.0  0.21665  0.14062  0.65577  1.0000
  C   C716      1.0  0.21788  0.14483  0.64158  1.0000
  C   C717      1.0  0.22198  0.15705  0.63462  1.0000
  C   C718      1.0  0.22530  0.16478  0.64176  1.0000
  C   C719      1.0  0.22425  0.16052  0.65585  1.0000
  H   H692      1.0  0.21325  0.13131  0.66117  1.0000
  H   H693      1.0  0.21536  0.13877  0.63609  1.0000
  H   H694      1.0  0.22889  0.17398  0.63639  1.0000
  H   H695      1.0  0.22686  0.16658  0.66129  1.0000
  C   C720      1.0  0.15819  0.13464  0.72173  1.0000
  C   C721      1.0  0.16694  0.14229  0.72259  1.0000
  C   C722      1.0  0.16196  0.15605  0.72326  1.0000
  C   C723      1.0  0.14832  0.16239  0.72255  1.0000
  C   C724      1.0  0.13955  0.15486  0.72150  1.0000
  C   C725      1.0  0.14443  0.14091  0.72134  1.0000
  H   H696      1.0  0.17750  0.13761  0.72296  1.0000
  H   H697      1.0  0.16876  0.16182  0.72413  1.0000
  H   H698      1.0  0.12896  0.15971  0.72099  1.0000
  H   H699      1.0  0.13759  0.13505  0.72070  1.0000
  C   C726      1.0  0.33293  0.14300  0.76129  1.0000
  C   C727      1.0  0.31944  0.14484  0.75980  1.0000
  C   C728      1.0  0.16910  0.03628  0.59250  1.0000
  H   H700      1.0  0.31596  0.13636  0.75882  1.0000
  C   C729      1.0  0.24141  0.12223  0.74678  1.0000
  C   C730      1.0  0.23274  0.12717  0.73752  1.0000
  C   C731      1.0  0.22950  0.11823  0.73163  1.0000
  C   C732      1.0  0.23454  0.10417  0.73525  1.0000
  C   C733      1.0  0.24324  0.09918  0.74453  1.0000
  C   C734      1.0  0.24678  0.10820  0.75021  1.0000
  H   H701      1.0  0.22860  0.13802  0.73478  1.0000
  H   H702      1.0  0.22304  0.12228  0.72437  1.0000
  H   H703      1.0  0.24723  0.08831  0.74738  1.0000
  H   H704      1.0  0.17641  0.05503  0.58614  1.0000
  C   C735      1.0  0.31126  0.41692  0.65905  1.0000
  C   C736      1.0  0.32008  0.40732  0.65162  1.0000
  C   C737      1.0  0.31570  0.39585  0.65131  1.0000
  C   C738      1.0  0.30262  0.39381  0.65865  1.0000
  C   C739      1.0  0.29400  0.40317  0.66642  1.0000
  C   C740      1.0  0.29825  0.41478  0.66648  1.0000
  H   H705      1.0  0.33003  0.40898  0.64569  1.0000
  H   H706      1.0  0.32235  0.38868  0.64520  1.0000
  H   H707      1.0  0.28385  0.40170  0.67202  1.0000
  H   H708      1.0  0.29139  0.42218  0.67223  1.0000
  C   C741      1.0  0.41080  0.37376  0.67198  1.0000
  C   C742      1.0  0.40544  0.38087  0.66043  1.0000
  C   C743      1.0  0.39469  0.39261  0.66117  1.0000
  C   C744      1.0  0.38943  0.39718  0.67345  1.0000
  C   C745      1.0  0.39480  0.38999  0.68490  1.0000
  C   C746      1.0  0.40535  0.37830  0.68419  1.0000
  H   H709      1.0  0.40950  0.37726  0.65101  1.0000
  H   H710      1.0  0.39044  0.39806  0.65233  1.0000
  H   H711      1.0  0.39074  0.39345  0.69441  1.0000
  H   H712      1.0  0.40943  0.37285  0.69314  1.0000
  C   C747      1.0  0.43672  0.30114  0.64040  1.0000
  C   C748      1.0  0.42332  0.30652  0.64703  1.0000
  C   C749      1.0  0.41284  0.29931  0.64983  1.0000
  C   C750      1.0  0.41571  0.28692  0.64567  1.0000
  C   C751      1.0  0.42900  0.28181  0.63875  1.0000
  C   C752      1.0  0.43949  0.28878  0.63631  1.0000
  H   H713      1.0  0.42111  0.31601  0.65031  1.0000
  H   H714      1.0  0.40260  0.30333  0.65520  1.0000
  H   H715      1.0  0.43130  0.27225  0.63553  1.0000
  H   H716      1.0  0.44982  0.28454  0.63123  1.0000
  H   H717      1.0  0.34449  0.25960  0.62729  1.0000
  H   H718      1.0  0.07662  0.16919  0.60883  1.0000
  H   H719      1.0  0.40824  0.30894  0.60246  1.0000
  H   H720      1.0  0.12059  0.16379  0.66618  1.0000
  C   C753      1.0  0.10346  0.12457  0.61426  1.0000
  H   H721      1.0  0.41117  0.33686  0.69136  1.0000
  C   C754      1.0  0.40685  0.33148  0.68625  1.0000
  H   H722      1.0  0.16376  0.00447  0.60680  1.0000
  H   H723      1.0  0.34966  0.40296  0.68229  1.0000
  H   H724      1.0  0.39743  0.32864  0.69343  1.0000
  C   C755      1.0  0.17635  0.41231  0.74136  1.0000
  S   S289      1.0  0.29488  0.30389  0.58448  1.0000
  H   H725      1.0  0.36770  0.36648  0.68951  1.0000
  H   H726      1.0  0.21112  0.09601  0.75777  1.0000
  N   N57       1.0  0.18109  0.41602  0.76118  1.0000
  S   S290      1.0  0.13784  0.25726  0.77816  1.0000
  H   H727      1.0  0.39609  0.37703  0.59661  1.0000
  H   H728      1.0  0.36410  0.46968  0.66141  1.0000
  H   H729      1.0  0.21072  0.40815  0.73805  1.0000
  C   C756      1.0  0.36405  0.39136  0.59265  1.0000
  H   H730      1.0  0.31717  0.39505  0.60705  1.0000
  C   C757      1.0  0.08235  0.16631  0.59928  1.0000
  H   H731      1.0  0.49366  0.38457  0.64838  1.0000
  S   S291      1.0  0.37233  0.41800  0.60972  1.0000
  H   H732      1.0  0.14682  0.09340  0.71008  1.0000
  N   N58       1.0  0.41706  0.31951  0.68235  1.0000
  C   C758      1.0  0.18641  0.04043  0.60133  1.0000
  C   C759      1.0  0.11779  0.11459  0.63071  1.0000
  H   H733      1.0  0.16093  0.01459  0.59053  1.0000
  C   C760      1.0  0.32851  0.16678  0.76222  1.0000
  N   N59       1.0  0.35653  0.18625  0.72715  1.0000
  C   C761      1.0  0.36791  0.17781  0.73148  1.0000
  C   C762      1.0  0.35675  0.19944  0.72041  1.0000
  C   C763      1.0  0.37999  0.18248  0.72889  1.0000
  C   C764      1.0  0.36870  0.20439  0.71753  1.0000
  C   C765      1.0  0.38039  0.19580  0.72174  1.0000
  C   C766      1.0  0.34380  0.18141  0.73008  1.0000
  H   H734      1.0  0.36765  0.16747  0.73716  1.0000
  H   H735      1.0  0.34761  0.20626  0.71735  1.0000
  H   H736      1.0  0.38889  0.17595  0.73267  1.0000
  H   H737      1.0  0.36880  0.21493  0.71244  1.0000
  H   H738      1.0  0.38960  0.19965  0.71995  1.0000
  H   H739      1.0  0.33574  0.18677  0.73756  1.0000
  H   H740      1.0  0.34005  0.18336  0.72060  1.0000
  H   H741      1.0  0.34533  0.17026  0.73445  1.0000
  C   C767      1.0  0.07438  0.28003  0.77522  1.0000
  H   H742      1.0  0.10136  0.12433  0.59001  1.0000
  C   C768      1.0  0.07540  0.26957  0.75688  1.0000
  C   C769      1.0  0.18691  0.13865  0.59084  1.0000
  S   S292      1.0  0.15332  0.28738  0.77490  1.0000
  C   C770      1.0  0.00077  0.14350  0.65225  1.0000
  C   C771      1.0  0.22109  0.34252  0.74555  1.0000
  H   H743      1.0  0.24304  0.33086  0.72387  1.0000
  H   H744      1.0  0.32095  0.43589  0.62791  1.0000
  H   H745      1.0  0.31613  0.28792  0.59861  1.0000
  C   C772      1.0  0.49495  0.35943  0.63159  1.0000
  H   H746      1.0  0.24768  0.25011  0.58598  1.0000
  H   H747      1.0  0.45063  0.31055  0.66690  1.0000
  H   H748      1.0  0.43337  0.33019  0.67472  1.0000
  S   S293      1.0  0.35152  0.19180  0.76050  1.0000
  Fe  Fe147     1.0  0.35790  0.16949  0.76921  1.0000
  H   H749      1.0  0.19401  0.40732  0.72541  1.0000
  C   C773      1.0  0.18312  0.11837  0.74882  1.0000
  Fe  Fe148     1.0  0.11900  0.26428  0.76935  1.0000
  S   S294      1.0  0.35479  0.15205  0.76268  1.0000
  N   N60       1.0  0.25275  0.12642  0.70344  1.0000
  C   C774      1.0  0.24714  0.14014  0.70157  1.0000
  C   C775      1.0  0.26156  0.12043  0.71209  1.0000
  C   C776      1.0  0.25020  0.14820  0.70859  1.0000
  C   C777      1.0  0.26488  0.12820  0.71923  1.0000
  C   C778      1.0  0.25908  0.14214  0.71753  1.0000
  C   C779      1.0  0.24940  0.11797  0.69622  1.0000
  H   H750      1.0  0.24010  0.14488  0.69475  1.0000
  H   H751      1.0  0.26574  0.10951  0.71381  1.0000
  H   H752      1.0  0.24556  0.15901  0.70730  1.0000
  H   H753      1.0  0.27145  0.12336  0.72648  1.0000
  H   H754      1.0  0.26119  0.14814  0.72343  1.0000
  H   H755      1.0  0.25871  0.11388  0.68893  1.0000
  H   H756      1.0  0.24540  0.10931  0.70363  1.0000
  H   H757      1.0  0.24137  0.12384  0.69037  1.0000
  N   N61       1.0  0.18228  0.17615  0.66854  1.0000
  C   C780      1.0  0.19110  0.17801  0.67513  1.0000
  C   C781      1.0  0.16879  0.17631  0.67492  1.0000
  C   C782      1.0  0.18641  0.18047  0.68833  1.0000
  C   C783      1.0  0.16375  0.17872  0.68813  1.0000
  C   C784      1.0  0.17262  0.18091  0.69481  1.0000
  C   C785      1.0  0.18744  0.17337  0.65480  1.0000
  H   H758      1.0  0.20180  0.17779  0.67010  1.0000
  H   H759      1.0  0.16180  0.17481  0.66971  1.0000
  H   H760      1.0  0.19343  0.18210  0.69343  1.0000
  H   H761      1.0  0.15300  0.17907  0.69310  1.0000
  H   H762      1.0  0.16878  0.18300  0.70497  1.0000
  H   H763      1.0  0.19617  0.17837  0.64916  1.0000
  H   H764      1.0  0.19104  0.16222  0.65539  1.0000
  H   H765      1.0  0.17933  0.17761  0.64878  1.0000
  C   C786      1.0  0.18460  0.15024  0.59613  1.0000
  H   H766      1.0  0.32198  0.36890  0.68957  1.0000
  C   C787      1.0  0.36332  0.48470  0.64272  1.0000
  N   N62       1.0  0.10399  0.18011  0.66143  1.0000
  S   S295      1.0  0.26140  0.14895  0.77225  1.0000
  H   H767      1.0  0.12727  0.30644  0.77745  1.0000
  C   C788      1.0  0.20793  0.12977  0.59903  1.0000
  H   H768      1.0  0.21276  0.14276  0.60908  1.0000
  H   H769      1.0  0.33192  0.17528  0.76321  1.0000
  C   C789      1.0  0.35447  0.40055  0.61719  1.0000
  C   C790      1.0  0.16394  0.98919  0.63767  1.0000
  C   C791      1.0  0.34845  0.39119  0.61470  1.0000
  S   S296      1.0  0.36621  0.34359  0.59021  1.0000
  C   C792      1.0  0.42278  0.29620  0.67994  1.0000
  H   H770      1.0  0.08845  0.26622  0.73243  1.0000
  C   C793      1.0  0.17043  0.09765  0.58286  1.0000
  H   H771      1.0  0.32468  0.41064  0.68291  1.0000
  H   H772      1.0  0.31068  0.39348  0.68685  1.0000
  N   N63       1.0  0.12650  0.20815  0.74873  1.0000
  C   C794      1.0  0.12465  0.21329  0.76001  1.0000
  C   C795      1.0  0.13631  0.21144  0.73732  1.0000
  C   C796      1.0  0.17735  0.04484  0.59253  1.0000
  C   C797      1.0  0.14432  0.22043  0.73684  1.0000
  H   H773      1.0  0.16376  0.33148  0.77005  1.0000
  C   C798      1.0  0.11798  0.19908  0.74870  1.0000
  H   H774      1.0  0.22274  0.34627  0.77636  1.0000
  H   H775      1.0  0.13780  0.20728  0.72841  1.0000
  C   C799      1.0  0.42506  0.35197  0.59257  1.0000
  C   C800      1.0  0.15350  0.08370  0.59007  1.0000
  S   S297      1.0  0.18086  0.38129  0.76980  1.0000
  H   H776      1.0  0.11584  0.13254  0.58432  1.0000
  H   H777      1.0  0.07217  0.26239  0.75327  1.0000
  C   C801      1.0  0.08959  0.27594  0.73399  1.0000
  H   H778      1.0  0.35068  0.40405  0.62665  1.0000
  H   H779      1.0  0.11146  0.19350  0.66840  1.0000
  C   C802      1.0  0.44019  0.30953  0.67202  1.0000
  C   C803      1.0  0.36447  0.48013  0.65634  1.0000
  S   S298      1.0  0.12056  0.25894  0.74926  1.0000
  H   H780      1.0  0.25350  0.10430  0.75734  1.0000
  C   C804      1.0  0.10102  0.24321  0.75629  1.0000
  H   H781      1.0  0.18251  0.42476  0.77689  1.0000
  H   H782      1.0  0.08544  0.23152  0.76079  1.0000
  Fe  Fe149     1.0  0.26115  0.12999  0.76613  1.0000
  C   C805      1.0  0.33753  0.15402  0.76229  1.0000
  C   C806      1.0  0.17782  0.07119  0.70688  1.0000
  H   H783      1.0  0.33479  0.27603  0.62136  1.0000
  C   C807      1.0  0.41738  0.40632  0.63247  1.0000
  C   C808      1.0  0.18465  0.13008  0.75180  1.0000
  C   C809      1.0  0.35077  0.28980  0.62464  1.0000
  H   H784      1.0  0.28566  0.41268  0.63795  1.0000
  Fe  Fe150     1.0  0.13446  0.27894  0.77962  1.0000
  H   H785      1.0  0.41638  0.42419  0.63955  1.0000
  H   H786      1.0  0.10077  0.27597  0.73063  1.0000
  H   H787      1.0  0.15838  0.98907  0.66831  1.0000
  N   N64       1.0  0.22655  0.28107  0.63674  1.0000
  C   C810      1.0  0.22707  0.29455  0.63298  1.0000
  C   C811      1.0  0.23064  0.27311  0.64832  1.0000
  C   C812      1.0  0.23163  0.30044  0.64096  1.0000
  C   C813      1.0  0.23543  0.27863  0.65644  1.0000
  C   C814      1.0  0.23587  0.29240  0.65273  1.0000
  C   C815      1.0  0.22202  0.27516  0.62795  1.0000
  H   H788      1.0  0.22419  0.30077  0.62362  1.0000
  H   H789      1.0  0.23080  0.26228  0.65101  1.0000
  H   H790      1.0  0.23224  0.31110  0.63785  1.0000
  H   H791      1.0  0.23914  0.27218  0.66532  1.0000
  H   H792      1.0  0.23984  0.29678  0.65877  1.0000
  H   H793      1.0  0.21175  0.28105  0.62613  1.0000
  H   H794      1.0  0.22961  0.27522  0.61804  1.0000
  H   H795      1.0  0.22130  0.26438  0.63253  1.0000
  N   N65       1.0  0.40887  0.41035  0.61220  1.0000
  C   C816      1.0  0.40593  0.42411  0.61144  1.0000
  C   C817      1.0  0.40881  0.42931  0.62111  1.0000
  H   H796      1.0  0.41672  0.39058  0.62321  1.0000
  C   C818      1.0  0.17902  0.01912  0.60936  1.0000
  H   H797      1.0  0.40625  0.44023  0.62061  1.0000
  C   C819      1.0  0.32299  0.43262  0.61810  1.0000
  H   H798      1.0  0.16908  0.41142  0.73609  1.0000
  H   H799      1.0  0.06328  0.26464  0.77734  1.0000
  C   C820      1.0  0.10064  0.20429  0.65254  1.0000
  H   H800      1.0  0.27524  0.17380  0.77797  1.0000
  C   C821      1.0  0.37348  0.27369  0.63473  1.0000
  C   C822      1.0  0.09167  0.19047  0.64347  1.0000
  C   C823      1.0  0.10514  0.12186  0.62765  1.0000
  C   C824      1.0  0.31029  0.30726  0.58533  1.0000
  C   C825      1.0  0.33100  0.30030  0.59423  1.0000
  H   H801      1.0  0.49214  0.39811  0.65679  1.0000
  C   C826      1.0  0.19491  0.41338  0.75552  1.0000
  H   H802      1.0  0.10486  0.35957  0.77989  1.0000
  C   C827      1.0  0.29514  0.41292  0.63023  1.0000
  H   H803      1.0  0.20101  0.08860  0.74248  1.0000
  H   H804      1.0  0.42174  0.39922  0.64072  1.0000
  C   C828      1.0  0.13520  0.31188  0.77593  1.0000
  H   H805      1.0  0.19990  0.16950  0.60203  1.0000
  H   H806      1.0  0.37848  0.40438  0.58752  1.0000
  H   H807      1.0  0.24670  0.34769  0.71849  1.0000
  H   H808      1.0  0.29865  0.43032  0.63484  1.0000
  H   H809      1.0  0.17722  0.13965  0.74990  1.0000
  H   H810      1.0  0.06257  0.08545  0.65056  1.0000
  H   H811      1.0  0.14982  0.07481  0.59643  1.0000
  C   C829      1.0  0.14195  0.33299  0.77368  1.0000
  H   H812      1.0  0.39953  0.39752  0.60676  1.0000
  H   H813      1.0  0.37580  0.34428  0.62676  1.0000
  H   H814      1.0  0.99675  0.14684  0.62015  1.0000
  H   H815      1.0  0.21711  0.12184  0.60022  1.0000
  H   H816      1.0  0.19728  0.13837  0.75939  1.0000
  C   C830      1.0  0.11231  0.12307  0.59021  1.0000
  C   C831      1.0  0.33457  0.31278  0.58753  1.0000
  C   C832      1.0  0.19863  0.12834  0.59235  1.0000
  H   H817      1.0  0.38575  0.35729  0.61934  1.0000
  C   C833      1.0  0.09242  0.17333  0.59070  1.0000
  S   S299      1.0  0.48279  0.36127  0.62175  1.0000
  H   H818      1.0  0.33425  0.42823  0.61546  1.0000
  C   C834      1.0  0.41585  0.36325  0.59717  1.0000
  H   H819      1.0  0.20053  0.11933  0.58824  1.0000
  C   C835      1.0  0.08687  0.15225  0.58286  1.0000
  N   N66       1.0  0.31917  0.29886  0.70997  1.0000
  C   C836      1.0  0.31333  0.30517  0.69897  1.0000
  C   C837      1.0  0.32417  0.28503  0.71252  1.0000
  C   C838      1.0  0.31226  0.29759  0.69028  1.0000
  C   C839      1.0  0.32327  0.27716  0.70401  1.0000
  C   C840      1.0  0.31728  0.28351  0.69281  1.0000
  C   C841      1.0  0.32099  0.30699  0.71854  1.0000
  H   H820      1.0  0.30953  0.31614  0.69676  1.0000
  H   H821      1.0  0.32936  0.28004  0.72087  1.0000
  H   H822      1.0  0.30777  0.30266  0.68149  1.0000
  H   H823      1.0  0.32756  0.26625  0.70588  1.0000
  H   H824      1.0  0.31673  0.27760  0.68596  1.0000
  H   H825      1.0  0.31391  0.31724  0.71755  1.0000
  H   H826      1.0  0.31887  0.30183  0.72947  1.0000
  H   H827      1.0  0.33174  0.30845  0.71550  1.0000
  N   N67       1.0  0.31503  0.42254  0.61941  1.0000
  C   C842      1.0  0.31994  0.41309  0.61136  1.0000
  C   C843      1.0  0.30258  0.42282  0.62846  1.0000
  C   C844      1.0  0.31287  0.40293  0.61299  1.0000
  H   H828      1.0  0.11834  0.11455  0.58505  1.0000
  C   C845      1.0  0.30048  0.40276  0.62263  1.0000
  H   H829      1.0  0.21407  0.11631  0.76358  1.0000
  H   H830      1.0  0.19253  0.04716  0.60177  1.0000
  C   C846      1.0  0.31883  0.29759  0.59331  1.0000
  N   N68       1.0  0.08456  0.27706  0.74832  1.0000
  S   S300      1.0  0.29443  0.16074  0.75542  1.0000
  H   H831      1.0  0.19395  0.02411  0.61700  1.0000
  H   H832      1.0  0.18692  0.08727  0.75727  1.0000
  H   H833      1.0  0.37888  0.35155  0.60862  1.0000
  N   N69       1.0  0.23424  0.34330  0.73852  1.0000
  H   H834      1.0  0.11881  0.37589  0.77351  1.0000
  C   C847      1.0  0.24342  0.34493  0.74486  1.0000
  H   H835      1.0  0.15010  0.01948  0.60611  1.0000
  C   C848      1.0  0.23943  0.34610  0.75852  1.0000
  C   C849      1.0  0.22603  0.34538  0.76575  1.0000
  H   H836      1.0  0.10930  0.19854  0.75777  1.0000
  H   H837      1.0  0.43488  0.34813  0.59553  1.0000
  C   C850      1.0  0.40626  0.40495  0.60182  1.0000
  H   H838      1.0  0.32029  0.44169  0.61007  1.0000
  H   H839      1.0  0.99841  0.18950  0.63584  1.0000
  C   C851      1.0  0.35886  0.29584  0.62893  1.0000
  H   H840      1.0  0.33985  0.13307  0.76144  1.0000
  H   H841      1.0  0.48174  0.35394  0.65118  1.0000
  H   H842      1.0  0.13530  0.11025  0.59900  1.0000
  C   C852      1.0  0.37013  0.40068  0.59517  1.0000
  C   C853      1.0  0.13167  0.32587  0.77577  1.0000
  H   H843      1.0  0.11331  0.20300  0.73964  1.0000
  S   S301      1.0  0.17671  0.35364  0.76299  1.0000
  C   C854      1.0  0.20352  0.10552  0.75625  1.0000
  H   H844      1.0  0.16173  0.03998  0.58599  1.0000
  C   C855      1.0  0.14898  0.30498  0.77400  1.0000
  H   H845      1.0  0.30854  0.17881  0.75935  1.0000
  C   C856      1.0  0.31526  0.16877  0.76011  1.0000
  H   H846      1.0  0.20639  0.34298  0.76484  1.0000
  H   H847      1.0  0.17014  0.09028  0.71359  1.0000
  H   H848      1.0  0.32962  0.41311  0.60390  1.0000
  S   S302      1.0  0.17638  0.20747  0.58827  1.0000
  N   N70       1.0  0.19264  0.10637  0.75083  1.0000
  H   H849      1.0  0.42866  0.30859  0.61081  1.0000
  H   H850      1.0  0.40089  0.41306  0.59450  1.0000
  N   N71       1.0  0.39597  0.33735  0.61566  1.0000
  C   C857      1.0  0.13793  0.99832  0.63162  1.0000
  C   C858      1.0  0.23871  0.34177  0.72430  1.0000
  H   H851      1.0  0.38236  0.26733  0.63871  1.0000
  N   N72       1.0  0.11414  0.12012  0.60421  1.0000
  N   N73       1.0  0.15139  0.07485  0.70314  1.0000
  C   C859      1.0  0.16124  0.06362  0.70009  1.0000
  C   C860      1.0  0.17459  0.06163  0.70189  1.0000
  C   C861      1.0  0.13774  0.07742  0.70021  1.0000
  H   H852      1.0  0.15902  0.05650  0.69553  1.0000
  H   H853      1.0  0.18255  0.05311  0.69879  1.0000
  H   H854      1.0  0.13580  0.06815  0.69843  1.0000
  H   H855      1.0  0.12951  0.08078  0.70879  1.0000
  H   H856      1.0  0.13706  0.08542  0.69075  1.0000
  N   N74       1.0  0.30605  0.33310  0.64063  1.0000
  C   C862      1.0  0.31815  0.33004  0.63142  1.0000
  C   C863      1.0  0.29389  0.33250  0.63832  1.0000
  C   C864      1.0  0.31830  0.32591  0.61969  1.0000
  C   C865      1.0  0.29367  0.32826  0.62680  1.0000
  C   C866      1.0  0.30598  0.32493  0.61744  1.0000
  C   C867      1.0  0.30608  0.33734  0.65290  1.0000
  H   H857      1.0  0.32778  0.33059  0.63323  1.0000
  H   H858      1.0  0.28430  0.33515  0.64549  1.0000
  H   H859      1.0  0.32789  0.32345  0.61243  1.0000
  Fe  Fe151     1.0  0.28497  0.11352  0.77936  1.0000
  H   H860      1.0  0.30596  0.32158  0.60847  1.0000
  H   H861      1.0  0.31574  0.33215  0.65653  1.0000
  H   H862      1.0  0.30501  0.34858  0.65075  1.0000
  H   H863      1.0  0.29748  0.33449  0.66144  1.0000
  H   H864      1.0  0.17555  0.15828  0.59472  1.0000
  C   C868      1.0  0.40323  0.36825  0.59315  1.0000
  H   H865      1.0  0.10916  0.17037  0.68066  1.0000
  C   C869      1.0  0.16769  0.08257  0.71005  1.0000
  H   H866      1.0  0.04736  0.11500  0.68104  1.0000
  H   H867      1.0  0.18158  0.17100  0.60660  1.0000
  H   H868      1.0  0.34003  0.38757  0.62231  1.0000
  H   H869      1.0  0.16538  0.42423  0.77692  1.0000
  H   H870      1.0  0.10368  0.15994  0.67326  1.0000
  H   H871      1.0  0.35615  0.30673  0.62851  1.0000
  C   C870      1.0  0.10971  0.16793  0.67077  1.0000
  H   H872      1.0  0.33772  0.29266  0.60009  1.0000
  C   C871      1.0  0.09715  0.17893  0.65246  1.0000
  N   N75       1.0  0.03904  0.10705  0.66908  1.0000
  C   C872      1.0  0.02840  0.10991  0.66265  1.0000
  C   C873      1.0  0.05104  0.09811  0.66506  1.0000
  C   C874      1.0  0.02993  0.10438  0.65138  1.0000
  C   C875      1.0  0.05289  0.09230  0.65390  1.0000
  C   C876      1.0  0.04230  0.09559  0.64694  1.0000
  C   C877      1.0  0.03738  0.11320  0.68066  1.0000
  H   H873      1.0  0.01873  0.11667  0.66608  1.0000
  H   H874      1.0  0.05937  0.09559  0.67034  1.0000
  H   H875      1.0  0.02159  0.10704  0.64608  1.0000
  H   H876      1.0  0.17967  0.00915  0.61613  1.0000
  H   H877      1.0  0.11908  0.11207  0.64114  1.0000
  H   H878      1.0  0.03006  0.12331  0.67976  1.0000
  H   H879      1.0  0.03351  0.10639  0.69034  1.0000
  H   H880      1.0  0.09848  0.24533  0.76639  1.0000
  S   S303      1.0  0.28408  0.12496  0.75778  1.0000
  S   S304      1.0  0.11677  0.28640  0.76916  1.0000
  H   H881      1.0  0.12780  0.00191  0.62933  1.0000
  H   H882      1.0  0.42808  0.32703  0.62179  1.0000
  H   H883      1.0  0.36758  0.38318  0.69107  1.0000
  H   H884      1.0  0.18770  0.32940  0.78003  1.0000
  Fe  Fe152     1.0  0.15422  0.36080  0.77137  1.0000
  H   H885      1.0  0.18371  0.09677  0.74080  1.0000
  H   H886      1.0  0.09443  0.18163  0.59366  1.0000
  H   H887      1.0  0.13071  0.22673  0.76869  1.0000
  C   C878      1.0  0.32800  0.37642  0.68798  1.0000
  C   C879      1.0  0.08861  0.28612  0.75287  1.0000
  C   C880      1.0  0.19038  0.40994  0.73539  1.0000
  C   C881      1.0  0.19976  0.41041  0.74250  1.0000
  H   H888      1.0  0.08382  0.28460  0.72746  1.0000
  C   C882      1.0  0.32165  0.39024  0.68646  1.0000
  C   C883      1.0  0.32949  0.39984  0.68434  1.0000
  H   H889      1.0  0.40111  0.43114  0.60346  1.0000
  C   C884      1.0  0.19095  0.09415  0.74771  1.0000
  S   S305      1.0  0.13714  0.35041  0.77393  1.0000
  H   H890      1.0  0.09594  0.29200  0.74613  1.0000
  C   C885      1.0  0.41907  0.32692  0.61849  1.0000
  C   C886      1.0  0.39957  0.36169  0.58503  1.0000
  H   H891      1.0  0.20228  0.41341  0.76112  1.0000
  H   H892      1.0  0.12436  0.18865  0.74827  1.0000
  C   C887      1.0  0.41945  0.31662  0.61218  1.0000
  H   H893      1.0  0.21378  0.34129  0.74054  1.0000
  C   C888      1.0  0.08347  0.28783  0.76633  1.0000
  H   H894      1.0  0.04370  0.09134  0.63812  1.0000
  C   C889      1.0  0.34361  0.39544  0.68398  1.0000
  C   C890      1.0  0.34214  0.37237  0.68754  1.0000
  C   C891      1.0  0.39625  0.32729  0.60941  1.0000
  Fe  Fe153     1.0  0.17942  0.35991  0.78076  1.0000
  C   C892      1.0  0.40798  0.31679  0.60758  1.0000
  C   C893      1.0  0.35297  0.38683  0.60230  1.0000
  C   C894      1.0  0.07947  0.15584  0.59529  1.0000
  N   N76       1.0  0.34971  0.38184  0.68574  1.0000
  C   C895      1.0  0.12873  0.11053  0.62030  1.0000
  C   C896      1.0  0.36520  0.40549  0.60734  1.0000
  C   C897      1.0  0.36512  0.26796  0.63043  1.0000
  C   C898      1.0  0.37029  0.28771  0.63399  1.0000
  H   H895      1.0  0.34698  0.36160  0.68873  1.0000
  H   H896      1.0  0.13869  0.10508  0.62249  1.0000
  N   N77       1.0  0.17003  0.02359  0.60084  1.0000
  C   C899      1.0  0.13255  0.22223  0.75994  1.0000
  H   H897      1.0  0.38748  0.32745  0.60562  1.0000
  H   H898      1.0  0.34189  0.29620  0.62077  1.0000
  C   C900      1.0  0.42149  0.34554  0.58424  1.0000
  H   H899      1.0  0.14808  0.23332  0.74784  1.0000
  H   H900      1.0  0.37667  0.29222  0.63739  1.0000
  C   C901      1.0  0.00414  0.14507  0.63808  1.0000
  C   C902      1.0  0.20525  0.11697  0.75955  1.0000
  H   H901      1.0  0.35015  0.26880  0.61006  1.0000
  H   H902      1.0  0.18296  0.27333  0.77797  1.0000
  H   H903      1.0  0.37032  0.37976  0.67438  1.0000
  S   S306      1.0  0.19309  0.22323  0.60930  1.0000
  C   C903      1.0  0.36455  0.37754  0.68514  1.0000
  C   C904      1.0  0.41450  0.40148  0.62255  1.0000
  H   H904      1.0  0.00705  0.17282  0.64367  1.0000
  C   C905      1.0  0.99845  0.17846  0.63847  1.0000
  C   C906      1.0  0.15930  0.31209  0.77177  1.0000
  C   C907      1.0  0.07031  0.27080  0.77049  1.0000
  S   S307      1.0  0.34960  0.31582  0.58972  1.0000
  H   H905      1.0  0.29515  0.39462  0.62444  1.0000
  H   H906      1.0  0.16092  0.41702  0.75900  1.0000
  H   H907      1.0  0.15178  0.22335  0.72762  1.0000
  C   C908      1.0  0.15578  0.32609  0.77166  1.0000
  H   H908      1.0  0.11676  0.21083  0.76901  1.0000
  H   H909      1.0  0.19200  0.16119  0.61872  1.0000
  H   H910      1.0  0.17977  0.13784  0.58534  1.0000
  H   H911      1.0  0.12097  0.33117  0.77724  1.0000
  C   C909      1.0  0.49176  0.35599  0.64586  1.0000
  Fe  Fe154     1.0  0.15794  0.38615  0.77743  1.0000
  C   C910      1.0  0.16078  0.01511  0.60106  1.0000
  H   H912      1.0  0.17993  0.09950  0.58363  1.0000
  H   H913      1.0  0.36651  0.48563  0.67409  1.0000
  H   H914      1.0  0.33644  0.48644  0.67425  1.0000
  H   H915      1.0  0.38967  0.36546  0.58226  1.0000
  H   H916      1.0  0.36764  0.38806  0.58306  1.0000
  Fe  Fe155     1.0  0.35393  0.36419  0.58259  1.0000
  Fe  Fe156     1.0  0.35483  0.12448  0.92407  1.0000
  S   S308      1.0  0.34156  0.14397  0.91521  1.0000
  S   S309      1.0  0.36308  0.10591  0.91481  1.0000
  Fe  Fe157     1.0  0.35864  0.13620  0.94639  1.0000
  S   S310      1.0  0.34577  0.15677  0.93927  1.0000
  Fe  Fe158     1.0  0.33163  0.14508  0.93701  1.0000
  S   S311      1.0  0.30912  0.15200  0.94585  1.0000
  Fe  Fe159     1.0  0.35682  0.15386  0.91812  1.0000
  S   S312      1.0  0.36347  0.17085  0.90134  1.0000
  S   S313      1.0  0.34361  0.12460  0.94578  1.0000
  S   S314      1.0  0.37093  0.13438  0.92529  1.0000
  Fe  Fe160     1.0  0.37551  0.07364  0.84263  1.0000
  S   S315      1.0  0.36071  0.09362  0.83902  1.0000
  S   S316      1.0  0.39778  0.07473  0.83832  1.0000
  Fe  Fe161     1.0  0.35315  0.05747  0.84962  1.0000
  S   S317      1.0  0.33645  0.07656  0.84672  1.0000
  Fe  Fe162     1.0  0.35171  0.08380  0.82808  1.0000
  S   S318      1.0  0.34651  0.09844  0.80906  1.0000
  Fe  Fe163     1.0  0.34680  0.08491  0.85789  1.0000
  S   S319      1.0  0.33445  0.09994  0.87107  1.0000
  S   S320      1.0  0.36780  0.06423  0.82996  1.0000
  S   S321      1.0  0.36228  0.06536  0.86250  1.0000
  Fe  Fe164     1.0  0.45915  0.12302  0.85648  1.0000
  S   S322      1.0  0.45204  0.14473  0.84611  1.0000
  Fe  Fe165     1.0  0.43014  0.11764  0.86447  1.0000
  S   S323      1.0  0.42084  0.13905  0.85529  1.0000
  S   S324      1.0  0.41443  0.10467  0.87480  1.0000
  Fe  Fe166     1.0  0.43888  0.13664  0.83777  1.0000
  S   S325      1.0  0.43596  0.14494  0.81620  1.0000
  Fe  Fe167     1.0  0.43462  0.14512  0.86446  1.0000
  S   S326      1.0  0.42646  0.16412  0.87275  1.0000
  S   S327      1.0  0.44752  0.11474  0.84631  1.0000
  S   S328      1.0  0.44239  0.12395  0.87558  1.0000
  H   H917      1.0  0.16414  0.38706  0.80185  1.0000
  C   C911      1.0  0.34672  0.00044  0.85151  1.0000
  C   C912      1.0  0.34911  0.02357  0.84991  1.0000
  H   H918      1.0  0.35876  0.03354  0.83008  1.0000
  S   S329      1.0  0.25363  0.14308  0.81188  1.0000
  H   H919      1.0  0.38741  0.10754  0.94850  1.0000
  C   C913      1.0  0.18161  0.27308  0.78896  1.0000
  H   H920      1.0  0.13327  0.39225  0.82919  1.0000
  H   H921      1.0  0.00345  0.35222  0.87731  1.0000
  C   C914      1.0  0.39894  0.17385  0.84840  1.0000
  C   C915      1.0  0.40797  0.11045  0.91120  1.0000
  C   C916      1.0  0.02162  0.36135  0.84503  1.0000
  S   S330      1.0  0.12851  0.23715  0.81509  1.0000
  C   C917      1.0  0.01126  0.36316  0.83795  1.0000
  S   S331      1.0  0.03203  0.35286  0.86848  1.0000
  C   C918      1.0  0.16450  0.24340  0.80170  1.0000
  H   H922      1.0  0.10049  0.39702  0.90444  1.0000
  S   S332      1.0  0.34773  0.03659  0.85846  1.0000
  H   H923      1.0  0.08892  0.39680  0.92096  1.0000
  S   S333      1.0  0.29773  0.09294  0.78701  1.0000
  S   S334      1.0  0.12119  0.27646  0.80067  1.0000
  S   S335      1.0  0.15690  0.36528  0.79012  1.0000
  S   S336      1.0  0.37382  0.16113  0.81148  1.0000
  H   H924      1.0  0.38355  0.18486  0.81642  1.0000
  C   C919      1.0  0.09466  0.40326  0.91216  1.0000
  C   C920      1.0  0.00004  0.32326  0.86278  1.0000
  H   H925      1.0  0.10885  0.39051  0.93148  1.0000
  H   H926      1.0  0.12299  0.40777  0.83453  1.0000
  H   H927      1.0  0.04489  0.33250  0.85109  1.0000
  H   H928      1.0  0.11383  0.30776  0.83447  1.0000
  C   C921      1.0  0.28816  0.18332  0.79296  1.0000
  H   H929      1.0  0.38439  0.09420  0.93361  1.0000
  H   H930      1.0  0.14160  0.46836  0.87089  1.0000
  S   S337      1.0  0.19419  0.34681  0.79356  1.0000
  H   H931      1.0  0.32720  0.15209  0.80514  1.0000
  C   C922      1.0  0.14163  0.29398  0.81224  1.0000
  Fe  Fe168     1.0  0.18887  0.26450  0.86176  1.0000
  S   S338      1.0  0.16796  0.26532  0.87583  1.0000
  S   S339      1.0  0.20770  0.25398  0.87050  1.0000
  Fe  Fe169     1.0  0.17698  0.28067  0.83715  1.0000
  S   S340      1.0  0.15518  0.28251  0.84898  1.0000
  S   S341      1.0  0.18038  0.28842  0.81447  1.0000
  Fe  Fe170     1.0  0.16305  0.28716  0.86484  1.0000
  S   S342      1.0  0.15047  0.30557  0.87339  1.0000
  Fe  Fe171     1.0  0.16209  0.26065  0.85873  1.0000
  S   S343      1.0  0.15131  0.24364  0.86280  1.0000
  S   S344      1.0  0.18450  0.28687  0.85228  1.0000
  S   S345      1.0  0.18323  0.25826  0.84548  1.0000
  Fe  Fe172     1.0  0.26371  0.19010  0.85926  1.0000
  S   S346      1.0  0.26134  0.16985  0.87302  1.0000
  S   S347      1.0  0.24691  0.20269  0.84832  1.0000
  Fe  Fe173     1.0  0.29345  0.18559  0.86098  1.0000
  S   S348      1.0  0.29375  0.16502  0.87469  1.0000
  S   S349      1.0  0.31330  0.19249  0.85420  1.0000
  Fe  Fe174     1.0  0.28225  0.16180  0.86101  1.0000
  S   S350      1.0  0.28953  0.14341  0.85165  1.0000
  Fe  Fe175     1.0  0.27303  0.17502  0.88546  1.0000
  S   S351      1.0  0.26593  0.17282  0.90818  1.0000
  S   S352      1.0  0.28377  0.18154  0.84627  1.0000
  S   S353      1.0  0.27358  0.19608  0.87272  1.0000
  Fe  Fe176     1.0  0.14293  0.33010  0.93760  1.0000
  S   S354      1.0  0.12195  0.33630  0.95064  1.0000
  S   S355      1.0  0.15197  0.30940  0.93227  1.0000
  Fe  Fe177     1.0  0.15042  0.35683  0.93519  1.0000
  S   S356      1.0  0.13008  0.36557  0.94762  1.0000
  S   S357      1.0  0.16788  0.36747  0.92807  1.0000
  Fe  Fe178     1.0  0.13257  0.34488  0.96154  1.0000
  Fe  Fe179     1.0  0.12139  0.35637  0.93557  1.0000
  S   S358      1.0  0.10326  0.36818  0.92615  1.0000
  S   S359      1.0  0.15359  0.33677  0.94979  1.0000
  S   S360      1.0  0.14170  0.34961  0.92182  1.0000
  Fe  Fe180     1.0  0.08126  0.34764  0.84057  1.0000
  S   S361      1.0  0.07126  0.33704  0.86113  1.0000
  S   S362      1.0  0.09597  0.33846  0.82334  1.0000
  Fe  Fe181     1.0  0.07373  0.37499  0.84904  1.0000
  S   S363      1.0  0.06284  0.36679  0.87031  1.0000
  S   S364      1.0  0.07937  0.39543  0.84004  1.0000
  Fe  Fe182     1.0  0.08075  0.34882  0.86975  1.0000
  S   S365      1.0  0.09401  0.33829  0.88513  1.0000
  Fe  Fe183     1.0  0.05400  0.35584  0.85994  1.0000
  S   S366      1.0  0.09214  0.35780  0.84928  1.0000
  S   S367      1.0  0.06348  0.36563  0.83857  1.0000
  Fe  Fe184     1.0  0.14527  0.42477  0.85122  1.0000
  S   S368      1.0  0.12540  0.43895  0.84733  1.0000
  S   S369      1.0  0.15881  0.40898  0.83933  1.0000
  Fe  Fe185     1.0  0.14139  0.43164  0.87883  1.0000
  S   S370      1.0  0.12113  0.44614  0.87737  1.0000
  S   S371      1.0  0.15018  0.42825  0.89713  1.0000
  Fe  Fe186     1.0  0.11675  0.43033  0.86923  1.0000
  S   S372      1.0  0.09818  0.42104  0.87846  1.0000
  Fe  Fe187     1.0  0.13182  0.45347  0.85579  1.0000
  S   S373      1.0  0.13617  0.41528  0.87260  1.0000
  S   S374      1.0  0.15250  0.43991  0.85777  1.0000
  C   C923      1.0  0.08421  0.40264  0.85091  1.0000
  C   C924      1.0  0.09079  0.41360  0.84529  1.0000
  C   C925      1.0  0.09540  0.41909  0.85363  1.0000
  C   C926      1.0  0.09307  0.41392  0.86771  1.0000
  C   C927      1.0  0.08633  0.40307  0.87337  1.0000
  C   C928      1.0  0.08205  0.39733  0.86497  1.0000
  H   H932      1.0  0.09238  0.41782  0.83444  1.0000
  H   H933      1.0  0.10041  0.42759  0.84922  1.0000
  H   H934      1.0  0.08446  0.39905  0.88426  1.0000
  H   H935      1.0  0.07697  0.38890  0.86941  1.0000
  C   C929      1.0  0.16311  0.38413  0.91893  1.0000
  C   C930      1.0  0.15236  0.38774  0.91208  1.0000
  C   C931      1.0  0.14870  0.40117  0.90482  1.0000
  C   C932      1.0  0.15547  0.41107  0.90483  1.0000
  C   C933      1.0  0.16606  0.40744  0.91187  1.0000
  C   C934      1.0  0.17005  0.39394  0.91869  1.0000
  H   H936      1.0  0.14692  0.38018  0.91230  1.0000
  H   H937      1.0  0.14030  0.40398  0.89969  1.0000
  H   H938      1.0  0.17127  0.41507  0.91194  1.0000
  H   H939      1.0  0.17837  0.39117  0.92397  1.0000
  C   C935      1.0  0.10050  0.36014  0.91465  1.0000
  C   C936      1.0  0.10888  0.34754  0.91260  1.0000
  C   C937      1.0  0.10693  0.34118  0.90329  1.0000
  C   C938      1.0  0.09639  0.34719  0.89614  1.0000
  C   C939      1.0  0.08804  0.35992  0.89804  1.0000
  C   C940      1.0  0.09012  0.36640  0.90728  1.0000
  H   H940      1.0  0.11680  0.34264  0.91830  1.0000
  H   H941      1.0  0.11368  0.33158  0.90161  1.0000
  H   H942      1.0  0.07989  0.36468  0.89254  1.0000
  H   H943      1.0  0.08360  0.37619  0.90879  1.0000
  H   H944      1.0  0.31617  0.00462  0.84679  1.0000
  H   H945      1.0  0.03176  0.36288  0.83948  1.0000
  N   N78       1.0  0.32291  0.15184  0.82641  1.0000
  H   H946      1.0  0.42745  0.16439  0.83291  1.0000
  H   H947      1.0  0.30080  0.98824  0.85793  1.0000
  C   C941      1.0  0.16909  0.25499  0.79346  1.0000
  C   C942      1.0  0.15153  0.30655  0.88955  1.0000
  C   C943      1.0  0.14380  0.31805  0.89477  1.0000
  C   C944      1.0  0.14393  0.31898  0.90787  1.0000
  C   C945      1.0  0.15171  0.30837  0.91585  1.0000
  C   C946      1.0  0.15951  0.29685  0.91062  1.0000
  C   C947      1.0  0.15951  0.29597  0.89742  1.0000
  H   H948      1.0  0.13758  0.32622  0.88871  1.0000
  H   H949      1.0  0.13786  0.32781  0.91185  1.0000
  H   H950      1.0  0.16560  0.28862  0.91676  1.0000
  H   H951      1.0  0.16552  0.28707  0.89342  1.0000
  C   C948      1.0  0.21958  0.24079  0.86313  1.0000
  C   C949      1.0  0.21754  0.23702  0.85210  1.0000
  C   C950      1.0  0.22632  0.22560  0.84730  1.0000
  C   C951      1.0  0.23724  0.21790  0.85347  1.0000
  C   C952      1.0  0.23965  0.22195  0.86415  1.0000
  C   C953      1.0  0.23080  0.23335  0.86900  1.0000
  H   H952      1.0  0.20914  0.24278  0.84734  1.0000
  H   H953      1.0  0.22449  0.22259  0.83895  1.0000
  H   H954      1.0  0.24811  0.21615  0.86890  1.0000
  H   H955      1.0  0.23251  0.23627  0.87747  1.0000
  H   H956      1.0  0.13244  0.36907  0.97569  1.0000
  C   C954      1.0  0.15888  0.39586  0.80630  1.0000
  C   C955      1.0  0.16182  0.39693  0.81825  1.0000
  C   C956      1.0  0.15512  0.40829  0.82413  1.0000
  C   C957      1.0  0.14554  0.41866  0.81794  1.0000
  C   C958      1.0  0.14262  0.41761  0.80594  1.0000
  H   H957      1.0  0.11640  0.40066  0.80113  1.0000
  H   H958      1.0  0.16929  0.38891  0.82298  1.0000
  H   H959      1.0  0.14045  0.42752  0.82233  1.0000
  C   C959      1.0  0.37988  0.10680  0.80123  1.0000
  C   C960      1.0  0.19077  0.33042  0.79926  1.0000
  H   H960      1.0  0.38997  0.00894  0.83480  1.0000
  C   C961      1.0  0.18473  0.31125  0.79517  1.0000
  C   C962      1.0  0.18463  0.30447  0.80872  1.0000
  C   C963      1.0  0.18773  0.31063  0.81749  1.0000
  C   C964      1.0  0.19098  0.32352  0.81272  1.0000
  C   C965      1.0  0.14930  0.32813  0.80783  1.0000
  C   C966      1.0  0.32752  0.14279  0.97746  1.0000
  H   H961      1.0  0.18779  0.30547  0.82789  1.0000
  H   H962      1.0  0.19344  0.32822  0.81953  1.0000
  C   C967      1.0  0.32031  0.20349  0.80803  1.0000
  C   C968      1.0  0.33146  0.19735  0.81432  1.0000
  C   C969      1.0  0.32943  0.19479  0.82853  1.0000
  C   C970      1.0  0.31618  0.19802  0.83649  1.0000
  C   C971      1.0  0.30507  0.20450  0.83022  1.0000
  C   C972      1.0  0.30718  0.20744  0.81598  1.0000
  H   H963      1.0  0.34162  0.19427  0.80829  1.0000
  H   H964      1.0  0.33803  0.18974  0.83337  1.0000
  H   H965      1.0  0.29485  0.20728  0.83637  1.0000
  H   H966      1.0  0.29861  0.21259  0.81115  1.0000
  C   C973      1.0  0.08656  0.30754  0.80543  1.0000
  C   C974      1.0  0.09940  0.31096  0.80127  1.0000
  C   C975      1.0  0.10198  0.32066  0.80666  1.0000
  C   C976      1.0  0.09186  0.32678  0.81656  1.0000
  C   C977      1.0  0.07893  0.32343  0.82078  1.0000
  C   C978      1.0  0.07624  0.31389  0.81511  1.0000
  C   C979      1.0  0.18762  0.32428  0.79049  1.0000
  H   H967      1.0  0.11195  0.32330  0.80322  1.0000
  H   H968      1.0  0.07107  0.32819  0.82838  1.0000
  H   H969      1.0  0.06627  0.31127  0.81834  1.0000
  C   C980      1.0  0.12310  0.41795  0.92380  1.0000
  H   H970      1.0  0.31928  0.14870  0.84808  1.0000
  H   H971      1.0  0.37759  0.03283  0.85868  1.0000
  C   C981      1.0  0.35338  0.00109  0.83781  1.0000
  H   H972      1.0  0.01352  0.36610  0.82694  1.0000
  C   C982      1.0  0.13400  0.23990  0.82848  1.0000
  C   C983      1.0  0.13802  0.25195  0.82760  1.0000
  C   C984      1.0  0.14334  0.25329  0.83809  1.0000
  C   C985      1.0  0.14443  0.24265  0.84956  1.0000
  C   C986      1.0  0.14023  0.23075  0.85049  1.0000
  C   C987      1.0  0.13515  0.22934  0.83995  1.0000
  H   H973      1.0  0.13756  0.25999  0.81865  1.0000
  H   H974      1.0  0.14666  0.26247  0.83727  1.0000
  H   H975      1.0  0.14103  0.22251  0.85933  1.0000
  H   H976      1.0  0.13211  0.22001  0.84071  1.0000
  H   H977      1.0  0.10512  0.36474  0.87025  1.0000
  H   H978      1.0  0.27793  0.20036  0.81887  1.0000
  C   C988      1.0  0.27977  0.14451  0.84000  1.0000
  C   C989      1.0  0.26571  0.15052  0.84233  1.0000
  C   C990      1.0  0.25776  0.15008  0.83361  1.0000
  C   C991      1.0  0.26391  0.14390  0.82239  1.0000
  C   C992      1.0  0.27807  0.13834  0.81987  1.0000
  C   C993      1.0  0.28598  0.13859  0.82866  1.0000
  H   H979      1.0  0.26085  0.15508  0.85112  1.0000
  H   H980      1.0  0.24680  0.15443  0.83565  1.0000
  H   H981      1.0  0.28292  0.13328  0.81154  1.0000
  H   H982      1.0  0.29685  0.13390  0.82685  1.0000
  H   H983      1.0  0.13082  0.42149  0.92632  1.0000
  H   H984      1.0  0.32421  0.12362  0.85175  1.0000
  H   H985      1.0  0.31540  0.17199  0.81575  1.0000
  H   H986      1.0  0.11487  0.39709  0.83017  1.0000
  C   C994      1.0  0.14809  0.30502  0.80768  1.0000
  H   H987      1.0  0.39863  0.16728  0.79203  1.0000
  H   H988      1.0  0.10856  0.37770  0.84640  1.0000
  C   C995      1.0  0.41886  0.14854  0.81445  1.0000
  C   C996      1.0  0.41521  0.15691  0.80243  1.0000
  C   C997      1.0  0.40141  0.16063  0.80125  1.0000
  C   C998      1.0  0.39125  0.15601  0.81214  1.0000
  C   C999      1.0  0.39492  0.14738  0.82402  1.0000
  C   C1000     1.0  0.40872  0.14352  0.82509  1.0000
  H   H989      1.0  0.42305  0.16071  0.79410  1.0000
  S   S375      1.0  0.14583  0.40520  0.78494  1.0000
  H   H990      1.0  0.38709  0.14371  0.83241  1.0000
  H   H991      1.0  0.41152  0.13654  0.83409  1.0000
  C   C1001     1.0  0.40231  0.08298  0.84859  1.0000
  C   C1002     1.0  0.39413  0.08451  0.86146  1.0000
  C   C1003     1.0  0.39803  0.09104  0.86947  1.0000
  C   C1004     1.0  0.40998  0.09630  0.86458  1.0000
  C   C1005     1.0  0.41801  0.09498  0.85162  1.0000
  C   C1006     1.0  0.41430  0.08816  0.84375  1.0000
  H   H992      1.0  0.38493  0.08044  0.86534  1.0000
  H   H993      1.0  0.39175  0.09206  0.87945  1.0000
  H   H994      1.0  0.42727  0.09892  0.84777  1.0000
  H   H995      1.0  0.42080  0.08684  0.83390  1.0000
  C   C1007     1.0  0.33356  0.09625  0.80251  1.0000
  C   C1008     1.0  0.32827  0.08445  0.80730  1.0000
  C   C1009     1.0  0.31765  0.08322  0.80207  1.0000
  C   C1010     1.0  0.37187  0.99483  0.87154  1.0000
  C   C1011     1.0  0.16706  0.34720  0.97690  1.0000
  H   H996      1.0  0.09288  0.35789  0.79614  1.0000
  H   H997      1.0  0.33238  0.07627  0.81499  1.0000
  H   H998      1.0  0.31351  0.07412  0.80582  1.0000
  H   H999      1.0  0.02067  0.33156  0.83173  1.0000
  N   N79       1.0  0.02665  0.32700  0.85074  1.0000
  C   C1012     1.0  0.38125  0.16850  0.89441  1.0000
  C   C1013     1.0  0.38974  0.15545  0.89432  1.0000
  C   C1014     1.0  0.40374  0.15397  0.88779  1.0000
  C   C1015     1.0  0.40933  0.16554  0.88184  1.0000
  C   C1016     1.0  0.40092  0.17852  0.88225  1.0000
  C   C1017     1.0  0.38686  0.18000  0.88828  1.0000
  H   H1000     1.0  0.38553  0.14652  0.89906  1.0000
  H   H1001     1.0  0.41024  0.14392  0.88745  1.0000
  H   H1002     1.0  0.40520  0.18748  0.87760  1.0000
  H   H1003     1.0  0.38036  0.19010  0.88832  1.0000
  C   C1018     1.0  0.35473  0.10414  0.90303  1.0000
  C   C1019     1.0  0.36140  0.09462  0.89476  1.0000
  C   C1020     1.0  0.35523  0.09325  0.88496  1.0000
  C   C1021     1.0  0.34222  0.10122  0.88355  1.0000
  C   C1022     1.0  0.33545  0.11066  0.89192  1.0000
  C   C1023     1.0  0.34170  0.11213  0.90165  1.0000
  H   H1004     1.0  0.37136  0.08824  0.89597  1.0000
  H   H1005     1.0  0.36049  0.08591  0.87861  1.0000
  H   H1006     1.0  0.32533  0.11680  0.89094  1.0000
  H   H1007     1.0  0.33636  0.11931  0.90816  1.0000
  C   C1024     1.0  0.29737  0.15607  0.93524  1.0000
  C   C1025     1.0  0.30170  0.15593  0.92131  1.0000
  C   C1026     1.0  0.29210  0.16068  0.91290  1.0000
  C   C1027     1.0  0.27816  0.16556  0.91841  1.0000
  C   C1028     1.0  0.27384  0.16527  0.93240  1.0000
  C   C1029     1.0  0.28339  0.16055  0.94077  1.0000
  H   H1008     1.0  0.31243  0.15240  0.91695  1.0000
  H   H1009     1.0  0.29554  0.16074  0.90215  1.0000
  H   H1010     1.0  0.26308  0.16892  0.93676  1.0000
  H   H1011     1.0  0.27995  0.16063  0.95154  1.0000
  H   H1012     1.0  0.12581  0.39867  0.93807  1.0000
  Fe  Fe188     1.0  0.10364  0.28176  0.79026  1.0000
  S   S376      1.0  0.32253  0.20520  0.79044  1.0000
  H   H1013     1.0  0.35495  0.15731  0.96491  1.0000
  H   H1014     1.0  0.12964  0.38717  0.87886  1.0000
  H   H1015     1.0  0.11552  0.36960  0.88671  1.0000
  C   C1030     1.0  0.49414  0.15422  0.84074  1.0000
  C   C1031     1.0  0.12357  0.30679  0.82707  1.0000
  H   H1016     1.0  0.42639  0.18225  0.82544  1.0000
  C   C1032     1.0  0.35535  0.02439  0.83608  1.0000
  C   C1033     1.0  0.10360  0.35886  0.79097  1.0000
  H   H1017     1.0  0.40855  0.18203  0.81425  1.0000
  H   H1018     1.0  0.07058  0.28111  0.78576  1.0000
  S   S377      1.0  0.34810  0.17133  0.79064  1.0000
  N   N80       1.0  0.37773  0.12070  0.79717  1.0000
  H   H1019     1.0  0.37970  0.03237  0.84129  1.0000
  C   C1034     1.0  0.26757  0.17785  0.80784  1.0000
  H   H1020     1.0  0.33093  0.11256  0.83183  1.0000
  H   H1021     1.0  0.17372  0.28222  0.79148  1.0000
  C   C1035     1.0  0.32934  0.13167  0.81717  1.0000
  H   H1022     1.0  0.18250  0.30649  0.78828  1.0000
  C   C1036     1.0  0.37920  0.17935  0.83838  1.0000
  N   N81       1.0  0.21230  0.20721  0.88110  1.0000
  C   C1037     1.0  0.20861  0.20411  0.87088  1.0000
  C   C1038     1.0  0.20444  0.21794  0.88691  1.0000
  C   C1039     1.0  0.19683  0.21192  0.86615  1.0000
  C   C1040     1.0  0.19263  0.22599  0.88238  1.0000
  C   C1041     1.0  0.18881  0.22293  0.87196  1.0000
  C   C1042     1.0  0.22440  0.19860  0.88624  1.0000
  H   H1023     1.0  0.21497  0.19573  0.86613  1.0000
  H   H1024     1.0  0.20748  0.22061  0.89480  1.0000
  H   H1025     1.0  0.19404  0.20957  0.85791  1.0000
  H   H1026     1.0  0.18674  0.23480  0.88666  1.0000
  H   H1027     1.0  0.17973  0.22920  0.86829  1.0000
  H   H1028     1.0  0.23249  0.19445  0.87795  1.0000
  H   H1029     1.0  0.22919  0.20455  0.89026  1.0000
  H   H1030     1.0  0.22143  0.18998  0.89449  1.0000
  H   H1031     1.0  0.29644  0.19769  0.79796  1.0000
  H   H1032     1.0  0.31421  0.17050  0.83349  1.0000
  C   C1043     1.0  0.18052  0.25550  0.81006  1.0000
  C   C1044     1.0  0.00419  0.32680  0.84862  1.0000
  C   C1045     1.0  0.17607  0.24394  0.81858  1.0000
  C   C1046     1.0  0.16815  0.23779  0.81427  1.0000
  S   S378      1.0  0.08357  0.29528  0.79853  1.0000
  C   C1047     1.0  0.10524  0.38448  0.80918  1.0000
  H   H1033     1.0  0.18656  0.26032  0.81354  1.0000
  H   H1034     1.0  0.33092  0.00341  0.82387  1.0000
  H   H1035     1.0  0.17846  0.23997  0.82859  1.0000
  H   H1036     1.0  0.16432  0.22902  0.82092  1.0000
  H   H1037     1.0  0.39449  0.02637  0.84912  1.0000
  H   H1038     1.0  0.42434  0.17640  0.84356  1.0000
  C   C1048     1.0  0.38334  0.02677  0.85078  1.0000
  N   N82       1.0  0.28026  0.10644  0.83284  1.0000
  C   C1049     1.0  0.27601  0.11044  0.84507  1.0000
  C   C1050     1.0  0.29390  0.10144  0.82790  1.0000
  C   C1051     1.0  0.28560  0.10975  0.85254  1.0000
  C   C1052     1.0  0.30376  0.10054  0.83512  1.0000
  C   C1053     1.0  0.29956  0.10475  0.84752  1.0000
  C   C1054     1.0  0.27017  0.10705  0.82511  1.0000
  H   H1039     1.0  0.26521  0.11462  0.84891  1.0000
  H   H1040     1.0  0.29720  0.09822  0.81825  1.0000
  H   H1041     1.0  0.28228  0.11342  0.86198  1.0000
  H   H1042     1.0  0.31458  0.09662  0.83108  1.0000
  H   H1043     1.0  0.30708  0.10422  0.85323  1.0000
  H   H1044     1.0  0.27425  0.11030  0.81396  1.0000
  H   H1045     1.0  0.26780  0.09686  0.82708  1.0000
  H   H1046     1.0  0.26047  0.11462  0.82780  1.0000
  N   N83       1.0  0.37446  0.12387  0.86138  1.0000
  C   C1055     1.0  0.38530  0.12707  0.86395  1.0000
  C   C1056     1.0  0.36142  0.12748  0.86888  1.0000
  C   C1057     1.0  0.38326  0.13382  0.87447  1.0000
  C   C1058     1.0  0.35898  0.13443  0.87933  1.0000
  C   C1059     1.0  0.36999  0.13753  0.88219  1.0000
  C   C1060     1.0  0.37661  0.11671  0.85041  1.0000
  H   H1047     1.0  0.39566  0.12423  0.85803  1.0000
  H   H1048     1.0  0.35284  0.12482  0.86693  1.0000
  H   H1049     1.0  0.39196  0.13598  0.87671  1.0000
  H   H1050     1.0  0.34865  0.13711  0.88539  1.0000
  H   H1051     1.0  0.36820  0.14272  0.89044  1.0000
  H   H1052     1.0  0.37209  0.10753  0.85447  1.0000
  H   H1053     1.0  0.37166  0.12355  0.84210  1.0000
  H   H1054     1.0  0.38773  0.11316  0.84603  1.0000
  C   C1061     1.0  0.40971  0.11828  0.91931  1.0000
  H   H1055     1.0  0.15782  0.23901  0.79857  1.0000
  H   H1056     1.0  0.02977  0.32242  0.87099  1.0000
  H   H1057     1.0  0.33974  0.01093  0.86822  1.0000
  C   C1062     1.0  0.13027  0.31766  0.82221  1.0000
  C   C1063     1.0  0.35745  0.01319  0.83007  1.0000
  H   H1058     1.0  0.41656  0.12533  0.91506  1.0000
  C   C1064     1.0  0.31759  0.10557  0.78737  1.0000
  C   C1065     1.0  0.28834  0.19206  0.80093  1.0000
  S   S379      1.0  0.36331  0.19669  0.78504  1.0000
  Fe  Fe189     1.0  0.12326  0.25525  0.79853  1.0000
  C   C1066     1.0  0.34461  0.01164  0.85751  1.0000
  C   C1067     1.0  0.10704  0.42098  0.90980  1.0000
  C   C1068     1.0  0.11646  0.42591  0.91344  1.0000
  H   H1059     1.0  0.10211  0.42715  0.90156  1.0000
  H   H1060     1.0  0.11898  0.43566  0.90799  1.0000
  H   H1061     1.0  0.08693  0.41168  0.90758  1.0000
  H   H1062     1.0  0.39147  0.08852  0.81205  1.0000
  C   C1069     1.0  0.27783  0.16751  0.78775  1.0000
  Fe  Fe190     1.0  0.36848  0.17383  0.79166  1.0000
  H   H1063     1.0  0.25929  0.17249  0.81052  1.0000
  N   N84       1.0  0.30300  0.18805  0.91488  1.0000
  C   C1070     1.0  0.31689  0.18279  0.91300  1.0000
  C   C1071     1.0  0.29668  0.19183  0.90411  1.0000
  C   C1072     1.0  0.32480  0.18107  0.90009  1.0000
  C   C1073     1.0  0.30430  0.19026  0.89107  1.0000
  C   C1074     1.0  0.31844  0.18485  0.88907  1.0000
  C   C1075     1.0  0.29497  0.19038  0.92833  1.0000
  H   H1064     1.0  0.32192  0.17976  0.92153  1.0000
  H   H1065     1.0  0.28564  0.19584  0.90559  1.0000
  H   H1066     1.0  0.33580  0.17689  0.89864  1.0000
  H   H1067     1.0  0.29929  0.19322  0.88255  1.0000
  H   H1068     1.0  0.32444  0.18364  0.87897  1.0000
  H   H1069     1.0  0.28421  0.18934  0.92993  1.0000
  H   H1070     1.0  0.29939  0.18271  0.93661  1.0000
  H   H1071     1.0  0.29484  0.20075  0.92928  1.0000
  N   N85       1.0  0.11543  0.30038  0.89893  1.0000
  C   C1076     1.0  0.12671  0.29064  0.90194  1.0000
  C   C1077     1.0  0.10665  0.30713  0.90864  1.0000
  C   C1078     1.0  0.12956  0.28760  0.91491  1.0000
  C   C1079     1.0  0.10935  0.30457  0.92162  1.0000
  C   C1080     1.0  0.12096  0.29481  0.92471  1.0000
  C   C1081     1.0  0.11340  0.30448  0.88492  1.0000
  H   H1072     1.0  0.13390  0.28555  0.89414  1.0000
  H   H1073     1.0  0.09775  0.31494  0.90624  1.0000
  H   H1074     1.0  0.13873  0.28014  0.91714  1.0000
  H   H1075     1.0  0.10267  0.31039  0.92907  1.0000
  H   H1076     1.0  0.12345  0.29302  0.93458  1.0000
  H   H1077     1.0  0.11795  0.29598  0.87941  1.0000
  H   H1078     1.0  0.10227  0.30784  0.88475  1.0000
  H   H1079     1.0  0.11842  0.31315  0.87931  1.0000
  H   H1080     1.0  0.36827  0.18040  0.83935  1.0000
  C   C1082     1.0  0.42207  0.17484  0.83434  1.0000
  H   H1081     1.0  0.48335  0.14320  0.83394  1.0000
  C   C1083     1.0  0.40189  0.18037  0.82433  1.0000
  H   H1082     1.0  0.10129  0.38685  0.81922  1.0000
  N   N86       1.0  0.40724  0.17660  0.83573  1.0000
  C   C1084     1.0  0.38574  0.12763  0.79993  1.0000
  C   C1085     1.0  0.11362  0.39225  0.79904  1.0000
  H   H1083     1.0  0.10730  0.30623  0.79374  1.0000
  H   H1084     1.0  0.37826  0.17325  0.86007  1.0000
  S   S380      1.0  0.10451  0.26012  0.78970  1.0000
  H   H1085     1.0  0.36640  0.99111  0.88178  1.0000
  C   C1086     1.0  0.38991  0.09953  0.80870  1.0000
  C   C1087     1.0  0.14929  0.40621  0.80013  1.0000
  H   H1086     1.0  0.16466  0.35697  0.95645  1.0000
  H   H1087     1.0  0.47400  0.13592  0.87097  1.0000
  H   H1088     1.0  0.15534  0.32778  0.81526  1.0000
  C   C1088     1.0  0.32070  0.16668  0.82427  1.0000
  H   H1089     1.0  0.40580  0.10093  0.81752  1.0000
  H   H1090     1.0  0.33079  0.16956  0.82184  1.0000
  C   C1089     1.0  0.48500  0.13200  0.86963  1.0000
  H   H1091     1.0  0.04107  0.33652  0.83467  1.0000
  N   N87       1.0  0.14231  0.31673  0.81253  1.0000
  C   C1090     1.0  0.32505  0.12976  0.84146  1.0000
  C   C1091     1.0  0.01891  0.35721  0.85924  1.0000
  C   C1092     1.0  0.32228  0.14399  0.83931  1.0000
  H   H1092     1.0  0.40343  0.12327  0.93923  1.0000
  H   H1093     1.0  0.39214  0.10092  0.89956  1.0000
  H   H1094     1.0  0.19154  0.27377  0.79058  1.0000
  N   N88       1.0  0.39917  0.10174  0.91643  1.0000
  H   H1095     1.0  0.36299  0.13862  0.79083  1.0000
  C   C1093     1.0  0.36621  0.13933  0.97623  1.0000
  H   H1096     1.0  0.40327  0.17054  0.85737  1.0000
  C   C1094     1.0  0.37432  0.00802  0.86776  1.0000
  C   C1095     1.0  0.14141  0.47905  0.86648  1.0000
  C   C1096     1.0  0.40241  0.11709  0.93286  1.0000
  H   H1097     1.0  0.41364  0.11143  0.90066  1.0000
  C   C1097     1.0  0.01764  0.32855  0.84273  1.0000
  N   N89       1.0  0.17410  0.33453  0.88542  1.0000
  C   C1098     1.0  0.17261  0.34769  0.88643  1.0000
  C   C1099     1.0  0.17692  0.32394  0.89604  1.0000
  C   C1100     1.0  0.17410  0.35049  0.89825  1.0000
  C   C1101     1.0  0.17826  0.32638  0.90809  1.0000
  C   C1102     1.0  0.17693  0.33974  0.90914  1.0000
  C   C1103     1.0  0.17208  0.33189  0.87308  1.0000
  H   H1098     1.0  0.17024  0.35611  0.87807  1.0000
  H   H1099     1.0  0.17797  0.31351  0.89534  1.0000
  H   H1100     1.0  0.17290  0.36093  0.89911  1.0000
  H   H1101     1.0  0.18004  0.31797  0.91665  1.0000
  H   H1102     1.0  0.17789  0.34179  0.91845  1.0000
  H   H1103     1.0  0.17558  0.32088  0.87267  1.0000
  H   H1104     1.0  0.16097  0.33495  0.87285  1.0000
  H   H1105     1.0  0.17799  0.33763  0.86378  1.0000
  C   C1104     1.0  0.36740  0.12808  0.78907  1.0000
  C   C1105     1.0  0.26752  0.18640  0.81613  1.0000
  C   C1106     1.0  0.00564  0.35538  0.86631  1.0000
  C   C1107     1.0  0.49134  0.12107  0.86310  1.0000
  C   C1108     1.0  0.04075  0.32876  0.84438  1.0000
  N   N90       1.0  0.38081  0.01293  0.85471  1.0000
  C   C1109     1.0  0.27795  0.19358  0.81260  1.0000
  C   C1110     1.0  0.02272  0.32338  0.86463  1.0000
  H   H1106     1.0  0.16604  0.25943  0.78378  1.0000
  H   H1107     1.0  0.37060  0.01446  0.87520  1.0000
  C   C1111     1.0  0.38507  0.00496  0.84520  1.0000
  C   C1112     1.0  0.35872  0.15282  0.97416  1.0000
  H   H1108     1.0  0.33208  0.12695  0.80844  1.0000
  H   H1109     1.0  0.09554  0.36751  0.81428  1.0000
  H   H1110     1.0  0.14175  0.33805  0.80647  1.0000
  N   N91       1.0  0.12100  0.38944  0.84925  1.0000
  C   C1113     1.0  0.12704  0.39195  0.85814  1.0000
  C   C1114     1.0  0.11340  0.37964  0.85343  1.0000
  C   C1115     1.0  0.12511  0.38491  0.87176  1.0000
  C   C1116     1.0  0.11137  0.37232  0.86693  1.0000
  C   C1117     1.0  0.11719  0.37506  0.87616  1.0000
  C   C1118     1.0  0.12317  0.39695  0.83505  1.0000
  H   H1111     1.0  0.13330  0.39953  0.85469  1.0000
  H   H1112     1.0  0.14899  0.48210  0.88246  1.0000
  N   N92       1.0  0.10420  0.40850  0.91641  1.0000
  C   C1119     1.0  0.11082  0.40054  0.92646  1.0000
  C   C1120     1.0  0.12034  0.40514  0.93033  1.0000
  C   C1121     1.0  0.38777  0.18195  0.82549  1.0000
  Fe  Fe191     1.0  0.26447  0.13569  0.79238  1.0000
  S   S381      1.0  0.36914  0.12903  0.96429  1.0000
  C   C1122     1.0  0.39597  0.12064  0.80727  1.0000
  C   C1123     1.0  0.32866  0.12358  0.83030  1.0000
  H   H1113     1.0  0.15774  0.30415  0.80021  1.0000
  C   C1124     1.0  0.00936  0.32149  0.87086  1.0000
  H   H1114     1.0  0.14618  0.28484  0.80814  1.0000
  H   H1115     1.0  0.48475  0.16109  0.84463  1.0000
  H   H1116     1.0  0.36251  0.01383  0.81942  1.0000
  C   C1125     1.0  0.32650  0.14587  0.81539  1.0000
  C   C1126     1.0  0.12928  0.29490  0.82199  1.0000
  H   H1117     1.0  0.12409  0.28646  0.82554  1.0000
  C   C1127     1.0  0.10194  0.37360  0.80629  1.0000
  C   C1128     1.0  0.39795  0.10652  0.81178  1.0000
  C   C1129     1.0  0.38270  0.99176  0.84861  1.0000
  C   C1130     1.0  0.38479  0.17527  0.84995  1.0000
  N   N93       1.0  0.27790  0.17631  0.79651  1.0000
  H   H1118     1.0  0.40754  0.08833  0.90259  1.0000
  C   C1131     1.0  0.39739  0.09389  0.90759  1.0000
  H   H1119     1.0  0.39099  0.08633  0.91329  1.0000
  C   C1132     1.0  0.11488  0.37828  0.78356  1.0000
  H   H1120     1.0  0.33960  0.12221  0.97886  1.0000
  H   H1121     1.0  0.00616  0.31905  0.88189  1.0000
  N   N94       1.0  0.10669  0.37068  0.79357  1.0000
  C   C1133     1.0  0.39344  0.10819  0.93810  1.0000
  H   H1122     1.0  0.16934  0.37866  0.95737  1.0000
  H   H1123     1.0  0.04755  0.31891  0.84232  1.0000
  C   C1134     1.0  0.39181  0.10067  0.92963  1.0000
  H   H1124     1.0  0.37385  0.10124  0.79869  1.0000
  S   S382      1.0  0.12971  0.47613  0.84692  1.0000
  C   C1135     1.0  0.31208  0.09392  0.79230  1.0000
  H   H1125     1.0  0.12565  0.32694  0.82609  1.0000
  H   H1126     1.0  0.35870  0.12287  0.79171  1.0000
  H   H1127     1.0  0.34348  0.99122  0.85757  1.0000
  H   H1128     1.0  0.40240  0.12613  0.80933  1.0000
  S   S383      1.0  0.26196  0.11715  0.78718  1.0000
  H   H1129     1.0  0.25941  0.18752  0.82521  1.0000
  N   N95       1.0  0.17719  0.26074  0.79758  1.0000
  C   C1136     1.0  0.17214  0.37149  0.97815  1.0000
  H   H1130     1.0  0.13526  0.42569  0.80114  1.0000
  C   C1137     1.0  0.37606  0.98668  0.86187  1.0000
  H   H1131     1.0  0.15650  0.32773  0.79777  1.0000
  S   S384      1.0  0.48194  0.11418  0.85586  1.0000
  H   H1132     1.0  0.33254  0.11576  0.78846  1.0000
  C   C1138     1.0  0.32833  0.10671  0.79241  1.0000
  H   H1133     1.0  0.48796  0.14651  0.87924  1.0000
  H   H1134     1.0  0.38430  0.13861  0.79640  1.0000
  C   C1139     1.0  0.16690  0.35801  0.96560  1.0000
  H   H1135     1.0  0.10506  0.48345  0.87193  1.0000
  C   C1140     1.0  0.49295  0.13800  0.87428  1.0000
  H   H1136     1.0  0.11077  0.34942  0.79490  1.0000
  S   S385      1.0  0.35717  0.98698  0.83000  1.0000
  C   C1141     1.0  0.11847  0.38915  0.78614  1.0000
  C   C1142     1.0  0.32418  0.99631  0.82862  1.0000
  H   H1137     1.0  0.16472  0.33777  0.97663  1.0000
  C   C1143     1.0  0.30721  0.98791  0.84780  1.0000
  C   C1144     1.0  0.13673  0.48515  0.85442  1.0000
  C   C1145     1.0  0.99815  0.36086  0.84501  1.0000
  C   C1146     1.0  0.16948  0.37023  0.96617  1.0000
  H   H1138     1.0  0.32903  0.99423  0.80086  1.0000
  S   S386      1.0  0.28736  0.13124  0.78589  1.0000
  H   H1139     1.0  0.31653  0.16333  0.97877  1.0000
  H   H1140     1.0  0.28812  0.16064  0.78544  1.0000
  C   C1147     1.0  0.49327  0.14420  0.83462  1.0000
  H   H1141     1.0  0.29623  0.18224  0.78386  1.0000
  H   H1142     1.0  0.27023  0.16098  0.79262  1.0000
  H   H1143     1.0  0.32565  0.14353  0.96752  1.0000
  C   C1148     1.0  0.31581  0.99708  0.84158  1.0000
  H   H1144     1.0  0.17403  0.38107  0.97857  1.0000
  H   H1145     1.0  0.34376  0.98670  0.80862  1.0000
  H   H1146     1.0  0.17710  0.40870  0.78259  1.0000
  H   H1147     1.0  0.99689  0.32860  0.84227  1.0000
  Fe  Fe192     1.0  0.34367  0.19375  0.78233  1.0000
  Fe  Fe193     1.0  0.33903  0.94571  0.14431  1.0000
  S   S387      1.0  0.33607  0.95963  0.12434  1.0000
  S   S388      1.0  0.32105  0.94021  0.16085  1.0000
  Fe  Fe194     1.0  0.36983  0.94314  0.13676  1.0000
  S   S389      1.0  0.36942  0.95706  0.11622  1.0000
  S   S390      1.0  0.38876  0.93160  0.14460  1.0000
  Fe  Fe195     1.0  0.35097  0.97011  0.12745  1.0000
  Fe  Fe196     1.0  0.35473  0.94521  0.11516  1.0000
  S   S391      1.0  0.35739  0.93759  0.09599  1.0000
  S   S392      1.0  0.35258  0.95704  0.14814  1.0000
  S   S393      1.0  0.35646  0.93047  0.13497  1.0000
  Fe  Fe197     1.0  0.34395  0.87424  0.08011  1.0000
  S   S394      1.0  0.35823  0.85420  0.08589  1.0000
  S   S395      1.0  0.33574  0.88643  0.09672  1.0000
  Fe  Fe198     1.0  0.34449  0.86849  0.05256  1.0000
  S   S396      1.0  0.35876  0.84800  0.05648  1.0000
  Fe  Fe199     1.0  0.34551  0.84546  0.07768  1.0000
  S   S397      1.0  0.34068  0.82539  0.09030  1.0000
  Fe  Fe200     1.0  0.37002  0.85869  0.06441  1.0000
  S   S398      1.0  0.39308  0.85519  0.05789  1.0000
  S   S399      1.0  0.33024  0.86517  0.07337  1.0000
  S   S400      1.0  0.35677  0.87950  0.05901  1.0000
  Fe  Fe201     1.0  0.45552  0.85053  0.12599  1.0000
  S   S401      1.0  0.43899  0.86634  0.13569  1.0000
  C   C1149     1.0  0.34035  0.85711  0.99816  1.0000
  Fe  Fe202     1.0  0.43599  0.84516  0.11166  1.0000
  S   S402      1.0  0.41823  0.86061  0.11988  1.0000
  S   S403      1.0  0.43357  0.83281  0.09826  1.0000
  Fe  Fe203     1.0  0.43362  0.87350  0.11510  1.0000
  S   S404      1.0  0.42699  0.89484  0.10380  1.0000
  Fe  Fe204     1.0  0.42509  0.85192  0.13953  1.0000
  S   S405      1.0  0.40886  0.84801  0.15870  1.0000
  S   S406      1.0  0.45105  0.85875  0.10503  1.0000
  S   S407      1.0  0.44197  0.83535  0.13172  1.0000
  C   C1150     1.0  0.18219  0.65867  0.15182  1.0000
  H   H1148     1.0  0.41219  0.81706  0.08770  1.0000
  Fe  Fe205     1.0  0.13520  0.63582  0.05936  1.0000
  S   S408      1.0  0.15133  0.63306  0.07087  1.0000
  S   S409      1.0  0.11607  0.62851  0.07189  1.0000
  Fe  Fe206     1.0  0.15297  0.64674  0.03191  1.0000
  S   S410      1.0  0.17057  0.64498  0.04153  1.0000
  S   S411      1.0  0.15490  0.65634  0.00920  1.0000
  Fe  Fe207     1.0  0.16586  0.62471  0.05338  1.0000
  S   S412      1.0  0.18258  0.60574  0.05576  1.0000
  Fe  Fe208     1.0  0.15449  0.65353  0.05831  1.0000
  S   S413      1.0  0.15391  0.66948  0.06963  1.0000
  S   S414      1.0  0.14954  0.62578  0.04258  1.0000
  S   S415      1.0  0.13711  0.65698  0.04790  1.0000
  Fe  Fe209     1.0  0.16436  0.56089  0.12669  1.0000
  S   S416      1.0  0.16433  0.54966  0.14839  1.0000
  S   S417      1.0  0.18333  0.56001  0.10990  1.0000
  Fe  Fe210     1.0  0.13377  0.57065  0.13194  1.0000
  S   S418      1.0  0.13082  0.56021  0.15402  1.0000
  S   S419      1.0  0.11828  0.58479  0.12027  1.0000
  Fe  Fe211     1.0  0.14887  0.56832  0.15393  1.0000
  C   C1151     1.0  0.44078  0.84543  0.16797  1.0000
  Fe  Fe212     1.0  0.14646  0.54236  0.14666  1.0000
  S   S420      1.0  0.14448  0.52038  0.15629  1.0000
  S   S421      1.0  0.15053  0.58008  0.13233  1.0000
  S   S422      1.0  0.14778  0.55225  0.12453  1.0000
  Fe  Fe213     1.0  0.03580  0.65777  0.14847  1.0000
  C   C1152     1.0  0.11450  0.49476  0.13850  1.0000
  H   H1149     1.0  0.33771  0.97222  0.17129  1.0000
  Fe  Fe214     1.0  0.06473  0.65750  0.13126  1.0000
  S   S423      1.0  0.07487  0.64389  0.14790  1.0000
  S   S424      1.0  0.07736  0.66687  0.11146  1.0000
  H   H1150     1.0  0.33154  0.88849  0.00602  1.0000
  H   H1151     1.0  0.32044  0.95347  0.10457  1.0000
  Fe  Fe215     1.0  0.05954  0.65696  0.16157  1.0000
  C   C1153     1.0  0.13842  0.59504  0.06821  1.0000
  S   S425      1.0  0.04958  0.64471  0.13390  1.0000
  S   S426      1.0  0.05043  0.67162  0.14455  1.0000
  H   H1152     1.0  0.32793  0.94044  0.08617  1.0000
  N   N96       1.0  0.03767  0.67174  0.10842  1.0000
  C   C1154     1.0  0.44237  0.83231  0.16612  1.0000
  C   C1155     1.0  0.13872  0.57730  0.08804  1.0000
  H   H1153     1.0  0.15820  0.56305  0.08919  1.0000
  H   H1154     1.0  0.38340  0.80913  0.12578  1.0000
  Fe  Fe216     1.0  0.36113  0.79942  0.17439  1.0000
  Fe  Fe217     1.0  0.28125  0.79287  0.10610  1.0000
  S   S427      1.0  0.28874  0.77007  0.11142  1.0000
  S   S428      1.0  0.28807  0.80786  0.08687  1.0000
  Fe  Fe218     1.0  0.26486  0.79462  0.13483  1.0000
  S   S429      1.0  0.27098  0.77212  0.14281  1.0000
  S   S430      1.0  0.25226  0.81032  0.14726  1.0000
  Fe  Fe219     1.0  0.29206  0.77385  0.13030  1.0000
  S   S431      1.0  0.31199  0.76566  0.13733  1.0000
  Fe  Fe220     1.0  0.26692  0.76993  0.12341  1.0000
  S   S432      1.0  0.25622  0.75248  0.12694  1.0000
  S   S433      1.0  0.28627  0.79646  0.12402  1.0000
  S   S434      1.0  0.25908  0.79254  0.11641  1.0000
  Fe  Fe221     1.0  0.20398  0.70040  0.08958  1.0000
  S   S435      1.0  0.22376  0.70139  0.09394  1.0000
  S   S436      1.0  0.20467  0.69051  0.07246  1.0000
  Fe  Fe222     1.0  0.18662  0.71353  0.11321  1.0000
  S   S437      1.0  0.20466  0.71542  0.11986  1.0000
  S   S438      1.0  0.16452  0.72087  0.12319  1.0000
  Fe  Fe223     1.0  0.21314  0.72238  0.09760  1.0000
  S   S439      1.0  0.22319  0.74059  0.09014  1.0000
  Fe  Fe224     1.0  0.21386  0.69438  0.11584  1.0000
  S   S440      1.0  0.22596  0.67790  0.12949  1.0000
  S   S441      1.0  0.19423  0.72220  0.09106  1.0000
  S   S442      1.0  0.19498  0.69175  0.11129  1.0000
  C   C1156     1.0  0.17993  0.66884  0.14035  1.0000
  H   H1155     1.0  0.05820  0.64849  0.09013  1.0000
  H   H1156     1.0  0.17518  0.57761  0.15648  1.0000
  C   C1157     1.0  0.48069  0.82041  0.15838  1.0000
  C   C1158     1.0  0.34905  0.74370  0.16642  1.0000
  S   S443      1.0  0.29055  0.83475  0.16734  1.0000
  H   H1157     1.0  0.03705  0.63899  0.09828  1.0000
  C   C1159     1.0  0.38094  0.82438  0.16790  1.0000
  H   H1158     1.0  0.21533  0.64869  0.17469  1.0000
  S   S444      1.0  0.37384  0.80878  0.15447  1.0000
  C   C1160     1.0  0.08357  0.69716  0.17681  1.0000
  H   H1159     1.0  0.48243  0.81188  0.16719  1.0000
  C   C1161     1.0  0.30791  0.86077  0.02344  1.0000
  C   C1162     1.0  0.16072  0.71832  0.14104  1.0000
  C   C1163     1.0  0.14696  0.72002  0.14819  1.0000
  C   C1164     1.0  0.14371  0.71761  0.16250  1.0000
  C   C1165     1.0  0.15423  0.71383  0.16965  1.0000
  C   C1166     1.0  0.16796  0.71257  0.16248  1.0000
  C   C1167     1.0  0.17121  0.71460  0.14821  1.0000
  H   H1160     1.0  0.13878  0.72294  0.14269  1.0000
  H   H1161     1.0  0.13308  0.71861  0.16795  1.0000
  H   H1162     1.0  0.17610  0.70980  0.16799  1.0000
  H   H1163     1.0  0.18184  0.71330  0.14280  1.0000
  C   C1168     1.0  0.26284  0.81742  0.15259  1.0000
  C   C1169     1.0  0.25768  0.82993  0.15674  1.0000
  C   C1170     1.0  0.26605  0.83538  0.16143  1.0000
  C   C1171     1.0  0.27960  0.82834  0.16183  1.0000
  C   C1172     1.0  0.28472  0.81589  0.15768  1.0000
  C   C1173     1.0  0.27632  0.81039  0.15321  1.0000
  H   H1164     1.0  0.24719  0.83534  0.15640  1.0000
  H   H1165     1.0  0.26204  0.84500  0.16467  1.0000
  H   H1166     1.0  0.29517  0.81037  0.15810  1.0000
  H   H1167     1.0  0.28020  0.80050  0.15059  1.0000
  C   C1174     1.0  0.31192  0.77355  0.15017  1.0000
  C   C1175     1.0  0.32400  0.77676  0.15069  1.0000
  C   C1176     1.0  0.32426  0.78218  0.16151  1.0000
  C   C1177     1.0  0.31251  0.78416  0.17194  1.0000
  C   C1178     1.0  0.30039  0.78115  0.17129  1.0000
  C   C1179     1.0  0.30005  0.77598  0.16035  1.0000
  H   H1168     1.0  0.33317  0.77496  0.14277  1.0000
  H   H1169     1.0  0.43336  0.82849  0.16692  1.0000
  Fe  Fe225     1.0  0.05837  0.63241  0.15204  1.0000
  H   H1170     1.0  0.29071  0.77350  0.15999  1.0000
  C   C1180     1.0  0.24593  0.75050  0.11699  1.0000
  C   C1181     1.0  0.23901  0.73974  0.12197  1.0000
  C   C1182     1.0  0.23201  0.73663  0.11385  1.0000
  C   C1183     1.0  0.23161  0.74446  0.10073  1.0000
  C   C1184     1.0  0.23803  0.75561  0.09593  1.0000
  C   C1185     1.0  0.24523  0.75860  0.10401  1.0000
  H   H1171     1.0  0.23940  0.73350  0.13206  1.0000
  H   H1172     1.0  0.22709  0.72807  0.11771  1.0000
  H   H1173     1.0  0.23769  0.76179  0.08581  1.0000
  H   H1174     1.0  0.25050  0.76694  0.10008  1.0000
  C   C1186     1.0  0.14532  0.49414  0.15526  1.0000
  C   C1187     1.0  0.21201  0.65819  0.16792  1.0000
  C   C1188     1.0  0.22009  0.66151  0.15476  1.0000
  C   C1189     1.0  0.21585  0.67381  0.14593  1.0000
  C   C1190     1.0  0.20360  0.68282  0.15030  1.0000
  C   C1191     1.0  0.19576  0.67967  0.16356  1.0000
  C   C1192     1.0  0.38589  0.87457  0.13504  1.0000
  H   H1175     1.0  0.22957  0.65451  0.15140  1.0000
  H   H1176     1.0  0.20024  0.69228  0.14352  1.0000
  H   H1177     1.0  0.43055  0.85184  0.17023  1.0000
  C   C1193     1.0  0.07849  0.60258  0.14776  1.0000
  C   C1194     1.0  0.14587  0.50743  0.14765  1.0000
  H   H1178     1.0  0.31349  0.81683  0.13288  1.0000
  H   H1179     1.0  0.27905  0.82651  0.10815  1.0000
  C   C1195     1.0  0.32569  0.74979  0.17901  1.0000
  H   H1180     1.0  0.31758  0.82659  0.03111  1.0000
  C   C1196     1.0  0.14762  0.50999  0.13348  1.0000
  H   H1181     1.0  0.37218  0.89064  0.10724  1.0000
  H   H1182     1.0  0.07164  0.70768  0.16160  1.0000
  H   H1183     1.0  0.30733  0.87435  0.03608  1.0000
  H   H1184     1.0  0.14806  0.52015  0.12750  1.0000
  H   H1185     1.0  0.18615  0.66758  0.13034  1.0000
  C   C1197     1.0  0.08318  0.61011  0.13481  1.0000
  C   C1198     1.0  0.09520  0.60440  0.12624  1.0000
  C   C1199     1.0  0.10286  0.59141  0.13084  1.0000
  C   C1200     1.0  0.15261  0.57183  0.08307  1.0000
  C   C1201     1.0  0.45241  0.85038  0.16658  1.0000
  H   H1186     1.0  0.07743  0.62025  0.13133  1.0000
  H   H1187     1.0  0.09863  0.61011  0.11613  1.0000
  S   S445      1.0  0.33660  0.87802  0.03299  1.0000
  C   C1202     1.0  0.40176  0.81662  0.09337  1.0000
  C   C1203     1.0  0.38546  0.81224  0.11474  1.0000
  H   H1188     1.0  0.30472  0.86909  0.01535  1.0000
  H   H1189     1.0  0.38964  0.86437  0.14056  1.0000
  H   H1190     1.0  0.32407  0.89163  0.18076  1.0000
  C   C1204     1.0  0.37682  0.90055  0.12050  1.0000
  C   C1205     1.0  0.15167  0.64871  0.99742  1.0000
  C   C1206     1.0  0.02588  0.66686  0.11257  1.0000
  H   H1191     1.0  0.33358  0.78467  0.16183  1.0000
  C   C1207     1.0  0.15998  0.58505  0.17310  1.0000
  S   S446      1.0  0.14643  0.57910  0.17096  1.0000
  C   C1208     1.0  0.14903  0.63562  0.00125  1.0000
  H   H1192     1.0  0.36547  0.98466  0.14119  1.0000
  H   H1193     1.0  0.10816  0.49675  0.17171  1.0000
  H   H1194     1.0  0.38987  0.89328  0.15484  1.0000
  H   H1195     1.0  0.14845  0.63009  0.01170  1.0000
  C   C1209     1.0  0.10533  0.63914  0.08293  1.0000
  C   C1210     1.0  0.09463  0.63453  0.09321  1.0000
  C   C1211     1.0  0.08616  0.64283  0.10227  1.0000
  C   C1212     1.0  0.08816  0.65590  0.10081  1.0000
  C   C1213     1.0  0.09876  0.66054  0.09045  1.0000
  C   C1214     1.0  0.10746  0.65211  0.08166  1.0000
  H   H1196     1.0  0.09292  0.62451  0.09419  1.0000
  H   H1197     1.0  0.07795  0.63922  0.11021  1.0000
  H   H1198     1.0  0.10029  0.67068  0.08925  1.0000
  H   H1199     1.0  0.11567  0.65575  0.07378  1.0000
  C   C1215     1.0  0.18269  0.59407  0.07151  1.0000
  C   C1216     1.0  0.17184  0.59530  0.08298  1.0000
  C   C1217     1.0  0.17192  0.58497  0.09494  1.0000
  C   C1218     1.0  0.18294  0.57354  0.09548  1.0000
  C   C1219     1.0  0.19384  0.57255  0.08411  1.0000
  C   C1220     1.0  0.19368  0.58271  0.07219  1.0000
  H   H1200     1.0  0.16323  0.60395  0.08247  1.0000
  H   H1201     1.0  0.16340  0.58576  0.10362  1.0000
  H   H1202     1.0  0.20240  0.56381  0.08444  1.0000
  H   H1203     1.0  0.20210  0.58170  0.06339  1.0000
  C   C1221     1.0  0.16858  0.67360  0.07156  1.0000
  C   C1222     1.0  0.16682  0.68203  0.08064  1.0000
  C   C1223     1.0  0.17793  0.68686  0.08138  1.0000
  C   C1224     1.0  0.19087  0.68343  0.07290  1.0000
  C   C1225     1.0  0.19270  0.67476  0.06403  1.0000
  C   C1226     1.0  0.18163  0.66971  0.06347  1.0000
  H   H1204     1.0  0.15674  0.68513  0.08690  1.0000
  H   H1205     1.0  0.17640  0.69358  0.08820  1.0000
  H   H1206     1.0  0.20271  0.67201  0.05750  1.0000
  H   H1207     1.0  0.18312  0.66319  0.05647  1.0000
  C   C1227     1.0  0.18791  0.52614  0.10685  1.0000
  C   C1228     1.0  0.00646  0.64579  0.14240  1.0000
  H   H1208     1.0  0.18577  0.69253  0.03653  1.0000
  H   H1209     1.0  0.26134  0.70389  0.13860  1.0000
  C   C1229     1.0  0.17312  0.58296  0.16461  1.0000
  C   C1230     1.0  0.33532  0.87756  0.00717  1.0000
  H   H1210     1.0  0.01690  0.64025  0.14277  1.0000
  C   C1231     1.0  0.18441  0.52264  0.13158  1.0000
  H   H1211     1.0  0.35708  0.80782  0.11230  1.0000
  C   C1232     1.0  0.33923  0.86982  0.01935  1.0000
  H   H1212     1.0  0.31030  0.85327  0.00088  1.0000
  H   H1213     1.0  0.03134  0.68459  0.12282  1.0000
  H   H1214     1.0  0.47071  0.87022  0.13474  1.0000
  H   H1215     1.0  0.40723  0.81025  0.11295  1.0000
  C   C1233     1.0  0.38343  0.81970  0.15589  1.0000
  C   C1234     1.0  0.39365  0.82387  0.14473  1.0000
  C   C1235     1.0  0.40153  0.83245  0.14561  1.0000
  C   C1236     1.0  0.39910  0.83709  0.15761  1.0000
  Fe  Fe226     1.0  0.28515  0.88355  0.16613  1.0000
  N   N97       1.0  0.18529  0.51752  0.12055  1.0000
  H   H1216     1.0  0.39572  0.82025  0.13545  1.0000
  H   H1217     1.0  0.40958  0.83530  0.13702  1.0000
  C   C1237     1.0  0.16047  0.70280  0.04970  1.0000
  C   C1238     1.0  0.33598  0.87127  0.99657  1.0000
  C   C1239     1.0  0.34445  0.84939  0.01025  1.0000
  C   C1240     1.0  0.34402  0.85571  0.02073  1.0000
  H   H1218     1.0  0.34779  0.83842  0.01161  1.0000
  H   H1219     1.0  0.34697  0.84961  0.03007  1.0000
  C   C1241     1.0  0.40376  0.84950  0.06967  1.0000
  C   C1242     1.0  0.39928  0.85167  0.08304  1.0000
  C   C1243     1.0  0.40857  0.84728  0.09182  1.0000
  C   C1244     1.0  0.42218  0.84048  0.08726  1.0000
  C   C1245     1.0  0.42652  0.83844  0.07391  1.0000
  C   C1246     1.0  0.41743  0.84310  0.06512  1.0000
  H   H1220     1.0  0.38873  0.85673  0.08657  1.0000
  H   H1221     1.0  0.40509  0.84864  0.10223  1.0000
  H   H1222     1.0  0.43697  0.83309  0.07039  1.0000
  H   H1223     1.0  0.42098  0.84149  0.05478  1.0000
  C   C1247     1.0  0.32631  0.82057  0.08869  1.0000
  C   C1248     1.0  0.31688  0.82962  0.08126  1.0000
  C   C1249     1.0  0.30531  0.82557  0.08045  1.0000
  C   C1250     1.0  0.30304  0.81253  0.08719  1.0000
  C   C1251     1.0  0.31252  0.80349  0.09455  1.0000
  C   C1252     1.0  0.32411  0.80750  0.09529  1.0000
  H   H1224     1.0  0.31844  0.83976  0.07632  1.0000
  H   H1225     1.0  0.29792  0.83264  0.07486  1.0000
  H   H1226     1.0  0.31092  0.79337  0.09971  1.0000
  H   H1227     1.0  0.33135  0.80044  0.10106  1.0000
  H   H1228     1.0  0.17371  0.67086  0.01379  1.0000
  C   C1253     1.0  0.40039  0.92237  0.13283  1.0000
  C   C1254     1.0  0.39888  0.92526  0.11937  1.0000
  C   C1255     1.0  0.40737  0.91700  0.11036  1.0000
  C   C1256     1.0  0.41721  0.90567  0.11487  1.0000
  C   C1257     1.0  0.41881  0.90284  0.12829  1.0000
  C   C1258     1.0  0.41048  0.91125  0.13724  1.0000
  H   H1229     1.0  0.39112  0.93380  0.11589  1.0000
  H   H1230     1.0  0.40617  0.91932  0.09995  1.0000
  H   H1231     1.0  0.42661  0.89434  0.13172  1.0000
  H   H1232     1.0  0.41169  0.90902  0.14763  1.0000
  C   C1259     1.0  0.35270  0.92242  0.09663  1.0000
  C   C1260     1.0  0.34647  0.91486  0.10889  1.0000
  C   C1261     1.0  0.34198  0.90335  0.10885  1.0000
  C   C1262     1.0  0.34363  0.89937  0.09660  1.0000
  C   C1263     1.0  0.35028  0.90665  0.08440  1.0000
  C   C1264     1.0  0.35475  0.91818  0.08443  1.0000
  H   H1233     1.0  0.34477  0.91808  0.11834  1.0000
  H   H1234     1.0  0.33691  0.89766  0.11829  1.0000
  H   H1235     1.0  0.35136  0.90379  0.07488  1.0000
  H   H1236     1.0  0.35939  0.92412  0.07489  1.0000
  C   C1265     1.0  0.31506  0.92722  0.15811  1.0000
  C   C1266     1.0  0.32116  0.92182  0.14644  1.0000
  C   C1267     1.0  0.31604  0.91185  0.14399  1.0000
  C   C1268     1.0  0.30459  0.90743  0.15302  1.0000
  C   C1269     1.0  0.29864  0.91256  0.16489  1.0000
  C   C1270     1.0  0.30390  0.92244  0.16744  1.0000
  H   H1237     1.0  0.32963  0.92557  0.13912  1.0000
  H   H1238     1.0  0.19126  0.52011  0.09877  1.0000
  C   C1271     1.0  0.45561  0.82428  0.16287  1.0000
  H   H1239     1.0  0.01616  0.65107  0.11255  1.0000
  N   N98       1.0  0.18741  0.75238  0.11520  1.0000
  C   C1272     1.0  0.18075  0.74650  0.12779  1.0000
  C   C1273     1.0  0.19843  0.75777  0.11392  1.0000
  C   C1274     1.0  0.18552  0.74530  0.13944  1.0000
  C   C1275     1.0  0.20337  0.75692  0.12537  1.0000
  C   C1276     1.0  0.19696  0.75049  0.13818  1.0000
  C   C1277     1.0  0.18239  0.75346  0.10306  1.0000
  H   H1240     1.0  0.17177  0.74259  0.12886  1.0000
  H   H1241     1.0  0.20366  0.76252  0.10394  1.0000
  H   H1242     1.0  0.18039  0.74030  0.14934  1.0000
  H   H1243     1.0  0.21230  0.76098  0.12424  1.0000
  H   H1244     1.0  0.20088  0.74954  0.14709  1.0000
  H   H1245     1.0  0.17589  0.76378  0.10033  1.0000
  H   H1246     1.0  0.19119  0.75162  0.09429  1.0000
  H   H1247     1.0  0.17620  0.74574  0.10477  1.0000
  C   C1278     1.0  0.17913  0.50185  0.14671  1.0000
  C   C1279     1.0  0.32963  0.87091  0.16597  1.0000
  H   H1248     1.0  0.31542  0.85558  0.05436  1.0000
  H   H1249     1.0  0.38680  0.83667  0.17805  1.0000
  H   H1250     1.0  0.31112  0.83162  0.13944  1.0000
  C   C1280     1.0  0.07105  0.68632  0.16763  1.0000
  H   H1251     1.0  0.37000  0.85770  0.98773  1.0000
  H   H1252     1.0  0.38905  0.87559  0.15927  1.0000
  C   C1281     1.0  0.15232  0.65575  0.98376  1.0000
  S   S447      1.0  0.26973  0.87330  0.16385  1.0000
  C   C1282     1.0  0.38074  0.87615  0.12352  1.0000
  H   H1253     1.0  0.26192  0.84562  0.11738  1.0000
  S   S448      1.0  0.08671  0.71232  0.17858  1.0000
  C   C1283     1.0  0.15938  0.57807  0.07035  1.0000
  C   C1284     1.0  0.33493  0.74611  0.16730  1.0000
  H   H1254     1.0  0.11684  0.58232  0.17849  1.0000
  C   C1285     1.0  0.37620  0.88924  0.11620  1.0000
  H   H1255     1.0  0.13303  0.60430  0.06246  1.0000
  C   C1286     1.0  0.34396  0.84818  0.16942  1.0000
  C   C1287     1.0  0.18305  0.50476  0.12231  1.0000
  H   H1256     1.0  0.15715  0.71352  0.04442  1.0000
  N   N99       1.0  0.41247  0.88508  0.07520  1.0000
  C   C1288     1.0  0.40841  0.88114  0.06574  1.0000
  C   C1289     1.0  0.40438  0.89574  0.08101  1.0000
  C   C1290     1.0  0.39582  0.88773  0.06207  1.0000
  C   C1291     1.0  0.39180  0.90268  0.07746  1.0000
  C   C1292     1.0  0.38750  0.89858  0.06796  1.0000
  C   C1293     1.0  0.42548  0.87786  0.07931  1.0000
  H   H1257     1.0  0.41482  0.87276  0.06104  1.0000
  H   H1258     1.0  0.40767  0.89897  0.08839  1.0000
  H   H1259     1.0  0.39255  0.88437  0.05474  1.0000
  H   H1260     1.0  0.38548  0.91124  0.08199  1.0000
  H   H1261     1.0  0.37777  0.90381  0.06510  1.0000
  H   H1262     1.0  0.42344  0.87317  0.09036  1.0000
  H   H1263     1.0  0.43118  0.86955  0.07376  1.0000
  H   H1264     1.0  0.43224  0.88510  0.07743  1.0000
  N   N100      1.0  0.26277  0.71813  0.10513  1.0000
  C   C1294     1.0  0.26508  0.71568  0.11796  1.0000
  C   C1295     1.0  0.25565  0.71044  0.10219  1.0000
  C   C1296     1.0  0.25043  0.70012  0.11230  1.0000
  C   C1297     1.0  0.25243  0.69775  0.12547  1.0000
  C   C1298     1.0  0.26840  0.72872  0.09432  1.0000
  H   H1265     1.0  0.27058  0.72190  0.12034  1.0000
  H   H1266     1.0  0.25376  0.71241  0.09204  1.0000
  H   H1267     1.0  0.24478  0.69400  0.11000  1.0000
  H   H1268     1.0  0.16926  0.70206  0.05422  1.0000
  H   H1269     1.0  0.26979  0.73679  0.09861  1.0000
  H   H1270     1.0  0.27850  0.72413  0.08837  1.0000
  H   H1271     1.0  0.26124  0.73390  0.08733  1.0000
  S   S449      1.0  0.01325  0.66733  0.14797  1.0000
  C   C1299     1.0  0.48136  0.86564  0.13514  1.0000
  H   H1272     1.0  0.38214  0.90743  0.13552  1.0000
  C   C1300     1.0  0.18009  0.49669  0.13540  1.0000
  N   N101      1.0  0.32758  0.87092  0.17949  1.0000
  C   C1301     1.0  0.30948  0.84447  0.00969  1.0000
  H   H1273     1.0  0.15770  0.59503  0.05328  1.0000
  C   C1302     1.0  0.08586  0.58939  0.15217  1.0000
  S   S450      1.0  0.29817  0.86426  0.17545  1.0000
  C   C1303     1.0  0.09817  0.58388  0.14380  1.0000
  C   C1304     1.0  0.30926  0.86382  0.03519  1.0000
  C   C1305     1.0  0.11498  0.60928  0.17382  1.0000
  H   H1274     1.0  0.45677  0.81419  0.16116  1.0000
  S   S451      1.0  0.06364  0.60967  0.15865  1.0000
  C   C1306     1.0  0.15734  0.68174  0.02732  1.0000
  H   H1275     1.0  0.32465  0.87961  0.15923  1.0000
  H   H1276     1.0  0.33110  0.74552  0.15883  1.0000
  C   C1307     1.0  0.35377  0.74478  0.17729  1.0000
  S   S452      1.0  0.29743  0.89628  0.14860  1.0000
  H   H1277     1.0  0.26821  0.85721  0.13199  1.0000
  H   H1278     1.0  0.29114  0.84917  0.13770  1.0000
  H   H1279     1.0  0.33908  0.85942  0.15010  1.0000
  H   H1280     1.0  0.08428  0.60410  0.17416  1.0000
  S   S453      1.0  0.34009  0.84848  0.98580  1.0000
  H   H1281     1.0  0.31925  0.83167  0.12159  1.0000
  C   C1308     1.0  0.25982  0.70555  0.12835  1.0000
  C   C1309     1.0  0.17772  0.68959  0.03393  1.0000
  H   H1282     1.0  0.31784  0.83584  0.00656  1.0000
  N   N102      1.0  0.16421  0.69371  0.04011  1.0000
  H   H1283     1.0  0.38042  0.86726  0.12022  1.0000
  H   H1284     1.0  0.48172  0.81629  0.14928  1.0000
  S   S454      1.0  0.35400  0.78006  0.17744  1.0000
  H   H1285     1.0  0.32491  0.98026  0.14355  1.0000
  H   H1286     1.0  0.15031  0.50137  0.11605  1.0000
  C   C1310     1.0  0.18366  0.58775  0.16669  1.0000
  C   C1311     1.0  0.02547  0.65503  0.10899  1.0000
  N   N103      1.0  0.38642  0.88573  0.13919  1.0000
  H   H1287     1.0  0.16806  0.68880  0.13304  1.0000
  H   H1288     1.0  0.17624  0.49594  0.15694  1.0000
  N   N104      1.0  0.13369  0.62855  0.10779  1.0000
  C   C1312     1.0  0.14705  0.62141  0.10690  1.0000
  C   C1313     1.0  0.13070  0.64250  0.10451  1.0000
  C   C1314     1.0  0.15785  0.62828  0.10279  1.0000
  C   C1315     1.0  0.14122  0.64969  0.10039  1.0000
  C   C1316     1.0  0.15487  0.64252  0.09948  1.0000
  C   C1317     1.0  0.12262  0.62117  0.11136  1.0000
  H   H1289     1.0  0.14945  0.61034  0.10916  1.0000
  H   H1290     1.0  0.12014  0.64817  0.10491  1.0000
  H   H1291     1.0  0.16845  0.62259  0.10184  1.0000
  H   H1292     1.0  0.13883  0.66075  0.09753  1.0000
  H   H1293     1.0  0.16313  0.64802  0.09586  1.0000
  H   H1294     1.0  0.12165  0.61859  0.10209  1.0000
  H   H1295     1.0  0.12472  0.61159  0.11909  1.0000
  H   H1296     1.0  0.11256  0.62740  0.11574  1.0000
  N   N105      1.0  0.37503  0.81563  0.10794  1.0000
  C   C1318     1.0  0.37769  0.81950  0.09402  1.0000
  C   C1319     1.0  0.39107  0.82012  0.08653  1.0000
  C   C1320     1.0  0.36087  0.81519  0.11549  1.0000
  H   H1297     1.0  0.36942  0.82219  0.08863  1.0000
  H   H1298     1.0  0.39309  0.82345  0.07549  1.0000
  H   H1299     1.0  0.36004  0.81209  0.12671  1.0000
  H   H1300     1.0  0.35401  0.82542  0.11325  1.0000
  N   N106      1.0  0.13174  0.58863  0.08052  1.0000
  C   C1321     1.0  0.11728  0.59440  0.08604  1.0000
  H   H1301     1.0  0.13357  0.57250  0.09800  1.0000
  H   H1302     1.0  0.11188  0.58635  0.09278  1.0000
  H   H1303     1.0  0.11666  0.60185  0.09212  1.0000
  H   H1304     1.0  0.11166  0.59977  0.07776  1.0000
  N   N107      1.0  0.16447  0.67223  0.16611  1.0000
  C   C1322     1.0  0.16216  0.68223  0.15490  1.0000
  C   C1323     1.0  0.17429  0.66054  0.16469  1.0000
  C   C1324     1.0  0.16982  0.68070  0.14186  1.0000
  C   C1325     1.0  0.15707  0.67460  0.17972  1.0000
  H   H1305     1.0  0.15447  0.69152  0.15603  1.0000
  H   H1306     1.0  0.00066  0.62917  0.13838  1.0000
  H   H1307     1.0  0.11687  0.50938  0.14843  1.0000
  H   H1308     1.0  0.01676  0.67203  0.11884  1.0000
  C   C1326     1.0  0.31108  0.82818  0.13025  1.0000
  H   H1309     1.0  0.28971  0.90932  0.17185  1.0000
  H   H1310     1.0  0.40399  0.88091  0.14758  1.0000
  H   H1311     1.0  0.17025  0.57416  0.06649  1.0000
  C   C1327     1.0  0.15231  0.58983  0.06292  1.0000
  H   H1312     1.0  0.08209  0.58347  0.16210  1.0000
  C   C1328     1.0  0.33777  0.85951  0.16075  1.0000
  H   H1313     1.0  0.19380  0.58606  0.16009  1.0000
  C   C1329     1.0  0.04901  0.66551  0.10009  1.0000
  C   C1330     1.0  0.03795  0.68403  0.11247  1.0000
  C   C1331     1.0  0.03717  0.64829  0.10097  1.0000
  H   H1314     1.0  0.14398  0.49206  0.16623  1.0000
  C   C1332     1.0  0.27207  0.84242  0.11966  1.0000
  H   H1315     1.0  0.29935  0.84185  0.01157  1.0000
  H   H1316     1.0  0.14619  0.68000  0.17977  1.0000
  H   H1317     1.0  0.10384  0.57370  0.14725  1.0000
  C   C1333     1.0  0.04901  0.65359  0.09640  1.0000
  C   C1334     1.0  0.15407  0.68990  0.03692  1.0000
  H   H1318     1.0  0.24443  0.80350  0.17977  1.0000
  H   H1319     1.0  0.19210  0.67777  0.01978  1.0000
  H   H1320     1.0  0.03426  0.69325  0.10504  1.0000
  C   C1335     1.0  0.99724  0.63955  0.13987  1.0000
  S   S455      1.0  0.04352  0.64444  0.16690  1.0000
  H   H1321     1.0  0.37344  0.91082  0.11487  1.0000
  H   H1322     1.0  0.19618  0.53154  0.10569  1.0000
  C   C1336     1.0  0.07524  0.69794  0.16793  1.0000
  C   C1337     1.0  0.10863  0.49293  0.16286  1.0000
  H   H1323     1.0  0.32068  0.90788  0.13485  1.0000
  C   C1338     1.0  0.38872  0.83313  0.16873  1.0000
  H   H1324     1.0  0.18594  0.53286  0.13015  1.0000
  C   C1339     1.0  0.17108  0.67738  0.02108  1.0000
  C   C1340     1.0  0.18116  0.59474  0.17721  1.0000
  C   C1341     1.0  0.48720  0.85258  0.13247  1.0000
  H   H1325     1.0  0.14545  0.61934  0.99455  1.0000
  C   C1342     1.0  0.10992  0.58859  0.17156  1.0000
  N   N108      1.0  0.31107  0.84755  0.02199  1.0000
  C   C1343     1.0  0.18137  0.68126  0.02444  1.0000
  H   H1326     1.0  0.30175  0.81871  0.11431  1.0000
  H   H1327     1.0  0.14931  0.67866  0.02482  1.0000
  H   H1328     1.0  0.17842  0.53398  0.10522  1.0000
  H   H1329     1.0  0.37306  0.82124  0.17656  1.0000
  H   H1330     1.0  0.05820  0.66964  0.09638  1.0000
  C   C1344     1.0  0.39259  0.88381  0.15081  1.0000
  H   H1331     1.0  0.14338  0.69300  0.04195  1.0000
  C   C1345     1.0  0.38188  0.89859  0.13215  1.0000
  H   H1332     1.0  0.48894  0.82620  0.15569  1.0000
  H   H1333     1.0  0.18633  0.68667  0.16695  1.0000
  H   H1334     1.0  0.15199  0.69993  0.05837  1.0000
  H   H1335     1.0  0.24817  0.68989  0.13341  1.0000
  C   C1346     1.0  0.19989  0.66733  0.17236  1.0000
  H   H1336     1.0  0.29131  0.78262  0.17935  1.0000
  H   H1337     1.0  0.17800  0.48670  0.13681  1.0000
  S   S456      1.0  0.47742  0.84279  0.12922  1.0000
  N   N109      1.0  0.30692  0.92115  0.10917  1.0000
  C   C1347     1.0  0.31579  0.92545  0.09732  1.0000
  C   C1348     1.0  0.30240  0.92851  0.11920  1.0000
  C   C1349     1.0  0.32054  0.93729  0.09539  1.0000
  C   C1350     1.0  0.30714  0.94026  0.11771  1.0000
  C   C1351     1.0  0.31635  0.94460  0.10575  1.0000
  C   C1352     1.0  0.30320  0.90798  0.11165  1.0000
  H   H1338     1.0  0.31962  0.91945  0.08948  1.0000
  H   H1339     1.0  0.29548  0.92501  0.12866  1.0000
  H   H1340     1.0  0.30399  0.94572  0.12596  1.0000
  H   H1341     1.0  0.31055  0.89984  0.11704  1.0000
  H   H1342     1.0  0.29266  0.90811  0.11812  1.0000
  H   H1343     1.0  0.30359  0.90524  0.10196  1.0000
  H   H1344     1.0  0.48470  0.88284  0.14052  1.0000
  C   C1353     1.0  0.18129  0.51490  0.14482  1.0000
  C   C1354     1.0  0.09724  0.62962  0.17648  1.0000
  C   C1355     1.0  0.48932  0.87276  0.13842  1.0000
  C   C1356     1.0  0.39897  0.81275  0.10756  1.0000
  H   H1345     1.0  0.11873  0.50010  0.12839  1.0000
  H   H1346     1.0  0.06419  0.68716  0.16115  1.0000
  H   H1347     1.0  0.19027  0.64956  0.15082  1.0000
  C   C1357     1.0  0.14731  0.62955  0.99149  1.0000
  N   N110      1.0  0.29768  0.83333  0.12647  1.0000
  C   C1358     1.0  0.28859  0.84429  0.13107  1.0000
  C   C1359     1.0  0.29447  0.82724  0.11807  1.0000
  C   C1360     1.0  0.27560  0.84891  0.12785  1.0000
  C   C1361     1.0  0.28163  0.83165  0.11456  1.0000
  C   C1362     1.0  0.00209  0.65911  0.14457  1.0000
  S   S457      1.0  0.19483  0.60034  0.17957  1.0000
  H   H1348     1.0  0.04856  0.68396  0.11300  1.0000
  H   H1349     1.0  0.32046  0.83148  0.05192  1.0000
  Fe  Fe227     1.0  0.28200  0.85430  0.17469  1.0000
  N   N111      1.0  0.46696  0.82917  0.16159  1.0000
  H   H1350     1.0  0.29912  0.92663  0.17648  1.0000
  C   C1363     1.0  0.31526  0.83709  0.03217  1.0000
  C   C1364     1.0  0.08757  0.62278  0.17616  1.0000
  H   H1351     1.0  0.17644  0.65278  0.17357  1.0000
  C   C1365     1.0  0.31389  0.85326  0.04545  1.0000
  C   C1366     1.0  0.31684  0.83978  0.04400  1.0000
  H   H1352     1.0  0.35020  0.83920  0.16555  1.0000
  H   H1353     1.0  0.47450  0.84603  0.16216  1.0000
  H   H1354     1.0  0.35631  0.74107  0.15730  1.0000
  H   H1355     1.0  0.45132  0.86069  0.16769  1.0000
  C   C1367     1.0  0.14890  0.49932  0.12703  1.0000
  C   C1368     1.0  0.46551  0.84203  0.16345  1.0000
  C   C1369     1.0  0.11350  0.50004  0.14979  1.0000
  C   C1370     1.0  0.07514  0.67385  0.17625  1.0000
  S   S458      1.0  0.06782  0.65980  0.17838  1.0000
  H   H1356     1.0  0.36822  0.83546  0.98624  1.0000
  H   H1357     1.0  0.33274  0.87735  0.98735  1.0000
  H   H1358     1.0  0.10113  0.58364  0.17375  1.0000
  H   H1359     1.0  0.17685  0.62077  0.98786  1.0000
  H   H1360     1.0  0.11563  0.58846  0.16086  1.0000
  H   H1361     1.0  0.12575  0.60406  0.17288  1.0000
  N   N112      1.0  0.10541  0.60266  0.17352  1.0000
  H   H1362     1.0  0.30892  0.98438  0.15564  1.0000
  H   H1363     1.0  0.18017  0.51913  0.15358  1.0000
  C   C1371     1.0  0.09187  0.60925  0.17456  1.0000
  C   C1372     1.0  0.32020  0.98037  0.15447  1.0000
  H   H1364     1.0  0.09402  0.64017  0.17757  1.0000
  H   H1365     1.0  0.07681  0.62799  0.17699  1.0000
  H   H1366     1.0  0.36472  0.74296  0.17678  1.0000
  C   C1373     1.0  0.11104  0.62284  0.17534  1.0000
  H   H1367     1.0  0.32185  0.96966  0.16037  1.0000
  H   H1368     1.0  0.11865  0.62805  0.17559  1.0000
  H   H1369     1.0  0.18331  0.50082  0.11363  1.0000
  C   C1374     1.0  0.33508  0.98320  0.16777  1.0000
  H   H1370     1.0  0.31473  0.75192  0.17946  1.0000
  H   H1371     1.0  0.22417  0.58266  0.17745  1.0000
  H   H1372     1.0  0.30889  0.88596  0.18144  1.0000
  H   H1373     1.0  0.17912  0.81391  0.32726  1.0000
  Fe  Fe228     1.0  0.45365  0.63233  0.35159  1.0000
  S   S459      1.0  0.44216  0.65386  0.34564  1.0000
  S   S460      1.0  0.47347  0.62542  0.35936  1.0000
  Fe  Fe229     1.0  0.43095  0.62040  0.34821  1.0000
  S   S461      1.0  0.41770  0.64101  0.34203  1.0000
  S   S462      1.0  0.42488  0.60026  0.35194  1.0000
  Fe  Fe230     1.0  0.43749  0.64650  0.32944  1.0000
  S   S463      1.0  0.43994  0.65959  0.30832  1.0000
  Fe  Fe231     1.0  0.42341  0.64649  0.35870  1.0000
  S   S464      1.0  0.45059  0.62539  0.33424  1.0000
  S   S465      1.0  0.43512  0.62544  0.36601  1.0000
  Fe  Fe232     1.0  0.33237  0.57502  0.35392  1.0000
  S   S466      1.0  0.35024  0.56995  0.33682  1.0000
  S   S467      1.0  0.31044  0.58401  0.35169  1.0000
  Fe  Fe233     1.0  0.36135  0.58002  0.34566  1.0000
  S   S468      1.0  0.37254  0.59687  0.33377  1.0000
  C   C1375     1.0  0.16826  0.67958  0.21497  1.0000
  C   C1376     1.0  0.00995  0.86265  0.35934  1.0000
  Fe  Fe234     1.0  0.27923  0.61275  0.29046  1.0000
  S   S469      1.0  0.25634  0.61651  0.29885  1.0000
  S   S470      1.0  0.29482  0.59325  0.29503  1.0000
  Fe  Fe235     1.0  0.27899  0.64223  0.27689  1.0000
  S   S471      1.0  0.25615  0.64866  0.28400  1.0000
  S   S472      1.0  0.29152  0.65792  0.26523  1.0000
  Fe  Fe236     1.0  0.25923  0.63494  0.30397  1.0000
  S   S473      1.0  0.25090  0.64066  0.32447  1.0000
  Fe  Fe237     1.0  0.25500  0.62987  0.27804  1.0000
  S   S474      1.0  0.23710  0.63419  0.26767  1.0000
  S   S475      1.0  0.28209  0.63003  0.29734  1.0000
  S   S476      1.0  0.27782  0.62461  0.26916  1.0000
  Fe  Fe238     1.0  0.19164  0.64116  0.19811  1.0000
  S   S477      1.0  0.17500  0.63111  0.19843  1.0000
  Fe  Fe239     1.0  0.20662  0.61644  0.21576  1.0000
  S   S478      1.0  0.19117  0.60415  0.21764  1.0000
  S   S479      1.0  0.22567  0.60754  0.22481  1.0000
  Fe  Fe240     1.0  0.19206  0.61281  0.19529  1.0000
  H   H1374     1.0  0.10214  0.81937  0.37253  1.0000
  Fe  Fe241     1.0  0.17533  0.62341  0.22053  1.0000
  S   S480      1.0  0.15615  0.62355  0.23701  1.0000
  C   C1377     1.0  0.26087  0.80610  0.18715  1.0000
  S   S481      1.0  0.19059  0.63486  0.22057  1.0000
  Fe  Fe242     1.0  0.13264  0.80123  0.26519  1.0000
  S   S482      1.0  0.14485  0.77976  0.26894  1.0000
  S   S483      1.0  0.14314  0.81773  0.25142  1.0000
  Fe  Fe243     1.0  0.10757  0.79417  0.28592  1.0000
  S   S484      1.0  0.11767  0.77199  0.29181  1.0000
  S   S485      1.0  0.08592  0.80386  0.29551  1.0000
  Fe  Fe244     1.0  0.13603  0.77981  0.29104  1.0000
  S   S486      1.0  0.15089  0.77213  0.30502  1.0000
  Fe  Fe245     1.0  0.12567  0.77354  0.26917  1.0000
  S   S487      1.0  0.12953  0.75533  0.25958  1.0000
  S   S488      1.0  0.12525  0.80176  0.28728  1.0000
  S   S489      1.0  0.11415  0.79521  0.26326  1.0000
  H   H1375     1.0  0.10870  0.88031  0.38081  1.0000
  S   S490      1.0  0.09051  0.71038  0.21540  1.0000
  H   H1376     1.0  0.18498  0.90598  0.30453  1.0000
  H   H1377     1.0  0.32051  0.74605  0.21034  1.0000
  S   S491      1.0  0.12131  0.70849  0.21925  1.0000
  Fe  Fe246     1.0  0.10940  0.69401  0.21829  1.0000
  S   S492      1.0  0.10665  0.67493  0.23398  1.0000
  Fe  Fe247     1.0  0.10327  0.72504  0.21433  1.0000
  S   S493      1.0  0.09510  0.74354  0.22410  1.0000
  S   S494      1.0  0.11797  0.69401  0.19614  1.0000
  H   H1378     1.0  0.13360  0.78555  0.21645  1.0000
  S   S495      1.0  0.16018  0.80260  0.35543  1.0000
  H   H1379     1.0  0.21851  0.70096  0.36587  1.0000
  H   H1380     1.0  0.06681  0.70339  0.21060  1.0000
  S   S496      1.0  0.15023  0.83756  0.36581  1.0000
  Fe  Fe248     1.0  0.16258  0.86554  0.28066  1.0000
  S   S497      1.0  0.18170  0.84926  0.28212  1.0000
  S   S498      1.0  0.14197  0.86021  0.28511  1.0000
  Fe  Fe249     1.0  0.17737  0.88817  0.27541  1.0000
  S   S499      1.0  0.19791  0.87389  0.27621  1.0000
  S   S500      1.0  0.17602  0.91069  0.27113  1.0000
  Fe  Fe250     1.0  0.19195  0.86288  0.26384  1.0000
  S   S501      1.0  0.20819  0.85184  0.24875  1.0000
  Fe  Fe251     1.0  0.18601  0.86160  0.29424  1.0000
  S   S502      1.0  0.19504  0.85097  0.31244  1.0000
  S   S503      1.0  0.17231  0.87832  0.26125  1.0000
  S   S504      1.0  0.16592  0.87679  0.29454  1.0000
  H   H1381     1.0  0.11711  0.78217  0.22651  1.0000
  C   C1378     1.0  0.18565  0.89984  0.31463  1.0000
  S   S505      1.0  0.29317  0.86687  0.21337  1.0000
  H   H1382     1.0  0.99780  0.84757  0.32979  1.0000
  C   C1379     1.0  0.07232  0.66914  0.22255  1.0000
  H   H1383     1.0  0.28643  0.80715  0.18597  1.0000
  Fe  Fe252     1.0  0.27818  0.71427  0.35839  1.0000
  S   S506      1.0  0.25997  0.71948  0.34889  1.0000
  S   S507      1.0  0.29301  0.72759  0.35486  1.0000
  S   S508      1.0  0.26786  0.69379  0.32584  1.0000
  Fe  Fe253     1.0  0.34639  0.80371  0.20262  1.0000
  S   S509      1.0  0.33779  0.78508  0.20829  1.0000
  S   S510      1.0  0.34292  0.81621  0.21811  1.0000
  Fe  Fe254     1.0  0.35870  0.77488  0.19822  1.0000
  S   S511      1.0  0.36937  0.75370  0.20741  1.0000
  S   S512      1.0  0.36787  0.79310  0.19425  1.0000
  Fe  Fe255     1.0  0.35176  0.69425  0.30359  1.0000
  S   S513      1.0  0.36253  0.67291  0.30137  1.0000
  S   S514      1.0  0.35106  0.70079  0.32265  1.0000
  Fe  Fe256     1.0  0.34707  0.70296  0.27472  1.0000
  S   S515      1.0  0.35742  0.68229  0.26997  1.0000
  S   S516      1.0  0.33626  0.72092  0.26092  1.0000
  Fe  Fe257     1.0  0.34585  0.67420  0.29090  1.0000
  S   S517      1.0  0.33692  0.65561  0.29610  1.0000
  Fe  Fe258     1.0  0.37315  0.68275  0.28086  1.0000
  S   S518      1.0  0.39573  0.67615  0.27206  1.0000
  S   S519      1.0  0.33408  0.69475  0.29492  1.0000
  S   S520      1.0  0.36384  0.70416  0.28378  1.0000
  Fe  Fe259     1.0  0.13252  0.94637  0.33145  1.0000
  S   S521      1.0  0.11245  0.95576  0.34385  1.0000
  S   S522      1.0  0.13447  0.94910  0.30898  1.0000
  Fe  Fe260     1.0  0.14555  0.93558  0.35569  1.0000
  C   C1380     1.0  0.38723  0.52389  0.37087  1.0000
  Fe  Fe261     1.0  0.11569  0.93609  0.35909  1.0000
  S   S523      1.0  0.25434  0.68921  0.36637  1.0000
  Fe  Fe262     1.0  0.12520  0.96289  0.35372  1.0000
  S   S524      1.0  0.13484  0.92616  0.34597  1.0000
  S   S525      1.0  0.14508  0.95512  0.33986  1.0000
  Fe  Fe263     1.0  0.07139  0.84222  0.35423  1.0000
  S   S526      1.0  0.06228  0.86210  0.34173  1.0000
  S   S527      1.0  0.08528  0.82326  0.34788  1.0000
  H   H1384     1.0  0.32910  0.66617  0.36331  1.0000
  C   C1381     1.0  0.34424  0.74844  0.18885  1.0000
  Fe  Fe264     1.0  0.04476  0.86304  0.36031  1.0000
  Fe  Fe265     1.0  0.07238  0.87170  0.35208  1.0000
  S   S528      1.0  0.08673  0.88579  0.33989  1.0000
  C   C1382     1.0  0.00307  0.84201  0.35980  1.0000
  S   S529      1.0  0.08285  0.85172  0.36297  1.0000
  C   C1383     1.0  0.09538  0.91416  0.36169  1.0000
  C   C1384     1.0  0.10280  0.91293  0.34851  1.0000
  C   C1385     1.0  0.10014  0.90410  0.34199  1.0000
  C   C1386     1.0  0.09003  0.89648  0.34856  1.0000
  C   C1387     1.0  0.08269  0.89762  0.36179  1.0000
  C   C1388     1.0  0.08532  0.90650  0.36830  1.0000
  H   H1385     1.0  0.11048  0.91887  0.34328  1.0000
  H   H1386     1.0  0.10591  0.90320  0.33183  1.0000
  H   H1387     1.0  0.07483  0.89186  0.36694  1.0000
  H   H1388     1.0  0.40298  0.70842  0.29852  1.0000
  C   C1389     1.0  0.36004  0.74416  0.22188  1.0000
  C   C1390     1.0  0.36701  0.73220  0.22933  1.0000
  C   C1391     1.0  0.35984  0.72481  0.24127  1.0000
  C   C1392     1.0  0.34562  0.72928  0.24566  1.0000
  C   C1393     1.0  0.33864  0.74108  0.23806  1.0000
  C   C1394     1.0  0.34581  0.74851  0.22625  1.0000
  H   H1389     1.0  0.37801  0.72872  0.22597  1.0000
  H   H1390     1.0  0.36530  0.71568  0.24707  1.0000
  H   H1391     1.0  0.32764  0.74456  0.24142  1.0000
  H   H1392     1.0  0.34030  0.75759  0.22059  1.0000
  C   C1395     1.0  0.30893  0.72135  0.34465  1.0000
  C   C1396     1.0  0.32099  0.72327  0.34667  1.0000
  C   C1397     1.0  0.33388  0.71693  0.33985  1.0000
  C   C1398     1.0  0.33476  0.70894  0.33070  1.0000
  C   C1399     1.0  0.32270  0.70728  0.32842  1.0000
  C   C1400     1.0  0.30979  0.71346  0.33541  1.0000
  H   H1393     1.0  0.32038  0.72935  0.35380  1.0000
  H   H1394     1.0  0.34318  0.71825  0.34164  1.0000
  H   H1395     1.0  0.32328  0.70107  0.32145  1.0000
  H   H1396     1.0  0.30051  0.71222  0.33354  1.0000
  C   C1401     1.0  0.30616  0.85214  0.21553  1.0000
  C   C1402     1.0  0.31473  0.85067  0.22431  1.0000
  C   C1403     1.0  0.32585  0.83943  0.22529  1.0000
  C   C1404     1.0  0.32832  0.82958  0.21760  1.0000
  C   C1405     1.0  0.31942  0.83080  0.20920  1.0000
  C   C1406     1.0  0.30841  0.84213  0.20808  1.0000
  H   H1397     1.0  0.31298  0.85838  0.23012  1.0000
  H   H1398     1.0  0.33267  0.83848  0.23184  1.0000
  H   H1399     1.0  0.32101  0.82304  0.20355  1.0000
  H   H1400     1.0  0.30169  0.84311  0.20142  1.0000
  C   C1407     1.0  0.16533  0.92079  0.28267  1.0000
  C   C1408     1.0  0.15958  0.91524  0.29623  1.0000
  C   C1409     1.0  0.15068  0.92391  0.30483  1.0000
  C   C1410     1.0  0.14729  0.93802  0.29970  1.0000
  C   C1411     1.0  0.15313  0.94343  0.28622  1.0000
  C   C1412     1.0  0.16226  0.93489  0.27783  1.0000
  H   H1401     1.0  0.16183  0.90434  0.30000  1.0000
  H   H1402     1.0  0.14598  0.91965  0.31518  1.0000
  H   H1403     1.0  0.15045  0.95429  0.28217  1.0000
  H   H1404     1.0  0.16665  0.93923  0.26739  1.0000
  C   C1413     1.0  0.21496  0.86088  0.23257  1.0000
  C   C1414     1.0  0.22697  0.85432  0.22465  1.0000
  C   C1415     1.0  0.23331  0.86146  0.21213  1.0000
  C   C1416     1.0  0.22763  0.87517  0.20735  1.0000
  C   C1417     1.0  0.21532  0.88161  0.21503  1.0000
  C   C1418     1.0  0.20905  0.87452  0.22771  1.0000
  H   H1405     1.0  0.23149  0.84374  0.22835  1.0000
  H   H1406     1.0  0.24246  0.85629  0.20609  1.0000
  H   H1407     1.0  0.21075  0.89217  0.21127  1.0000
  H   H1408     1.0  0.19969  0.87960  0.23372  1.0000
  C   C1419     1.0  0.16274  0.84172  0.35122  1.0000
  C   C1420     1.0  0.16002  0.85397  0.34178  1.0000
  C   C1421     1.0  0.16986  0.85682  0.32971  1.0000
  C   C1422     1.0  0.18250  0.84755  0.32728  1.0000
  C   C1423     1.0  0.18531  0.83550  0.33690  1.0000
  C   C1424     1.0  0.17536  0.83248  0.34876  1.0000
  H   H1409     1.0  0.15025  0.86113  0.34369  1.0000
  H   H1410     1.0  0.16777  0.86629  0.32246  1.0000
  H   H1411     1.0  0.19514  0.82838  0.33508  1.0000
  H   H1412     1.0  0.17755  0.82304  0.35607  1.0000
  C   C1425     1.0  0.08585  0.81048  0.30930  1.0000
  C   C1426     1.0  0.07436  0.81990  0.31463  1.0000
  C   C1427     1.0  0.07412  0.82440  0.32627  1.0000
  C   C1428     1.0  0.08531  0.81928  0.33261  1.0000
  C   C1429     1.0  0.09674  0.81005  0.32714  1.0000
  C   C1430     1.0  0.09702  0.80564  0.31557  1.0000
  H   H1413     1.0  0.06564  0.82363  0.30982  1.0000
  H   H1414     1.0  0.06521  0.83153  0.33049  1.0000
  H   H1415     1.0  0.10541  0.80623  0.33195  1.0000
  H   H1416     1.0  0.10569  0.79809  0.31182  1.0000
  C   C1431     1.0  0.14421  0.77564  0.32137  1.0000
  C   C1432     1.0  0.13001  0.77949  0.32627  1.0000
  C   C1433     1.0  0.12489  0.78262  0.33925  1.0000
  C   C1434     1.0  0.13393  0.78248  0.34706  1.0000
  C   C1435     1.0  0.14812  0.77843  0.34226  1.0000
  C   C1436     1.0  0.15324  0.77475  0.32954  1.0000
  H   H1417     1.0  0.12305  0.77993  0.32008  1.0000
  H   H1418     1.0  0.11395  0.78537  0.34321  1.0000
  H   H1419     1.0  0.15516  0.77796  0.34840  1.0000
  H   H1420     1.0  0.16421  0.77136  0.32596  1.0000
  C   C1437     1.0  0.14234  0.83033  0.26007  1.0000
  C   C1438     1.0  0.13073  0.83406  0.27012  1.0000
  C   C1439     1.0  0.13056  0.84347  0.27759  1.0000
  C   C1440     1.0  0.14199  0.84917  0.27505  1.0000
  C   C1441     1.0  0.15352  0.84562  0.26485  1.0000
  C   C1442     1.0  0.15363  0.83631  0.25729  1.0000
  H   H1421     1.0  0.12183  0.82979  0.27204  1.0000
  H   H1422     1.0  0.12158  0.84624  0.28539  1.0000
  H   H1423     1.0  0.16237  0.85003  0.26277  1.0000
  H   H1424     1.0  0.16260  0.83352  0.24948  1.0000
  C   C1443     1.0  0.11862  0.75168  0.25135  1.0000
  C   C1444     1.0  0.12277  0.73942  0.24676  1.0000
  C   C1445     1.0  0.11535  0.73663  0.23883  1.0000
  C   C1446     1.0  0.10368  0.74608  0.23538  1.0000
  C   C1447     1.0  0.09923  0.75819  0.24036  1.0000
  C   C1448     1.0  0.10666  0.76098  0.24837  1.0000
  H   H1425     1.0  0.13197  0.73215  0.24910  1.0000
  H   H1426     1.0  0.11883  0.72726  0.23521  1.0000
  H   H1427     1.0  0.09016  0.76553  0.23781  1.0000
  H   H1428     1.0  0.10334  0.77044  0.25191  1.0000
  C   C1449     1.0  0.14231  0.63759  0.23489  1.0000
  C   C1450     1.0  0.14341  0.64885  0.22397  1.0000
  C   C1451     1.0  0.13233  0.66030  0.22325  1.0000
  C   C1452     1.0  0.12027  0.66049  0.23355  1.0000
  C   C1453     1.0  0.11915  0.64911  0.24422  1.0000
  C   C1454     1.0  0.13011  0.63774  0.24490  1.0000
  H   H1429     1.0  0.15285  0.64884  0.21626  1.0000
  H   H1430     1.0  0.13322  0.66904  0.21493  1.0000
  H   H1431     1.0  0.10986  0.64919  0.25217  1.0000
  H   H1432     1.0  0.12921  0.62908  0.25334  1.0000
  C   C1455     1.0  0.30506  0.65706  0.27277  1.0000
  C   C1456     1.0  0.31094  0.64475  0.28055  1.0000
  C   C1457     1.0  0.32096  0.64435  0.28742  1.0000
  C   C1458     1.0  0.32531  0.65621  0.28638  1.0000
  C   C1459     1.0  0.31990  0.66843  0.27813  1.0000
  C   C1460     1.0  0.30976  0.66884  0.27134  1.0000
  H   H1433     1.0  0.30780  0.63550  0.28126  1.0000
  H   H1434     1.0  0.32522  0.63484  0.29367  1.0000
  H   H1435     1.0  0.32326  0.67763  0.27723  1.0000
  H   H1436     1.0  0.30536  0.67837  0.26523  1.0000
  C   C1461     1.0  0.25600  0.65517  0.32490  1.0000
  C   C1462     1.0  0.26102  0.66378  0.31279  1.0000
  C   C1463     1.0  0.26466  0.67559  0.31321  1.0000
  C   C1464     1.0  0.26364  0.67866  0.32574  1.0000
  C   C1465     1.0  0.25900  0.66987  0.33787  1.0000
  C   C1466     1.0  0.25503  0.65820  0.33745  1.0000
  H   H1437     1.0  0.26193  0.66144  0.30307  1.0000
  H   H1438     1.0  0.26837  0.68230  0.30379  1.0000
  H   H1439     1.0  0.03983  0.70548  0.20281  1.0000
  H   H1440     1.0  0.25125  0.65150  0.34683  1.0000
  C   C1467     1.0  0.23427  0.62629  0.25596  1.0000
  C   C1468     1.0  0.22235  0.63194  0.25069  1.0000
  C   C1469     1.0  0.21965  0.62633  0.24115  1.0000
  C   C1470     1.0  0.22884  0.61494  0.23675  1.0000
  C   C1471     1.0  0.24082  0.60929  0.24198  1.0000
  C   C1472     1.0  0.24354  0.61493  0.25155  1.0000
  H   H1441     1.0  0.21509  0.64069  0.25408  1.0000
  H   H1442     1.0  0.21039  0.63075  0.23729  1.0000
  H   H1443     1.0  0.24799  0.60046  0.23868  1.0000
  H   H1444     1.0  0.25271  0.61041  0.25560  1.0000
  C   C1473     1.0  0.00283  0.87169  0.32639  1.0000
  H   H1445     1.0  0.23786  0.75522  0.38052  1.0000
  H   H1446     1.0  0.08945  0.78265  0.35205  1.0000
  C   C1474     1.0  0.23870  0.72366  0.32381  1.0000
  H   H1447     1.0  0.10036  0.76083  0.31979  1.0000
  H   H1448     1.0  0.09182  0.80682  0.37786  1.0000
  C   C1475     1.0  0.32041  0.67517  0.36414  1.0000
  H   H1449     1.0  0.25881  0.83065  0.20325  1.0000
  H   H1450     1.0  0.19648  0.86690  0.33025  1.0000
  C   C1476     1.0  0.40476  0.69740  0.29871  1.0000
  Fe  Fe266     1.0  0.33359  0.79160  0.18730  1.0000
  C   C1477     1.0  0.06578  0.69297  0.21222  1.0000
  H   H1451     1.0  0.22326  0.57863  0.23126  1.0000
  H   H1452     1.0  0.15402  0.73557  0.21631  1.0000
  C   C1478     1.0  0.30680  0.58797  0.33538  1.0000
  C   C1479     1.0  0.29337  0.59448  0.33381  1.0000
  C   C1480     1.0  0.28983  0.59672  0.32122  1.0000
  C   C1481     1.0  0.29962  0.59216  0.31023  1.0000
  C   C1482     1.0  0.31312  0.58591  0.31168  1.0000
  C   C1483     1.0  0.31673  0.58394  0.32420  1.0000
  H   H1453     1.0  0.28560  0.59754  0.34243  1.0000
  H   H1454     1.0  0.27936  0.60151  0.32018  1.0000
  H   H1455     1.0  0.32074  0.58245  0.30316  1.0000
  H   H1456     1.0  0.32707  0.57891  0.32526  1.0000
  C   C1484     1.0  0.41063  0.59945  0.34632  1.0000
  C   C1485     1.0  0.40247  0.61117  0.33992  1.0000
  C   C1486     1.0  0.39076  0.61028  0.33620  1.0000
  C   C1487     1.0  0.38709  0.59768  0.33891  1.0000
  C   C1488     1.0  0.39520  0.58597  0.34538  1.0000
  C   C1489     1.0  0.40700  0.58684  0.34898  1.0000
  H   H1457     1.0  0.40513  0.62093  0.33787  1.0000
  S   S530      1.0  0.15931  0.77545  0.38043  1.0000
  H   H1458     1.0  0.39256  0.57619  0.34739  1.0000
  H   H1459     1.0  0.31012  0.75948  0.19991  1.0000
  C   C1490     1.0  0.42747  0.66276  0.29867  1.0000
  C   C1491     1.0  0.41406  0.66072  0.30457  1.0000
  C   C1492     1.0  0.40406  0.66489  0.29658  1.0000
  C   C1493     1.0  0.40763  0.67070  0.28264  1.0000
  C   C1494     1.0  0.42113  0.67220  0.27676  1.0000
  C   C1495     1.0  0.43093  0.66844  0.28476  1.0000
  H   H1460     1.0  0.41130  0.65632  0.31531  1.0000
  H   H1461     1.0  0.39367  0.66355  0.30117  1.0000
  H   H1462     1.0  0.42398  0.67656  0.26598  1.0000
  H   H1463     1.0  0.44125  0.67001  0.28012  1.0000
  C   C1496     1.0  0.34236  0.51853  0.35610  1.0000
  C   C1497     1.0  0.33563  0.50779  0.35855  1.0000
  H   H1464     1.0  0.33668  0.52811  0.35888  1.0000
  N   N113      1.0  0.33041  0.75111  0.18950  1.0000
  H   H1465     1.0  0.23580  0.72632  0.31378  1.0000
  H   H1466     1.0  0.28921  0.64079  0.34945  1.0000
  C   C1498     1.0  0.00339  0.88456  0.32754  1.0000
  C   C1499     1.0  0.48413  0.63607  0.35923  1.0000
  C   C1500     1.0  0.48197  0.64986  0.35275  1.0000
  H   H1467     1.0  0.23859  0.58385  0.18313  1.0000
  H   H1468     1.0  0.06311  0.79112  0.32419  1.0000
  H   H1469     1.0  0.47342  0.65435  0.34775  1.0000
  H   H1470     1.0  0.11361  0.77293  0.20905  1.0000
  N   N114      1.0  0.32099  0.54907  0.32846  1.0000
  C   C1501     1.0  0.31467  0.55205  0.31778  1.0000
  C   C1502     1.0  0.31360  0.55181  0.34086  1.0000
  C   C1503     1.0  0.30068  0.55835  0.31924  1.0000
  C   C1504     1.0  0.29958  0.55804  0.34269  1.0000
  C   C1505     1.0  0.29313  0.56141  0.33177  1.0000
  C   C1506     1.0  0.33567  0.54248  0.32670  1.0000
  H   H1471     1.0  0.32051  0.54992  0.30793  1.0000
  H   H1472     1.0  0.31859  0.54960  0.34931  1.0000
  H   H1473     1.0  0.29586  0.56138  0.31056  1.0000
  H   H1474     1.0  0.29393  0.56082  0.35234  1.0000
  H   H1475     1.0  0.28243  0.56680  0.33286  1.0000
  H   H1476     1.0  0.33701  0.53123  0.32855  1.0000
  C   C1507     1.0  0.09314  0.76834  0.32523  1.0000
  H   H1477     1.0  0.13203  0.77515  0.23351  1.0000
  H   H1478     1.0  0.37454  0.50272  0.34199  1.0000
  N   N115      1.0  0.24283  0.88345  0.22861  1.0000
  C   C1508     1.0  0.25562  0.87523  0.22570  1.0000
  C   C1509     1.0  0.23320  0.87923  0.23982  1.0000
  C   C1510     1.0  0.25889  0.86221  0.23380  1.0000
  C   C1511     1.0  0.23611  0.86627  0.24813  1.0000
  C   C1512     1.0  0.24900  0.85768  0.24502  1.0000
  C   C1513     1.0  0.23968  0.89710  0.22004  1.0000
  H   H1479     1.0  0.26337  0.87869  0.21703  1.0000
  H   H1480     1.0  0.22305  0.88573  0.24218  1.0000
  H   H1481     1.0  0.26904  0.85572  0.23134  1.0000
  H   H1482     1.0  0.22825  0.86276  0.25670  1.0000
  H   H1483     1.0  0.25128  0.84753  0.25128  1.0000
  H   H1484     1.0  0.24503  0.89712  0.20921  1.0000
  H   H1485     1.0  0.22850  0.90050  0.22014  1.0000
  H   H1486     1.0  0.24292  0.90451  0.22368  1.0000
  N   N116      1.0  0.16312  0.81085  0.29917  1.0000
  C   C1514     1.0  0.16925  0.79931  0.30715  1.0000
  C   C1515     1.0  0.16267  0.82345  0.30103  1.0000
  C   C1516     1.0  0.17496  0.80023  0.31746  1.0000
  C   C1517     1.0  0.16837  0.82475  0.31118  1.0000
  C   C1518     1.0  0.17456  0.81305  0.31942  1.0000
  C   C1519     1.0  0.15735  0.80983  0.28826  1.0000
  H   H1487     1.0  0.16975  0.78932  0.30554  1.0000
  H   H1488     1.0  0.15800  0.83259  0.29455  1.0000
  H   H1489     1.0  0.16816  0.83477  0.31253  1.0000
  H   H1490     1.0  0.14682  0.81635  0.28875  1.0000
  H   H1491     1.0  0.16392  0.81319  0.27813  1.0000
  H   H1492     1.0  0.15651  0.79923  0.28904  1.0000
  C   C1520     1.0  0.36367  0.50417  0.34670  1.0000
  C   C1521     1.0  0.24211  0.82812  0.19647  1.0000
  S   S531      1.0  0.02234  0.87176  0.35850  1.0000
  H   H1493     1.0  0.34146  0.54620  0.31626  1.0000
  H   H1494     1.0  0.39868  0.69606  0.29208  1.0000
  H   H1495     1.0  0.41577  0.69352  0.29418  1.0000
  S   S532      1.0  0.36942  0.56050  0.35928  1.0000
  S   S533      1.0  0.12666  0.94386  0.37025  1.0000
  H   H1496     1.0  0.23601  0.74067  0.35731  1.0000
  C   C1522     1.0  0.14231  0.75532  0.22017  1.0000
  C   C1523     1.0  0.34288  0.49515  0.35519  1.0000
  H   H1497     1.0  0.29343  0.66356  0.34734  1.0000
  C   C1524     1.0  0.14762  0.87444  0.37856  1.0000
  H   H1498     1.0  0.23488  0.73292  0.32826  1.0000
  C   C1525     1.0  0.20414  0.56914  0.21520  1.0000
  C   C1526     1.0  0.22759  0.71211  0.34633  1.0000
  C   C1527     1.0  0.22258  0.70096  0.35509  1.0000
  C   C1528     1.0  0.22317  0.68976  0.34991  1.0000
  H   H1499     1.0  0.22727  0.72066  0.35049  1.0000
  Fe  Fe267     1.0  0.27311  0.68668  0.37437  1.0000
  H   H1500     1.0  0.49131  0.62175  0.32893  1.0000
  C   C1529     1.0  0.20893  0.57050  0.22590  1.0000
  S   S534      1.0  0.18943  0.66348  0.18866  1.0000
  H   H1501     1.0  0.11477  0.93644  0.30035  1.0000
  H   H1502     1.0  0.36280  0.58957  0.37762  1.0000
  H   H1503     1.0  0.22391  0.77851  0.37357  1.0000
  S   S535      1.0  0.05332  0.84228  0.37204  1.0000
  H   H1504     1.0  0.14056  0.88993  0.27395  1.0000
  H   H1505     1.0  0.07940  0.90756  0.37841  1.0000
  H   H1506     1.0  0.39426  0.51379  0.37013  1.0000
  C   C1530     1.0  0.17691  0.90097  0.37782  1.0000
  C   C1531     1.0  0.99635  0.86991  0.35914  1.0000
  C   C1532     1.0  0.35698  0.49335  0.34936  1.0000
  S   S536      1.0  0.23603  0.88451  0.19211  1.0000
  C   C1533     1.0  0.22565  0.58218  0.20946  1.0000
  H   H1507     1.0  0.11834  0.75285  0.19893  1.0000
  H   H1508     1.0  0.06310  0.65576  0.21712  1.0000
  C   C1534     1.0  0.23364  0.70119  0.32764  1.0000
  H   H1509     1.0  0.34045  0.54478  0.33388  1.0000
  H   H1510     1.0  0.32472  0.50926  0.36308  1.0000
  N   N117      1.0  0.22101  0.58067  0.19902  1.0000
  S   S537      1.0  0.28599  0.69340  0.35384  1.0000
  N   N118      1.0  0.40084  0.68991  0.31276  1.0000
  H   H1511     1.0  0.07835  0.66102  0.22891  1.0000
  H   H1512     1.0  0.04815  0.69721  0.18852  1.0000
  S   S538      1.0  0.05431  0.87429  0.36976  1.0000
  H   H1513     1.0  0.29993  0.67021  0.30380  1.0000
  H   H1514     1.0  0.25828  0.67211  0.34757  1.0000
  H   H1515     1.0  0.07060  0.78142  0.30474  1.0000
  C   C1535     1.0  0.07833  0.77285  0.30916  1.0000
  H   H1516     1.0  0.32378  0.76309  0.20457  1.0000
  N   N119      1.0  0.34691  0.76004  0.25633  1.0000
  C   C1536     1.0  0.35975  0.75712  0.24817  1.0000
  C   C1537     1.0  0.33854  0.77272  0.25379  1.0000
  C   C1538     1.0  0.36446  0.76699  0.23708  1.0000
  C   C1539     1.0  0.34298  0.78288  0.24286  1.0000
  C   C1540     1.0  0.35603  0.77996  0.23448  1.0000
  C   C1541     1.0  0.34200  0.74969  0.26796  1.0000
  H   H1517     1.0  0.36632  0.74701  0.24999  1.0000
  H   H1518     1.0  0.32835  0.77502  0.26022  1.0000
  H   H1519     1.0  0.37445  0.76449  0.23034  1.0000
  H   H1520     1.0  0.33635  0.79294  0.24080  1.0000
  H   H1521     1.0  0.35953  0.78773  0.22591  1.0000
  H   H1522     1.0  0.34929  0.73957  0.26832  1.0000
  H   H1523     1.0  0.34057  0.75284  0.27769  1.0000
  H   H1524     1.0  0.33206  0.74817  0.26718  1.0000
  H   H1525     1.0  0.28036  0.80176  0.20411  1.0000
  Fe  Fe268     1.0  0.09980  0.71127  0.19314  1.0000
  C   C1542     1.0  0.36149  0.60077  0.37616  1.0000
  S   S539      1.0  0.40716  0.65967  0.37173  1.0000
  H   H1526     1.0  0.36429  0.60515  0.36504  1.0000
  C   C1543     1.0  0.15748  0.59205  0.18362  1.0000
  C   C1544     1.0  0.06376  0.66621  0.21601  1.0000
  C   C1545     1.0  0.12834  0.77774  0.22387  1.0000
  H   H1527     1.0  0.38830  0.59948  0.36810  1.0000
  N   N120      1.0  0.08137  0.77562  0.32092  1.0000
  N   N121      1.0  0.32203  0.68363  0.37249  1.0000
  Fe  Fe269     1.0  0.06426  0.85335  0.37989  1.0000
  C   C1546     1.0  0.19739  0.75350  0.37309  1.0000
  C   C1547     1.0  0.10143  0.85333  0.32133  1.0000
  C   C1548     1.0  0.12629  0.88936  0.37393  1.0000
  Fe  Fe270     1.0  0.12815  0.71017  0.19664  1.0000
  H   H1528     1.0  0.08732  0.66329  0.19124  1.0000
  S   S540      1.0  0.22677  0.71901  0.37944  1.0000
  H   H1529     1.0  0.11009  0.90093  0.30881  1.0000
  H   H1530     1.0  0.18661  0.90243  0.37098  1.0000
  C   C1549     1.0  0.13673  0.74301  0.20663  1.0000
  H   H1531     1.0  0.14879  0.75576  0.22654  1.0000
  S   S541      1.0  0.11755  0.98478  0.35680  1.0000
  H   H1532     1.0  0.39016  0.67111  0.35015  1.0000
  H   H1533     1.0  0.25012  0.72088  0.32212  1.0000
  C   C1550     1.0  0.41035  0.68481  0.32074  1.0000
  S   S542      1.0  0.36536  0.53003  0.34658  1.0000
  H   H1534     1.0  0.07444  0.76333  0.31217  1.0000
  C   C1551     1.0  0.35640  0.51681  0.35000  1.0000
  Fe  Fe271     1.0  0.26677  0.69782  0.34620  1.0000
  C   C1552     1.0  0.22868  0.68987  0.33609  1.0000
  H   H1535     1.0  0.08772  0.77185  0.30083  1.0000
  N   N122      1.0  0.15475  0.66604  0.23972  1.0000
  H   H1536     1.0  0.33221  0.85991  0.19873  1.0000
  H   H1537     1.0  0.09522  0.86297  0.32448  1.0000
  C   C1553     1.0  0.31495  0.70474  0.38016  1.0000
  H   H1538     1.0  0.13398  0.92925  0.28301  1.0000
  H   H1539     1.0  0.34662  0.83955  0.19003  1.0000
  H   H1540     1.0  0.22955  0.68106  0.33201  1.0000
  H   H1541     1.0  0.14737  0.59366  0.19028  1.0000
  H   H1542     1.0  0.19548  0.56441  0.21729  1.0000
  H   H1543     1.0  0.15708  0.66487  0.18744  1.0000
  H   H1544     1.0  0.09400  0.84730  0.32156  1.0000
  H   H1545     1.0  0.27901  0.63024  0.32924  1.0000
  S   S543      1.0  0.33787  0.55531  0.36883  1.0000
  S   S544      1.0  0.16552  0.92341  0.36096  1.0000
  H   H1546     1.0  0.18642  0.66444  0.21875  1.0000
  H   H1547     1.0  0.17972  0.79106  0.32387  1.0000
  S   S545      1.0  0.20889  0.62360  0.19305  1.0000
  H   H1548     1.0  0.23487  0.83681  0.20010  1.0000
  H   H1549     1.0  0.29662  0.62436  0.32076  1.0000
  H   H1550     1.0  0.30830  0.71485  0.37992  1.0000
  H   H1551     1.0  0.02370  0.84291  0.35991  1.0000
  N   N123      1.0  0.26490  0.81384  0.19336  1.0000
  C   C1554     1.0  0.15427  0.68432  0.21994  1.0000
  H   H1552     1.0  0.37285  0.68079  0.33554  1.0000
  H   H1553     1.0  0.01202  0.86356  0.32652  1.0000
  C   C1555     1.0  0.21975  0.57706  0.22303  1.0000
  H   H1554     1.0  0.23847  0.70095  0.31703  1.0000
  C   C1556     1.0  0.21830  0.75741  0.35667  1.0000
  C   C1557     1.0  0.25567  0.82461  0.19819  1.0000
  C   C1558     1.0  0.49100  0.65782  0.35263  1.0000
  N   N124      1.0  0.13107  0.76562  0.21817  1.0000
  H   H1555     1.0  0.00574  0.83116  0.36010  1.0000
  H   H1556     1.0  0.12050  0.89937  0.37000  1.0000
  S   S546      1.0  0.09878  0.92485  0.37029  1.0000
  H   H1557     1.0  0.35043  0.60521  0.37990  1.0000
  H   H1558     1.0  0.28219  0.81915  0.19647  1.0000
  S   S547      1.0  0.12735  0.78792  0.36254  1.0000
  C   C1559     1.0  0.12535  0.75360  0.20459  1.0000
  C   C1560     1.0  0.07227  0.78510  0.32779  1.0000
  C   C1561     1.0  0.19114  0.88580  0.31608  1.0000
  H   H1559     1.0  0.29904  0.67833  0.32431  1.0000
  S   S548      1.0  0.27301  0.88855  0.18621  1.0000
  N   N125      1.0  0.11067  0.84554  0.33050  1.0000
  C   C1562     1.0  0.11635  0.83206  0.33040  1.0000
  C   C1563     1.0  0.11393  0.85180  0.33874  1.0000
  C   C1564     1.0  0.12499  0.82428  0.33922  1.0000
  C   C1565     1.0  0.12269  0.84439  0.34756  1.0000
  C   C1566     1.0  0.12812  0.83052  0.34787  1.0000
  H   H1560     1.0  0.09472  0.68376  0.19170  1.0000
  C   C1567     1.0  0.16856  0.66147  0.23506  1.0000
  H   H1561     1.0  0.10962  0.86255  0.33868  1.0000
  H   H1562     1.0  0.12909  0.81347  0.33944  1.0000
  H   H1563     1.0  0.12523  0.84933  0.35415  1.0000
  H   H1564     1.0  0.13476  0.82463  0.35479  1.0000
  H   H1565     1.0  0.31067  0.67155  0.36872  1.0000
  H   H1566     1.0  0.20630  0.57353  0.19350  1.0000
  N   N126      1.0  0.37198  0.62907  0.29607  1.0000
  C   C1568     1.0  0.38352  0.62353  0.30132  1.0000
  C   C1569     1.0  0.37177  0.64010  0.28539  1.0000
  C   C1570     1.0  0.39526  0.62902  0.29586  1.0000
  C   C1571     1.0  0.38334  0.64580  0.27963  1.0000
  C   C1572     1.0  0.39514  0.64022  0.28492  1.0000
  C   C1573     1.0  0.35952  0.62369  0.30250  1.0000
  H   H1567     1.0  0.38368  0.61480  0.30979  1.0000
  H   H1568     1.0  0.36260  0.64462  0.28129  1.0000
  H   H1569     1.0  0.40435  0.62466  0.30014  1.0000
  H   H1570     1.0  0.38311  0.65461  0.27121  1.0000
  H   H1571     1.0  0.40414  0.64466  0.28058  1.0000
  H   H1572     1.0  0.35312  0.62924  0.31062  1.0000
  H   H1573     1.0  0.35323  0.62506  0.29496  1.0000
  H   H1574     1.0  0.36207  0.61262  0.30714  1.0000
  C   C1574     1.0  0.33376  0.85992  0.18802  1.0000
  H   H1575     1.0  0.24372  0.68525  0.25722  1.0000
  Fe  Fe272     1.0  0.15513  0.81476  0.37154  1.0000
  C   C1575     1.0  0.31365  0.69631  0.37245  1.0000
  C   C1576     1.0  0.08705  0.78044  0.34350  1.0000
  H   H1576     1.0  0.12231  0.88412  0.29425  1.0000
  C   C1577     1.0  0.28996  0.62920  0.32931  1.0000
  C   C1578     1.0  0.09618  0.77065  0.33655  1.0000
  H   H1577     1.0  0.10751  0.85580  0.31074  1.0000
  H   H1578     1.0  0.23903  0.65400  0.24047  1.0000
  C   C1579     1.0  0.39311  0.67644  0.33966  1.0000
  S   S549      1.0  0.11083  0.72767  0.19158  1.0000
  H   H1579     1.0  0.10349  0.92527  0.31013  1.0000
  H   H1580     1.0  0.15848  0.87279  0.37839  1.0000
  H   H1581     1.0  0.49146  0.64596  0.31764  1.0000
  H   H1582     1.0  0.21957  0.68092  0.35663  1.0000
  H   H1583     1.0  0.22881  0.67463  0.25011  1.0000
  C   C1580     1.0  0.45812  0.66776  0.37652  1.0000
  C   C1581     1.0  0.24567  0.65880  0.24314  1.0000
  H   H1584     1.0  0.41422  0.67378  0.34056  1.0000
  H   H1585     1.0  0.14656  0.91260  0.26844  1.0000
  H   H1586     1.0  0.26395  0.63155  0.24582  1.0000
  Fe  Fe273     1.0  0.35644  0.55086  0.35215  1.0000
  H   H1587     1.0  0.18669  0.75706  0.37761  1.0000
  H   H1588     1.0  0.05005  0.67442  0.20224  1.0000
  C   C1582     1.0  0.17552  0.66819  0.22263  1.0000
  Fe  Fe274     1.0  0.24888  0.71064  0.36976  1.0000
  C   C1583     1.0  0.07500  0.78769  0.33914  1.0000
  H   H1589     1.0  0.48934  0.66846  0.34752  1.0000
  Fe  Fe275     1.0  0.28487  0.86835  0.19534  1.0000
  H   H1590     1.0  0.29224  0.62209  0.33887  1.0000
  H   H1591     1.0  0.38444  0.61943  0.33138  1.0000
  N   N127      1.0  0.18126  0.90571  0.32579  1.0000
  H   H1592     1.0  0.20403  0.56682  0.23640  1.0000
  C   C1584     1.0  0.18205  0.89788  0.33850  1.0000
  C   C1585     1.0  0.44590  0.66489  0.37608  1.0000
  C   C1586     1.0  0.18753  0.88383  0.34031  1.0000
  H   H1593     1.0  0.13641  0.66114  0.25360  1.0000
  C   C1587     1.0  0.17522  0.92037  0.32432  1.0000
  C   C1588     1.0  0.20427  0.74014  0.37795  1.0000
  H   H1594     1.0  0.17852  0.90248  0.34734  1.0000
  H   H1595     1.0  0.14863  0.69313  0.21398  1.0000
  C   C1589     1.0  0.14764  0.67751  0.23249  1.0000
  Fe  Fe276     1.0  0.35024  0.56651  0.37479  1.0000
  H   H1596     1.0  0.17721  0.92594  0.31350  1.0000
  H   H1597     1.0  0.16391  0.92207  0.32831  1.0000
  H   H1598     1.0  0.17955  0.92494  0.33021  1.0000
  C   C1590     1.0  0.11448  0.92572  0.30580  1.0000
  H   H1599     1.0  0.46022  0.67782  0.37192  1.0000
  H   H1600     1.0  0.11401  0.82722  0.32362  1.0000
  C   C1591     1.0  0.26513  0.64028  0.23703  1.0000
  C   C1592     1.0  0.21033  0.57433  0.20174  1.0000
  C   C1593     1.0  0.21824  0.73546  0.37236  1.0000
  H   H1601     1.0  0.30584  0.69995  0.36647  1.0000
  H   H1602     1.0  0.18821  0.87768  0.35041  1.0000
  C   C1594     1.0  0.19215  0.87779  0.32900  1.0000
  S   S550      1.0  0.34290  0.58655  0.36161  1.0000
  C   C1595     1.0  0.32070  0.75504  0.20171  1.0000
  S   S551      1.0  0.19648  0.77939  0.35695  1.0000
  Fe  Fe277     1.0  0.14433  0.79150  0.36955  1.0000
  H   H1603     1.0  0.41327  0.57773  0.35394  1.0000
  H   H1604     1.0  0.22381  0.76414  0.34852  1.0000
  C   C1596     1.0  0.20442  0.76222  0.36252  1.0000
  H   H1605     1.0  0.06807  0.79564  0.34419  1.0000
  S   S552      1.0  0.26995  0.85631  0.19578  1.0000
  C   C1597     1.0  0.12269  0.76492  0.21042  1.0000
  H   H1606     1.0  0.16214  0.68097  0.18288  1.0000
  H   H1607     1.0  0.23377  0.58766  0.20735  1.0000
  C   C1598     1.0  0.05636  0.67684  0.20761  1.0000
  H   H1608     1.0  0.26873  0.67487  0.25460  1.0000
  C   C1599     1.0  0.24815  0.67635  0.25270  1.0000
  C   C1600     1.0  0.26766  0.65871  0.24593  1.0000
  C   C1601     1.0  0.38345  0.68180  0.33149  1.0000
  H   H1609     1.0  0.14975  0.66177  0.26135  1.0000
  C   C1602     1.0  0.22522  0.74409  0.36161  1.0000
  C   C1603     1.0  0.29183  0.64711  0.33941  1.0000
  H   H1610     1.0  0.37992  0.69276  0.31173  1.0000
  C   C1604     1.0  0.23980  0.67046  0.24865  1.0000
  N   N128      1.0  0.37356  0.52230  0.37910  1.0000
  H   H1611     1.0  0.15134  0.64759  0.25370  1.0000
  H   H1612     1.0  0.16595  0.60221  0.19383  1.0000
  H   H1613     1.0  0.11984  0.92329  0.31430  1.0000
  N   N129      1.0  0.23295  0.71216  0.33278  1.0000
  H   H1614     1.0  0.42097  0.68571  0.31657  1.0000
  C   C1605     1.0  0.26218  0.67052  0.25125  1.0000
  Fe  Fe278     1.0  0.17484  0.78774  0.36771  1.0000
  H   H1615     1.0  0.27623  0.63927  0.23203  1.0000
  N   N130      1.0  0.25943  0.65307  0.24185  1.0000
  H   H1616     1.0  0.25964  0.63964  0.22954  1.0000
  C   C1606     1.0  0.40664  0.67797  0.33428  1.0000
  H   H1617     1.0  0.27850  0.65397  0.24533  1.0000
  C   C1607     1.0  0.01327  0.84863  0.35973  1.0000
  C   C1608     1.0  0.14772  0.65883  0.25276  1.0000
  H   H1618     1.0  0.32007  0.68122  0.35362  1.0000
  H   H1619     1.0  0.19460  0.88110  0.30726  1.0000
  C   C1609     1.0  0.38751  0.68860  0.31800  1.0000
  C   C1610     1.0  0.14529  0.74386  0.21446  1.0000
  H   H1620     1.0  0.17345  0.68467  0.20513  1.0000
  N   N131      1.0  0.29262  0.64263  0.32799  1.0000
  C   C1611     1.0  0.29526  0.65087  0.31536  1.0000
  C   C1612     1.0  0.29424  0.65995  0.33828  1.0000
  C   C1613     1.0  0.29786  0.66370  0.31385  1.0000
  C   C1614     1.0  0.29741  0.66823  0.32538  1.0000
  H   H1621     1.0  0.17421  0.65244  0.24085  1.0000
  H   H1622     1.0  0.29522  0.64762  0.30638  1.0000
  S   S553      1.0  0.31289  0.78956  0.18630  1.0000
  H   H1623     1.0  0.13668  0.68118  0.23618  1.0000
  C   C1615     1.0  0.27909  0.81028  0.19518  1.0000
  N   N132      1.0  0.12122  0.91613  0.29669  1.0000
  C   C1616     1.0  0.13126  0.91942  0.28547  1.0000
  C   C1617     1.0  0.11800  0.90361  0.29990  1.0000
  C   C1618     1.0  0.13838  0.91006  0.27715  1.0000
  C   C1619     1.0  0.12484  0.89406  0.29172  1.0000
  C   C1620     1.0  0.13510  0.89732  0.28029  1.0000
  C   C1621     1.0  0.23800  0.82044  0.18990  1.0000
  C   C1622     1.0  0.16800  0.59690  0.18566  1.0000
  C   C1623     1.0  0.16466  0.91013  0.37552  1.0000
  S   S554      1.0  0.26658  0.70730  0.37967  1.0000
  C   C1624     1.0  0.11968  0.87851  0.38007  1.0000
  H   H1624     1.0  0.37367  0.50568  0.37085  1.0000
  C   C1625     1.0  0.49527  0.63038  0.36569  1.0000
  H   H1625     1.0  0.10568  0.76506  0.33976  1.0000
  C   C1626     1.0  0.04990  0.70100  0.19674  1.0000
  H   H1626     1.0  0.01286  0.88627  0.32867  1.0000
  N   N133      1.0  0.05764  0.68998  0.20563  1.0000
  H   H1627     1.0  0.39202  0.52944  0.37533  1.0000
  C   C1627     1.0  0.33147  0.67876  0.38055  1.0000
  H   H1628     1.0  0.13876  0.73408  0.20233  1.0000
  C   C1628     1.0  0.38407  0.60205  0.37799  1.0000
  C   C1629     1.0  0.07327  0.68260  0.22075  1.0000
  H   H1629     1.0  0.14561  0.89556  0.36827  1.0000
  H   H1630     1.0  0.05576  0.70915  0.19154  1.0000
  S   S555      1.0  0.15047  0.71018  0.18752  1.0000
  H   H1631     1.0  0.07995  0.68492  0.22578  1.0000
  H   H1632     1.0  0.43832  0.67269  0.37122  1.0000
  C   C1630     1.0  0.08406  0.67291  0.18458  1.0000
  H   H1633     1.0  0.14326  0.97746  0.36637  1.0000
  C   C1631     1.0  0.36798  0.51240  0.37782  1.0000
  H   H1634     1.0  0.34799  0.74930  0.19722  1.0000
  H   H1635     1.0  0.38634  0.52970  0.36040  1.0000
  Fe  Fe279     1.0  0.25878  0.87629  0.18511  1.0000
  H   H1636     1.0  0.31627  0.88087  0.19605  1.0000
  C   C1632     1.0  0.14037  0.88724  0.37305  1.0000
  H   H1637     1.0  0.40385  0.60267  0.38054  1.0000
  S   S556      1.0  0.34023  0.81141  0.18248  1.0000
  H   H1638     1.0  0.43403  0.64965  0.38131  1.0000
  C   C1633     1.0  0.09467  0.81471  0.38119  1.0000
  H   H1639     1.0  0.22760  0.82319  0.18824  1.0000
  C   C1634     1.0  0.24739  0.80930  0.18527  1.0000
  C   C1635     1.0  0.31884  0.88293  0.18470  1.0000
  C   C1636     1.0  0.34198  0.84837  0.18314  1.0000
  C   C1637     1.0  0.08828  0.68451  0.18486  1.0000
  H   H1640     1.0  0.26820  0.79767  0.18317  1.0000
  C   C1638     1.0  0.22718  0.58647  0.18493  1.0000
  H   H1641     1.0  0.22354  0.59774  0.18285  1.0000
  H   H1642     1.0  0.33773  0.66849  0.38108  1.0000
  C   C1639     1.0  0.44351  0.65178  0.38183  1.0000
  Fe  Fe280     1.0  0.34542  0.64824  0.56675  1.0000
  S   S557      1.0  0.36399  0.65495  0.55223  1.0000
  C   C1640     1.0  0.34418  0.57616  0.57988  1.0000
  Fe  Fe281     1.0  0.35449  0.61969  0.56132  1.0000
  S   S558      1.0  0.37379  0.62401  0.54655  1.0000
  C   C1641     1.0  0.22132  0.74881  0.39666  1.0000
  Fe  Fe282     1.0  0.37545  0.63460  0.56190  1.0000
  C   C1642     1.0  0.34698  0.52022  0.39343  1.0000
  Fe  Fe283     1.0  0.36037  0.64371  0.53832  1.0000
  S   S559      1.0  0.36255  0.65141  0.51546  1.0000
  C   C1643     1.0  0.34322  0.69181  0.54814  1.0000
  S   S560      1.0  0.34087  0.63869  0.55209  1.0000
  C   C1644     1.0  0.38752  0.60680  0.39798  1.0000
  N   N134      1.0  0.09752  0.92346  0.40421  1.0000
  C   C1645     1.0  0.10898  0.91614  0.40906  1.0000
  S   S561      1.0  0.35403  0.56430  0.39564  1.0000
  H   H1643     1.0  0.12799  0.85112  0.51718  1.0000
  H   H1644     1.0  0.14901  0.94935  0.56929  1.0000
  Fe  Fe284     1.0  0.33725  0.63242  0.45992  1.0000
  S   S562      1.0  0.34884  0.64746  0.44485  1.0000
  S   S563      1.0  0.33160  0.63044  0.48296  1.0000
  Fe  Fe285     1.0  0.33334  0.62095  0.43714  1.0000
  S   S564      1.0  0.34502  0.63482  0.42060  1.0000
  S   S565      1.0  0.32189  0.60947  0.43025  1.0000
  Fe  Fe286     1.0  0.35947  0.62982  0.43457  1.0000
  S   S566      1.0  0.38228  0.62340  0.42730  1.0000
  Fe  Fe287     1.0  0.33305  0.65090  0.43244  1.0000
  S   S567      1.0  0.32164  0.67115  0.42226  1.0000
  S   S568      1.0  0.34883  0.61442  0.45031  1.0000
  S   S569      1.0  0.32052  0.63737  0.44835  1.0000
  H   H1645     1.0  0.32345  0.68896  0.56041  1.0000
  S   S570      1.0  0.10787  0.89672  0.56909  1.0000
  C   C1646     1.0  0.11337  0.79829  0.41531  1.0000
  Fe  Fe288     1.0  0.15447  0.78995  0.39438  1.0000
  C   C1647     1.0  0.21511  0.85540  0.57198  1.0000
  S   S571      1.0  0.15066  0.78168  0.41686  1.0000
  C   C1648     1.0  0.22734  0.75822  0.38607  1.0000
  C   C1649     1.0  0.11668  0.93683  0.40565  1.0000
  S   S572      1.0  0.14423  0.88181  0.57277  1.0000
  C   C1650     1.0  0.13883  0.84158  0.50010  1.0000
  H   H1646     1.0  0.35014  0.50356  0.38356  1.0000
  C   C1651     1.0  0.34746  0.58853  0.57893  1.0000
  C   C1652     1.0  0.18549  0.76924  0.40623  1.0000
  C   C1653     1.0  0.33892  0.67719  0.53172  1.0000
  C   C1654     1.0  0.17673  0.88992  0.38895  1.0000
  H   H1647     1.0  0.36919  0.61059  0.41361  1.0000
  H   H1648     1.0  0.35447  0.66748  0.57688  1.0000
  C   C1655     1.0  0.38472  0.58774  0.57138  1.0000
  Fe  Fe289     1.0  0.15172  0.86175  0.56651  1.0000
  S   S573      1.0  0.16690  0.86905  0.54794  1.0000
  H   H1649     1.0  0.18235  0.78017  0.40689  1.0000
  Fe  Fe290     1.0  0.12900  0.88601  0.55980  1.0000
  S   S574      1.0  0.14240  0.89561  0.54069  1.0000
  S   S575      1.0  0.17122  0.80104  0.38265  1.0000
  Fe  Fe291     1.0  0.14972  0.87426  0.53681  1.0000
  S   S576      1.0  0.15567  0.86772  0.51646  1.0000
  Fe  Fe292     1.0  0.15822  0.88951  0.55351  1.0000
  S   S577      1.0  0.17252  0.90244  0.55326  1.0000
  S   S578      1.0  0.13516  0.86507  0.55520  1.0000
  H   H1650     1.0  0.19880  0.73349  0.38622  1.0000
  C   C1656     1.0  0.12703  0.92132  0.56643  1.0000
  S   S579      1.0  0.06927  0.84546  0.40070  1.0000
  Fe  Fe293     1.0  0.14519  0.87018  0.42645  1.0000
  S   S580      1.0  0.12691  0.88663  0.43204  1.0000
  S   S581      1.0  0.16481  0.87363  0.41154  1.0000
  Fe  Fe294     1.0  0.13119  0.84759  0.44418  1.0000
  S   S582      1.0  0.11155  0.86220  0.45099  1.0000
  S   S583      1.0  0.13287  0.82535  0.45382  1.0000
  Fe  Fe295     1.0  0.11496  0.87309  0.42906  1.0000
  S   S584      1.0  0.09975  0.88247  0.41554  1.0000
  Fe  Fe296     1.0  0.12541  0.87416  0.45349  1.0000
  S   S585      1.0  0.11902  0.88335  0.47231  1.0000
  S   S586      1.0  0.13343  0.85748  0.42202  1.0000
  S   S587      1.0  0.14485  0.85873  0.44813  1.0000
  C   C1657     1.0  0.07769  0.85570  0.40495  1.0000
  C   C1658     1.0  0.07789  0.86896  0.39743  1.0000
  C   C1659     1.0  0.08445  0.87712  0.40103  1.0000
  C   C1660     1.0  0.09123  0.87196  0.41185  1.0000
  C   C1661     1.0  0.09127  0.85859  0.41925  1.0000
  C   C1662     1.0  0.08437  0.85052  0.41588  1.0000
  H   H1651     1.0  0.20504  0.88829  0.55578  1.0000
  H   H1652     1.0  0.10977  0.85668  0.38902  1.0000
  H   H1653     1.0  0.09641  0.85458  0.42769  1.0000
  H   H1654     1.0  0.08413  0.84030  0.42181  1.0000
  H   H1655     1.0  0.20284  0.74514  0.41124  1.0000
  C   C1663     1.0  0.35110  0.68189  0.52822  1.0000
  C   C1664     1.0  0.20756  0.75265  0.40331  1.0000
  C   C1665     1.0  0.16431  0.88792  0.39796  1.0000
  C   C1666     1.0  0.15196  0.89708  0.39576  1.0000
  H   H1656     1.0  0.32913  0.58545  0.39367  1.0000
  H   H1657     1.0  0.34492  0.69715  0.55491  1.0000
  H   H1658     1.0  0.07272  0.87304  0.38904  1.0000
  H   H1659     1.0  0.14233  0.89548  0.40261  1.0000
  C   C1667     1.0  0.39271  0.59634  0.57176  1.0000
  C   C1668     1.0  0.14568  0.87323  0.50390  1.0000
  C   C1669     1.0  0.15120  0.86902  0.49141  1.0000
  C   C1670     1.0  0.14327  0.87229  0.48152  1.0000
  C   C1671     1.0  0.12973  0.87989  0.48400  1.0000
  C   C1672     1.0  0.12431  0.88440  0.49634  1.0000
  C   C1673     1.0  0.13223  0.88106  0.50628  1.0000
  H   H1660     1.0  0.16164  0.86306  0.48945  1.0000
  H   H1661     1.0  0.14762  0.86891  0.47201  1.0000
  H   H1662     1.0  0.11387  0.89035  0.49831  1.0000
  H   H1663     1.0  0.12787  0.88440  0.51583  1.0000
  H   H1664     1.0  0.34372  0.60155  0.49675  1.0000
  H   H1665     1.0  0.18323  0.76325  0.41684  1.0000
  H   H1666     1.0  0.27733  0.63016  0.41081  1.0000
  N   N135      1.0  0.12696  0.86587  0.38507  1.0000
  C   C1674     1.0  0.14071  0.86379  0.38456  1.0000
  C   C1675     1.0  0.10687  0.81206  0.41257  1.0000
  C   C1676     1.0  0.17468  0.90554  0.56826  1.0000
  C   C1677     1.0  0.15214  0.90824  0.38453  1.0000
  H   H1667     1.0  0.09244  0.90833  0.39770  1.0000
  C   C1678     1.0  0.09552  0.93733  0.39988  1.0000
  H   H1668     1.0  0.19338  0.91235  0.55760  1.0000
  C   C1679     1.0  0.10500  0.94424  0.40064  1.0000
  C   C1680     1.0  0.18610  0.91070  0.56726  1.0000
  C   C1681     1.0  0.11874  0.92268  0.40984  1.0000
  H   H1669     1.0  0.26514  0.65414  0.41167  1.0000
  H   H1670     1.0  0.14810  0.82756  0.47264  1.0000
  C   C1682     1.0  0.14575  0.79419  0.42668  1.0000
  C   C1683     1.0  0.14457  0.80807  0.42060  1.0000
  C   C1684     1.0  0.14057  0.81782  0.42880  1.0000
  C   C1685     1.0  0.13774  0.81366  0.44306  1.0000
  C   C1686     1.0  0.13882  0.79980  0.44903  1.0000
  C   C1687     1.0  0.14281  0.79010  0.44089  1.0000
  H   H1671     1.0  0.14684  0.81129  0.40961  1.0000
  H   H1672     1.0  0.13982  0.82848  0.42411  1.0000
  H   H1673     1.0  0.13662  0.79653  0.46003  1.0000
  H   H1674     1.0  0.14366  0.77940  0.44563  1.0000
  H   H1675     1.0  0.07897  0.92321  0.39896  1.0000
  C   C1688     1.0  0.09819  0.88526  0.58033  1.0000
  C   C1689     1.0  0.32472  0.69997  0.38822  1.0000
  C   C1690     1.0  0.11513  0.85392  0.50312  1.0000
  C   C1691     1.0  0.40018  0.64996  0.38745  1.0000
  H   H1676     1.0  0.09571  0.82796  0.39922  1.0000
  H   H1677     1.0  0.31825  0.66445  0.55398  1.0000
  H   H1678     1.0  0.36283  0.69258  0.53412  1.0000
  H   H1679     1.0  0.38563  0.60732  0.50878  1.0000
  H   H1680     1.0  0.22712  0.73843  0.39931  1.0000
  H   H1681     1.0  0.12424  0.94203  0.40607  1.0000
  C   C1692     1.0  0.34063  0.59959  0.51844  1.0000
  C   C1693     1.0  0.20012  0.85691  0.55781  1.0000
  H   H1682     1.0  0.21168  0.83052  0.58150  1.0000
  C   C1694     1.0  0.12728  0.84884  0.50788  1.0000
  H   H1683     1.0  0.08429  0.88747  0.39537  1.0000
  C   C1695     1.0  0.35942  0.60801  0.50181  1.0000
  H   H1684     1.0  0.19447  0.85209  0.55385  1.0000
  C   C1696     1.0  0.34552  0.60165  0.52874  1.0000
  C   C1697     1.0  0.31085  0.66984  0.41252  1.0000
  C   C1698     1.0  0.30136  0.68144  0.40777  1.0000
  C   C1699     1.0  0.29288  0.68069  0.39972  1.0000
  H   H1685     1.0  0.38116  0.58881  0.56223  1.0000
  C   C1700     1.0  0.30318  0.65666  0.40131  1.0000
  C   C1701     1.0  0.31165  0.65741  0.40937  1.0000
  H   H1686     1.0  0.30058  0.69105  0.41032  1.0000
  H   H1687     1.0  0.11061  0.90515  0.41233  1.0000
  H   H1688     1.0  0.19856  0.83226  0.57275  1.0000
  H   H1689     1.0  0.31880  0.64836  0.41311  1.0000
  C   C1702     1.0  0.34542  0.57742  0.40465  1.0000
  C   C1703     1.0  0.33330  0.58640  0.40170  1.0000
  C   C1704     1.0  0.32622  0.59629  0.40954  1.0000
  C   C1705     1.0  0.33141  0.59750  0.42012  1.0000
  C   C1706     1.0  0.34377  0.58880  0.42280  1.0000
  C   C1707     1.0  0.35066  0.57869  0.41517  1.0000
  N   N136      1.0  0.45299  0.64182  0.38794  1.0000
  H   H1690     1.0  0.31664  0.60294  0.40747  1.0000
  H   H1691     1.0  0.34777  0.58958  0.43101  1.0000
  H   H1692     1.0  0.36002  0.57175  0.41752  1.0000
  H   H1693     1.0  0.15706  0.82431  0.48598  1.0000
  N   N137      1.0  0.13822  0.83928  0.48800  1.0000
  C   C1708     1.0  0.40280  0.63010  0.40584  1.0000
  C   C1709     1.0  0.38902  0.63408  0.41229  1.0000
  C   C1710     1.0  0.38083  0.64616  0.40645  1.0000
  N   N138      1.0  0.37028  0.60349  0.38351  1.0000
  H   H1694     1.0  0.08282  0.91125  0.41431  1.0000
  H   H1695     1.0  0.14264  0.91529  0.38279  1.0000
  H   H1696     1.0  0.37019  0.64933  0.41148  1.0000
  C   C1711     1.0  0.29377  0.66829  0.39646  1.0000
  C   C1712     1.0  0.35329  0.64634  0.50645  1.0000
  C   C1713     1.0  0.35741  0.64820  0.49218  1.0000
  C   C1714     1.0  0.35071  0.64364  0.48479  1.0000
  C   C1715     1.0  0.33962  0.63742  0.49159  1.0000
  C   C1716     1.0  0.33526  0.63592  0.50582  1.0000
  C   C1717     1.0  0.34212  0.64024  0.51323  1.0000
  H   H1697     1.0  0.36601  0.65296  0.48682  1.0000
  H   H1698     1.0  0.35419  0.64485  0.47384  1.0000
  H   H1699     1.0  0.32668  0.63114  0.51117  1.0000
  H   H1700     1.0  0.33878  0.63878  0.52419  1.0000
  H   H1701     1.0  0.21952  0.87434  0.57232  1.0000
  H   H1702     1.0  0.08511  0.82262  0.38342  1.0000
  H   H1703     1.0  0.36455  0.61080  0.49120  1.0000
  N   N139      1.0  0.20790  0.84934  0.56706  1.0000
  N   N140      1.0  0.32904  0.67998  0.54301  1.0000
  H   H1704     1.0  0.39562  0.60403  0.56283  1.0000
  H   H1705     1.0  0.34312  0.57364  0.57088  1.0000
  H   H1706     1.0  0.34015  0.59929  0.53933  1.0000
  H   H1707     1.0  0.12785  0.91680  0.41364  1.0000
  H   H1708     1.0  0.10348  0.95521  0.39703  1.0000
  S   S588      1.0  0.32806  0.66195  0.57839  1.0000
  C   C1718     1.0  0.09963  0.87247  0.57765  1.0000
  C   C1719     1.0  0.08737  0.91628  0.40383  1.0000
  H   H1709     1.0  0.38106  0.65629  0.57356  1.0000
  C   C1720     1.0  0.16511  0.90383  0.58077  1.0000
  C   C1721     1.0  0.19905  0.87101  0.55359  1.0000
  H   H1710     1.0  0.40918  0.62081  0.41040  1.0000
  C   C1722     1.0  0.11463  0.85157  0.49076  1.0000
  S   S589      1.0  0.35712  0.62862  0.57740  1.0000
  S   S590      1.0  0.39540  0.62936  0.56872  1.0000
  N   N141      1.0  0.13947  0.93255  0.57466  1.0000
  H   H1711     1.0  0.37576  0.62206  0.51584  1.0000
  C   C1723     1.0  0.40829  0.63793  0.39339  1.0000
  C   C1724     1.0  0.10063  0.81723  0.40137  1.0000
  S   S591      1.0  0.35056  0.59926  0.56274  1.0000
  H   H1712     1.0  0.35898  0.67947  0.51935  1.0000
  S   S592      1.0  0.28296  0.66695  0.38676  1.0000
  H   H1713     1.0  0.37041  0.53923  0.38823  1.0000
  C   C1725     1.0  0.20875  0.83460  0.57144  1.0000
  H   H1714     1.0  0.43936  0.62835  0.39805  1.0000
  H   H1715     1.0  0.11896  0.77927  0.40870  1.0000
  H   H1716     1.0  0.30389  0.64702  0.39888  1.0000
  H   H1717     1.0  0.34688  0.53748  0.40113  1.0000
  H   H1718     1.0  0.10679  0.81870  0.41900  1.0000
  C   C1726     1.0  0.39650  0.63880  0.57985  1.0000
  C   C1727     1.0  0.33108  0.68714  0.55121  1.0000
  C   C1728     1.0  0.35326  0.68921  0.53652  1.0000
  C   C1729     1.0  0.35732  0.60696  0.52529  1.0000
  H   H1719     1.0  0.33653  0.51957  0.39883  1.0000
  H   H1720     1.0  0.10615  0.86989  0.56825  1.0000
  H   H1721     1.0  0.08667  0.94310  0.39561  1.0000
  H   H1722     1.0  0.18628  0.88290  0.39064  1.0000
  C   C1730     1.0  0.13880  0.92605  0.56517  1.0000
  C   C1731     1.0  0.12634  0.84420  0.48328  1.0000
  H   H1723     1.0  0.10544  0.85597  0.48666  1.0000
  H   H1724     1.0  0.30765  0.68142  0.55208  1.0000
  C   C1732     1.0  0.15151  0.93812  0.57294  1.0000
  C   C1733     1.0  0.10723  0.79541  0.39574  1.0000
  C   C1734     1.0  0.36488  0.60662  0.39610  1.0000
  H   H1725     1.0  0.12628  0.84506  0.38817  1.0000
  H   H1726     1.0  0.12648  0.91615  0.55894  1.0000
  H   H1727     1.0  0.14738  0.92443  0.55658  1.0000
  C   C1735     1.0  0.37636  0.61577  0.50854  1.0000
  H   H1728     1.0  0.14841  0.83828  0.50355  1.0000
  H   H1729     1.0  0.12594  0.84269  0.47354  1.0000
  H   H1730     1.0  0.11850  0.79418  0.42380  1.0000
  C   C1736     1.0  0.20582  0.77478  0.38904  1.0000
  H   H1731     1.0  0.17897  0.76736  0.40039  1.0000
  H   H1732     1.0  0.21646  0.82924  0.56377  1.0000
  N   N142      1.0  0.28409  0.64839  0.43517  1.0000
  C   C1737     1.0  0.29094  0.63522  0.43465  1.0000
  C   C1738     1.0  0.27494  0.65518  0.42701  1.0000
  C   C1739     1.0  0.28852  0.62843  0.42600  1.0000
  C   C1740     1.0  0.27216  0.64863  0.41835  1.0000
  C   C1741     1.0  0.27907  0.63520  0.41780  1.0000
  C   C1742     1.0  0.28714  0.65547  0.44396  1.0000
  H   H1733     1.0  0.29846  0.62991  0.44083  1.0000
  H   H1734     1.0  0.26999  0.66581  0.42689  1.0000
  H   H1735     1.0  0.29416  0.61805  0.42550  1.0000
  H   H1736     1.0  0.19710  0.91782  0.57766  1.0000
  S   S593      1.0  0.13809  0.80490  0.38462  1.0000
  H   H1737     1.0  0.27856  0.66416  0.44648  1.0000
  H   H1738     1.0  0.28887  0.64844  0.45374  1.0000
  H   H1739     1.0  0.29657  0.65948  0.43874  1.0000
  H   H1740     1.0  0.15684  0.84005  0.47323  1.0000
  C   C1743     1.0  0.37342  0.60827  0.40355  1.0000
  H   H1741     1.0  0.33755  0.67113  0.52543  1.0000
  H   H1742     1.0  0.19270  0.87708  0.54642  1.0000
  H   H1743     1.0  0.10632  0.86016  0.50870  1.0000
  H   H1744     1.0  0.38016  0.66357  0.38960  1.0000
  H   H1745     1.0  0.37748  0.62264  0.49828  1.0000
  H   H1746     1.0  0.31384  0.67325  0.53778  1.0000
  C   C1744     1.0  0.35277  0.53026  0.39472  1.0000
  C   C1745     1.0  0.20602  0.87733  0.55884  1.0000
  H   H1747     1.0  0.33133  0.59576  0.52093  1.0000
  C   C1746     1.0  0.15068  0.83246  0.47956  1.0000
  C   C1747     1.0  0.34765  0.60271  0.50489  1.0000
  H   H1748     1.0  0.39422  0.60791  0.40374  1.0000
  H   H1749     1.0  0.45612  0.62250  0.40177  1.0000
  H   H1750     1.0  0.41885  0.63468  0.38853  1.0000
  C   C1748     1.0  0.21415  0.86951  0.56806  1.0000
  H   H1751     1.0  0.16049  0.93369  0.56550  1.0000
  C   C1749     1.0  0.36612  0.53120  0.38738  1.0000
  C   C1750     1.0  0.39290  0.60378  0.38506  1.0000
  C   C1751     1.0  0.11356  0.78989  0.40687  1.0000
  C   C1752     1.0  0.35463  0.51120  0.38495  1.0000
  H   H1752     1.0  0.36097  0.60862  0.53336  1.0000
  C   C1753     1.0  0.31658  0.67452  0.54685  1.0000
  H   H1753     1.0  0.28557  0.68968  0.39616  1.0000
  C   C1754     1.0  0.18816  0.91391  0.57860  1.0000
  N   N143      1.0  0.10076  0.80890  0.39320  1.0000
  N   N144      1.0  0.36398  0.61027  0.51194  1.0000
  H   H1754     1.0  0.19971  0.78478  0.38559  1.0000
  N   N145      1.0  0.20006  0.76556  0.39958  1.0000
  H   H1755     1.0  0.10669  0.91980  0.57847  1.0000
  H   H1756     1.0  0.22127  0.84942  0.57934  1.0000
  H   H1757     1.0  0.35395  0.60776  0.40051  1.0000
  H   H1758     1.0  0.11841  0.85281  0.40282  1.0000
  H   H1759     1.0  0.45395  0.62212  0.38535  1.0000
  C   C1755     1.0  0.38835  0.65192  0.58008  1.0000
  C   C1756     1.0  0.45047  0.62803  0.39356  1.0000
  H   H1760     1.0  0.47752  0.65953  0.38270  1.0000
  C   C1757     1.0  0.38647  0.65421  0.39409  1.0000
  H   H1761     1.0  0.10781  0.78891  0.38897  1.0000
  C   C1758     1.0  0.46511  0.64449  0.38822  1.0000
  H   H1762     1.0  0.17053  0.86507  0.57976  1.0000
  H   H1763     1.0  0.32564  0.70625  0.39452  1.0000
  H   H1764     1.0  0.15615  0.90003  0.58161  1.0000
  C   C1759     1.0  0.11998  0.85454  0.39158  1.0000
  C   C1760     1.0  0.11592  0.92334  0.57740  1.0000
  H   H1765     1.0  0.47291  0.63645  0.39249  1.0000
  C   C1761     1.0  0.33300  0.68687  0.38848  1.0000
  H   H1766     1.0  0.34023  0.68286  0.39516  1.0000
  H   H1767     1.0  0.14642  0.85384  0.38878  1.0000
  C   C1762     1.0  0.46779  0.65752  0.38266  1.0000
  C   C1763     1.0  0.21955  0.77129  0.38219  1.0000
  H   H1768     1.0  0.35136  0.60125  0.58999  1.0000
  Fe  Fe297     1.0  0.37535  0.56265  0.64400  1.0000
  S   S594      1.0  0.35477  0.57603  0.64161  1.0000
  S   S595      1.0  0.39289  0.57334  0.63311  1.0000
  Fe  Fe298     1.0  0.36313  0.53740  0.65846  1.0000
  S   S596      1.0  0.34167  0.54943  0.65761  1.0000
  S   S597      1.0  0.36564  0.51449  0.66712  1.0000
  Fe  Fe299     1.0  0.35101  0.55836  0.63612  1.0000
  S   S598      1.0  0.34152  0.55784  0.61945  1.0000
  Fe  Fe300     1.0  0.34754  0.56590  0.66336  1.0000
  S   S599      1.0  0.33217  0.58034  0.67590  1.0000
  S   S600      1.0  0.37219  0.54558  0.63663  1.0000
  S   S601      1.0  0.36841  0.55330  0.66620  1.0000
  Fe  Fe301     1.0  0.43693  0.64763  0.63757  1.0000
  S   S602      1.0  0.42404  0.64269  0.65888  1.0000
  Fe  Fe302     1.0  0.41216  0.65433  0.62439  1.0000
  S   S603      1.0  0.39779  0.64966  0.64448  1.0000
  Fe  Fe303     1.0  0.14351  0.95081  0.62964  1.0000
  Fe  Fe304     1.0  0.40837  0.66132  0.65186  1.0000
  S   S604      1.0  0.39194  0.67654  0.66270  1.0000
  Fe  Fe305     1.0  0.41430  0.63154  0.64971  1.0000
  S   S605      1.0  0.40802  0.61186  0.66189  1.0000
  S   S606      1.0  0.42191  0.66719  0.63132  1.0000
  S   S607      1.0  0.42809  0.63512  0.62888  1.0000
  Fe  Fe306     1.0  0.20339  0.82471  0.65599  1.0000
  S   S608      1.0  0.21315  0.80249  0.65880  1.0000
  S   S609      1.0  0.19324  0.83484  0.67379  1.0000
  Fe  Fe307     1.0  0.20903  0.82870  0.62544  1.0000
  S   S610      1.0  0.21984  0.80678  0.62528  1.0000
  Fe  Fe308     1.0  0.20248  0.80231  0.64305  1.0000
  S   S611      1.0  0.19269  0.78492  0.64567  1.0000
  Fe  Fe309     1.0  0.22981  0.80857  0.64112  1.0000
  S   S612      1.0  0.25071  0.79863  0.64587  1.0000
  S   S613      1.0  0.19086  0.82400  0.64197  1.0000
  S   S614      1.0  0.22078  0.83105  0.63944  1.0000
  Fe  Fe310     1.0  0.14748  0.79049  0.71476  1.0000
  S   S615      1.0  0.15250  0.81082  0.70460  1.0000
  S   S616      1.0  0.15350  0.77332  0.70369  1.0000
  Fe  Fe311     1.0  0.13243  0.79962  0.74111  1.0000
  S   S617      1.0  0.13606  0.82091  0.73288  1.0000
  S   S618      1.0  0.12154  0.79447  0.76310  1.0000
  Fe  Fe312     1.0  0.13072  0.81941  0.71398  1.0000
  S   S619      1.0  0.12047  0.83729  0.69974  1.0000
  Fe  Fe313     1.0  0.15740  0.81029  0.72428  1.0000
  S   S620      1.0  0.17725  0.81533  0.72372  1.0000
  S   S621      1.0  0.12516  0.79904  0.72292  1.0000
  S   S622      1.0  0.15426  0.78912  0.73375  1.0000
  C   C1764     1.0  0.36413  0.67099  0.63105  1.0000
  C   C1765     1.0  0.18498  0.85700  0.59288  1.0000
  H   H1769     1.0  0.12662  0.95814  0.67462  1.0000
  H   H1770     1.0  0.36631  0.63901  0.77815  1.0000
  S   S623      1.0  0.15761  0.84296  0.58218  1.0000
  H   H1771     1.0  0.44812  0.61361  0.68201  1.0000
  H   H1772     1.0  0.16358  0.96980  0.63410  1.0000
  H   H1773     1.0  0.39165  0.82553  0.75798  1.0000
  H   H1774     1.0  0.43742  0.60349  0.64971  1.0000
  H   H1775     1.0  0.00542  0.87216  0.61540  1.0000
  Fe  Fe314     1.0  0.21917  0.87089  0.71072  1.0000
  S   S624      1.0  0.19742  0.88158  0.70992  1.0000
  S   S625      1.0  0.23153  0.85776  0.69558  1.0000
  Fe  Fe315     1.0  0.21909  0.88307  0.73436  1.0000
  S   S626      1.0  0.19712  0.89497  0.73532  1.0000
  S   S627      1.0  0.23233  0.87856  0.74987  1.0000
  Fe  Fe316     1.0  0.19302  0.87589  0.73272  1.0000
  S   S628      1.0  0.17370  0.86812  0.74388  1.0000
  Fe  Fe317     1.0  0.20325  0.89970  0.71234  1.0000
  S   S629      1.0  0.19654  0.91929  0.69768  1.0000
  S   S630      1.0  0.21442  0.86358  0.73338  1.0000
  S   S631      1.0  0.22562  0.88942  0.71152  1.0000
  Fe  Fe318     1.0  0.38328  0.71494  0.71551  1.0000
  S   S632      1.0  0.36742  0.73456  0.71228  1.0000
  S   S633      1.0  0.40299  0.70810  0.70084  1.0000
  Fe  Fe319     1.0  0.36722  0.70401  0.74332  1.0000
  S   S634      1.0  0.34991  0.72237  0.74262  1.0000
  S   S635      1.0  0.36846  0.68682  0.76155  1.0000
  Fe  Fe320     1.0  0.35231  0.72094  0.72101  1.0000
  S   S636      1.0  0.33357  0.72239  0.71333  1.0000
  Fe  Fe321     1.0  0.36640  0.73450  0.73418  1.0000
  S   S637      1.0  0.36171  0.75342  0.74292  1.0000
  S   S638      1.0  0.36822  0.70134  0.72254  1.0000
  S   S639      1.0  0.38365  0.71607  0.73660  1.0000
  Fe  Fe322     1.0  0.33580  0.61266  0.73218  1.0000
  S   S640      1.0  0.32056  0.62906  0.72195  1.0000
  S   S641      1.0  0.34368  0.59148  0.72795  1.0000
  Fe  Fe323     1.0  0.34011  0.63188  0.74739  1.0000
  S   S642      1.0  0.32534  0.64982  0.73825  1.0000
  S   S643      1.0  0.35224  0.63265  0.76180  1.0000
  Fe  Fe324     1.0  0.31205  0.63470  0.74253  1.0000
  S   S644      1.0  0.28900  0.64013  0.75057  1.0000
  Fe  Fe325     1.0  0.33534  0.64223  0.71892  1.0000
  S   S645      1.0  0.34434  0.65402  0.69866  1.0000
  S   S646      1.0  0.32624  0.61714  0.75303  1.0000
  S   S647      1.0  0.35119  0.62548  0.72772  1.0000
  Fe  Fe326     1.0  0.32850  0.71126  0.62107  1.0000
  S   S648      1.0  0.30605  0.71100  0.62816  1.0000
  Fe  Fe327     1.0  0.32728  0.72758  0.64178  1.0000
  S   S649      1.0  0.30470  0.72872  0.65060  1.0000
  S   S650      1.0  0.34214  0.73450  0.64918  1.0000
  Fe  Fe328     1.0  0.30969  0.70674  0.64921  1.0000
  S   S651      1.0  0.29995  0.69170  0.66640  1.0000
  Fe  Fe329     1.0  0.30294  0.73305  0.62880  1.0000
  S   S652      1.0  0.28506  0.74750  0.62032  1.0000
  S   S653      1.0  0.33241  0.70528  0.64215  1.0000
  S   S654      1.0  0.32527  0.73369  0.61993  1.0000
  H   H1776     1.0  0.13623  0.96130  0.65715  1.0000
  Fe  Fe330     1.0  0.16294  0.92586  0.61955  1.0000
  H   H1777     1.0  0.18849  0.86640  0.59049  1.0000
  Fe  Fe331     1.0  0.14935  0.92390  0.64933  1.0000
  S   S655      1.0  0.12953  0.93795  0.64496  1.0000
  S   S656      1.0  0.15113  0.91357  0.67091  1.0000
  Fe  Fe332     1.0  0.13251  0.92654  0.62854  1.0000
  S   S657      1.0  0.11878  0.91890  0.62018  1.0000
  S   S658      1.0  0.15099  0.91127  0.63444  1.0000
  S   S659      1.0  0.16315  0.93728  0.63497  1.0000
  Fe  Fe333     1.0  0.06365  0.84836  0.66161  1.0000
  S   S660      1.0  0.04764  0.86666  0.66699  1.0000
  S   S661      1.0  0.07124  0.83146  0.67840  1.0000
  Fe  Fe334     1.0  0.06582  0.85978  0.63142  1.0000
  S   S662      1.0  0.05062  0.87940  0.63436  1.0000
  S   S663      1.0  0.07581  0.85404  0.61118  1.0000
  Fe  Fe335     1.0  0.06157  0.87856  0.65051  1.0000
  S   S664      1.0  0.06721  0.89500  0.65685  1.0000
  Fe  Fe336     1.0  0.03814  0.86563  0.65045  1.0000
  S   S665      1.0  0.01490  0.87041  0.65234  1.0000
  S   S666      1.0  0.07797  0.86026  0.64589  1.0000
  S   S667      1.0  0.05284  0.84606  0.64665  1.0000
  C   C1766     1.0  0.14494  0.98473  0.63138  1.0000
  C   C1767     1.0  0.08250  0.87912  0.60195  1.0000
  C   C1768     1.0  0.08402  0.86630  0.59927  1.0000
  C   C1769     1.0  0.15880  0.78242  0.76918  1.0000
  H   H1778     1.0  0.38402  0.66992  0.58824  1.0000
  H   H1779     1.0  0.07602  0.88167  0.61139  1.0000
  C   C1770     1.0  0.49407  0.64860  0.64967  1.0000
  C   C1771     1.0  0.10471  0.91201  0.63070  1.0000
  C   C1772     1.0  0.09838  0.90506  0.62526  1.0000
  C   C1773     1.0  0.08712  0.89949  0.63331  1.0000
  C   C1774     1.0  0.08177  0.90128  0.64671  1.0000
  C   C1775     1.0  0.08795  0.90842  0.65209  1.0000
  C   C1776     1.0  0.09953  0.91358  0.64418  1.0000
  H   H1780     1.0  0.10205  0.90410  0.61475  1.0000
  H   H1781     1.0  0.08231  0.89415  0.62903  1.0000
  H   H1782     1.0  0.08372  0.91008  0.66235  1.0000
  H   H1783     1.0  0.10422  0.91908  0.64839  1.0000
  H   H1784     1.0  0.36160  0.66742  0.64231  1.0000
  N   N146      1.0  0.01944  0.85624  0.60611  1.0000
  C   C1777     1.0  0.33277  0.84050  0.78106  1.0000
  N   N147      1.0  0.25503  0.74500  0.64944  1.0000
  C   C1778     1.0  0.46244  0.61581  0.66254  1.0000
  C   C1779     1.0  0.01297  0.84863  0.64303  1.0000
  C   C1780     1.0  0.48025  0.65039  0.65692  1.0000
  H   H1785     1.0  0.19063  0.86375  0.62999  1.0000
  C   C1781     1.0  0.46523  0.61450  0.64901  1.0000
  H   H1786     1.0  0.02361  0.84429  0.64367  1.0000
  H   H1787     1.0  0.09435  0.86461  0.70479  1.0000
  C   C1782     1.0  0.31194  0.67929  0.67474  1.0000
  C   C1783     1.0  0.30787  0.67331  0.68852  1.0000
  C   C1784     1.0  0.31777  0.66505  0.69586  1.0000
  C   C1785     1.0  0.33172  0.66284  0.68937  1.0000
  C   C1786     1.0  0.33569  0.66807  0.67540  1.0000
  C   C1787     1.0  0.32577  0.67614  0.66806  1.0000
  H   H1788     1.0  0.29715  0.67557  0.69368  1.0000
  H   H1789     1.0  0.31465  0.66089  0.70664  1.0000
  H   H1790     1.0  0.34646  0.66613  0.67033  1.0000
  H   H1791     1.0  0.32885  0.68008  0.65728  1.0000
  C   C1788     1.0  0.36298  0.67230  0.76163  1.0000
  C   C1789     1.0  0.32253  0.68103  0.59376  1.0000
  H   H1792     1.0  0.47440  0.61735  0.64200  1.0000
  C   C1790     1.0  0.35556  0.64826  0.76186  1.0000
  C   C1791     1.0  0.35148  0.66036  0.75265  1.0000
  C   C1792     1.0  0.35529  0.67238  0.75246  1.0000
  C   C1793     1.0  0.00865  0.85106  0.60387  1.0000
  H   H1793     1.0  0.10814  0.93148  0.59564  1.0000
  H   H1794     1.0  0.34561  0.66037  0.74559  1.0000
  H   H1795     1.0  0.35221  0.68171  0.74536  1.0000
  C   C1794     1.0  0.33582  0.72675  0.69550  1.0000
  C   C1795     1.0  0.34872  0.72791  0.68711  1.0000
  C   C1796     1.0  0.35049  0.73070  0.67288  1.0000
  C   C1797     1.0  0.33943  0.73205  0.66699  1.0000
  C   C1798     1.0  0.32646  0.73114  0.67539  1.0000
  C   C1799     1.0  0.32464  0.72861  0.68962  1.0000
  H   H1796     1.0  0.35734  0.72668  0.69157  1.0000
  H   H1797     1.0  0.36048  0.73171  0.66647  1.0000
  H   H1798     1.0  0.31782  0.73243  0.67094  1.0000
  H   H1799     1.0  0.31460  0.72788  0.69610  1.0000
  C   C1800     1.0  0.18397  0.91788  0.69007  1.0000
  C   C1801     1.0  0.17378  0.91077  0.69773  1.0000
  C   C1802     1.0  0.16370  0.90973  0.69170  1.0000
  C   C1803     1.0  0.16386  0.91556  0.67793  1.0000
  C   C1804     1.0  0.17395  0.92284  0.67024  1.0000
  C   C1805     1.0  0.18394  0.92408  0.67635  1.0000
  H   H1800     1.0  0.17351  0.90631  0.70842  1.0000
  H   H1801     1.0  0.15565  0.90449  0.69777  1.0000
  H   H1802     1.0  0.17407  0.92757  0.65966  1.0000
  H   H1803     1.0  0.19176  0.92969  0.67041  1.0000
  S   S668      1.0  0.14472  0.94064  0.61274  1.0000
  C   C1806     1.0  0.25351  0.90513  0.76216  1.0000
  C   C1807     1.0  0.25517  0.89115  0.76770  1.0000
  C   C1808     1.0  0.24846  0.88329  0.76388  1.0000
  C   C1809     1.0  0.23998  0.88928  0.75447  1.0000
  C   C1810     1.0  0.23811  0.90330  0.74902  1.0000
  C   C1811     1.0  0.24485  0.91120  0.75289  1.0000
  H   H1804     1.0  0.09320  0.88443  0.68734  1.0000
  H   H1805     1.0  0.24993  0.87245  0.76815  1.0000
  H   H1806     1.0  0.23156  0.90802  0.74178  1.0000
  H   H1807     1.0  0.24344  0.92204  0.74859  1.0000
  H   H1808     1.0  0.18329  0.89586  0.62946  1.0000
  N   N148      1.0  0.38501  0.57692  0.59477  1.0000
  H   H1809     1.0  0.16464  0.77655  0.76150  1.0000
  C   C1812     1.0  0.37875  0.80241  0.74333  1.0000
  H   H1810     1.0  0.37518  0.79569  0.73942  1.0000
  H   H1811     1.0  0.32359  0.58278  0.75288  1.0000
  C   C1813     1.0  0.38955  0.76662  0.76196  1.0000
  C   C1814     1.0  0.37548  0.77252  0.76365  1.0000
  C   C1815     1.0  0.36723  0.76849  0.75752  1.0000
  C   C1816     1.0  0.37284  0.75829  0.74990  1.0000
  C   C1817     1.0  0.38690  0.75225  0.74826  1.0000
  C   C1818     1.0  0.39525  0.75651  0.75417  1.0000
  H   H1812     1.0  0.37091  0.78023  0.76962  1.0000
  H   H1813     1.0  0.35636  0.77319  0.75885  1.0000
  H   H1814     1.0  0.39135  0.74443  0.74231  1.0000
  H   H1815     1.0  0.40614  0.75191  0.75276  1.0000
  C   C1819     1.0  0.10783  0.83466  0.69299  1.0000
  C   C1820     1.0  0.10148  0.82360  0.69896  1.0000
  C   C1821     1.0  0.09057  0.82246  0.69410  1.0000
  C   C1822     1.0  0.08591  0.83237  0.68329  1.0000
  C   C1823     1.0  0.09253  0.84321  0.67713  1.0000
  C   C1824     1.0  0.10350  0.84430  0.68190  1.0000
  H   H1816     1.0  0.10461  0.81618  0.70762  1.0000
  H   H1817     1.0  0.08548  0.81406  0.69895  1.0000
  H   H1818     1.0  0.08898  0.85100  0.66894  1.0000
  H   H1819     1.0  0.10836  0.85288  0.67722  1.0000
  C   C1825     1.0  0.17616  0.82911  0.73087  1.0000
  C   C1826     1.0  0.16406  0.83472  0.73940  1.0000
  C   C1827     1.0  0.16345  0.84633  0.74415  1.0000
  C   C1828     1.0  0.17484  0.85241  0.74011  1.0000
  C   C1829     1.0  0.18699  0.84639  0.73215  1.0000
  C   C1830     1.0  0.18769  0.83476  0.72763  1.0000
  H   H1820     1.0  0.15519  0.83024  0.74225  1.0000
  H   H1821     1.0  0.15405  0.85086  0.75053  1.0000
  H   H1822     1.0  0.19585  0.85084  0.72929  1.0000
  H   H1823     1.0  0.19712  0.83049  0.72123  1.0000
  C   C1831     1.0  0.12603  0.77736  0.77147  1.0000
  C   C1832     1.0  0.13430  0.76734  0.76431  1.0000
  H   H1824     1.0  0.13758  0.76994  0.75333  1.0000
  H   H1825     1.0  0.14459  0.74613  0.76576  1.0000
  H   H1826     1.0  0.08977  0.87993  0.67329  1.0000
  S   S669      1.0  0.37268  0.83691  0.78097  1.0000
  C   C1833     1.0  0.28201  0.63293  0.76760  1.0000
  C   C1834     1.0  0.26767  0.63554  0.77247  1.0000
  S   S670      1.0  0.26202  0.91521  0.76669  1.0000
  H   H1827     1.0  0.30150  0.62216  0.77263  1.0000
  H   H1828     1.0  0.19613  0.87817  0.61766  1.0000
  C   C1835     1.0  0.20437  0.84053  0.67989  1.0000
  C   C1836     1.0  0.21781  0.84108  0.67255  1.0000
  C   C1837     1.0  0.22614  0.84653  0.67728  1.0000
  C   C1838     1.0  0.22104  0.85138  0.68938  1.0000
  C   C1839     1.0  0.20770  0.85066  0.69674  1.0000
  C   C1840     1.0  0.19948  0.84505  0.69213  1.0000
  H   H1829     1.0  0.22187  0.83732  0.66327  1.0000
  H   H1830     1.0  0.23654  0.84694  0.67160  1.0000
  H   H1831     1.0  0.20386  0.85411  0.70619  1.0000
  H   H1832     1.0  0.18942  0.84395  0.69826  1.0000
  C   C1841     1.0  0.18292  0.78096  0.66227  1.0000
  C   C1842     1.0  0.17640  0.77001  0.66603  1.0000
  C   C1843     1.0  0.16777  0.76738  0.67899  1.0000
  C   C1844     1.0  0.16566  0.77568  0.68822  1.0000
  C   C1845     1.0  0.17274  0.78619  0.68468  1.0000
  C   C1846     1.0  0.18118  0.78898  0.67165  1.0000
  H   H1833     1.0  0.17779  0.76373  0.65883  1.0000
  H   H1834     1.0  0.16246  0.75911  0.68175  1.0000
  H   H1835     1.0  0.17181  0.79212  0.69197  1.0000
  H   H1836     1.0  0.18614  0.79746  0.66885  1.0000
  C   C1847     1.0  0.26072  0.78495  0.63812  1.0000
  C   C1848     1.0  0.25700  0.78191  0.62758  1.0000
  C   C1849     1.0  0.26483  0.77063  0.62192  1.0000
  C   C1850     1.0  0.27636  0.76227  0.62682  1.0000
  C   C1851     1.0  0.28020  0.76540  0.63724  1.0000
  C   C1852     1.0  0.27241  0.77674  0.64285  1.0000
  H   H1837     1.0  0.24810  0.78823  0.62378  1.0000
  H   H1838     1.0  0.26186  0.76829  0.61382  1.0000
  H   H1839     1.0  0.28916  0.75909  0.64098  1.0000
  H   H1840     1.0  0.27542  0.77911  0.65091  1.0000
  C   C1853     1.0  0.39568  0.68595  0.67228  1.0000
  C   C1854     1.0  0.40904  0.68438  0.67384  1.0000
  C   C1855     1.0  0.41138  0.69168  0.68218  1.0000
  C   C1856     1.0  0.40035  0.70041  0.68906  1.0000
  C   C1857     1.0  0.38707  0.70214  0.68723  1.0000
  C   C1858     1.0  0.38476  0.69497  0.67884  1.0000
  H   H1841     1.0  0.41752  0.67746  0.66876  1.0000
  H   H1842     1.0  0.42167  0.69032  0.68359  1.0000
  H   H1843     1.0  0.37857  0.70900  0.69234  1.0000
  H   H1844     1.0  0.37445  0.69635  0.67751  1.0000
  H   H1845     1.0  0.25615  0.73538  0.63345  1.0000
  C   C1859     1.0  0.39615  0.58461  0.64117  1.0000
  C   C1860     1.0  0.40261  0.59525  0.63322  1.0000
  C   C1861     1.0  0.40589  0.60397  0.63944  1.0000
  C   C1862     1.0  0.40308  0.60185  0.65367  1.0000
  C   C1863     1.0  0.39662  0.59122  0.66159  1.0000
  C   C1864     1.0  0.39297  0.58276  0.65538  1.0000
  H   H1846     1.0  0.40513  0.59672  0.62223  1.0000
  H   H1847     1.0  0.41088  0.61211  0.63322  1.0000
  H   H1848     1.0  0.39465  0.58936  0.67259  1.0000
  H   H1849     1.0  0.38820  0.57446  0.66158  1.0000
  C   C1865     1.0  0.08942  0.88868  0.59237  1.0000
  H   H1850     1.0  0.14129  0.98120  0.66160  1.0000
  C   C1866     1.0  0.34710  0.58234  0.60323  1.0000
  H   H1851     1.0  0.23106  0.77278  0.65759  1.0000
  H   H1852     1.0  0.34814  0.58476  0.61228  1.0000
  C   C1867     1.0  0.33553  0.58303  0.69046  1.0000
  C   C1868     1.0  0.32735  0.59426  0.69596  1.0000
  C   C1869     1.0  0.32995  0.59707  0.70728  1.0000
  C   C1870     1.0  0.34050  0.58843  0.71344  1.0000
  C   C1871     1.0  0.34860  0.57708  0.70806  1.0000
  C   C1872     1.0  0.34624  0.57447  0.69647  1.0000
  H   H1853     1.0  0.31906  0.60091  0.69131  1.0000
  H   H1854     1.0  0.32363  0.60580  0.71130  1.0000
  H   H1855     1.0  0.35674  0.57030  0.71284  1.0000
  H   H1856     1.0  0.35254  0.56574  0.69233  1.0000
  C   C1873     1.0  0.36573  0.50299  0.65725  1.0000
  C   C1874     1.0  0.36499  0.50742  0.64353  1.0000
  H   H1857     1.0  0.37402  0.57248  0.61515  1.0000
  C   C1875     1.0  0.35441  0.64515  0.61161  1.0000
  H   H1858     1.0  0.25188  0.75679  0.66426  1.0000
  C   C1876     1.0  0.45930  0.60947  0.63010  1.0000
  H   H1859     1.0  0.36498  0.51795  0.63853  1.0000
  N   N149      1.0  0.36679  0.73684  0.77981  1.0000
  H   H1860     1.0  0.33116  0.52560  0.62318  1.0000
  H   H1861     1.0  0.36740  0.83118  0.75619  1.0000
  N   N150      1.0  0.28086  0.88232  0.74343  1.0000
  C   C1877     1.0  0.27586  0.89398  0.73482  1.0000
  C   C1878     1.0  0.27794  0.87020  0.74382  1.0000
  C   C1879     1.0  0.26734  0.89378  0.72660  1.0000
  C   C1880     1.0  0.26936  0.86966  0.73581  1.0000
  C   C1881     1.0  0.26400  0.88154  0.72719  1.0000
  C   C1882     1.0  0.28964  0.88280  0.75208  1.0000
  H   H1862     1.0  0.27806  0.90362  0.73463  1.0000
  H   H1863     1.0  0.28192  0.86095  0.75062  1.0000
  H   H1864     1.0  0.26296  0.90313  0.72017  1.0000
  H   H1865     1.0  0.26650  0.86019  0.73657  1.0000
  H   H1866     1.0  0.25693  0.88133  0.72132  1.0000
  H   H1867     1.0  0.28639  0.89270  0.75539  1.0000
  H   H1868     1.0  0.28889  0.87469  0.76154  1.0000
  H   H1869     1.0  0.30056  0.88147  0.74644  1.0000
  H   H1870     1.0  0.06470  0.83985  0.71486  1.0000
  C   C1883     1.0  0.39679  0.59516  0.58376  1.0000
  H   H1871     1.0  0.41822  0.80525  0.74024  1.0000
  C   C1884     1.0  0.00571  0.84155  0.63876  1.0000
  H   H1872     1.0  0.41422  0.79366  0.75641  1.0000
  H   H1873     1.0  0.19033  0.89514  0.66828  1.0000
  H   H1874     1.0  0.22246  0.76982  0.63886  1.0000
  C   C1885     1.0  0.44459  0.60685  0.65324  1.0000
  H   H1875     1.0  0.20442  0.87149  0.66891  1.0000
  H   H1876     1.0  0.38076  0.64888  0.62256  1.0000
  C   C1886     1.0  0.19175  0.89012  0.65998  1.0000
  N   N151      1.0  0.36075  0.66199  0.62444  1.0000
  C   C1887     1.0  0.16590  0.96928  0.68021  1.0000
  C   C1888     1.0  0.34378  0.56996  0.60409  1.0000
  H   H1877     1.0  0.37481  0.56046  0.60536  1.0000
  H   H1878     1.0  0.33126  0.87372  0.78008  1.0000
  H   H1879     1.0  0.43217  0.60538  0.67373  1.0000
  C   C1889     1.0  0.16449  0.95578  0.68480  1.0000
  H   H1880     1.0  0.33188  0.52379  0.66447  1.0000
  H   H1881     1.0  0.22289  0.89987  0.77918  1.0000
  C   C1890     1.0  0.39007  0.65963  0.58836  1.0000
  C   C1891     1.0  0.36965  0.81387  0.74759  1.0000
  C   C1892     1.0  0.02640  0.87224  0.61414  1.0000
  H   H1882     1.0  0.39943  0.79036  0.74139  1.0000
  H   H1883     1.0  0.36310  0.50194  0.62575  1.0000
  H   H1884     1.0  0.37019  0.64064  0.73412  1.0000
  C   C1893     1.0  0.01610  0.86730  0.61200  1.0000
  C   C1894     1.0  0.04017  0.86595  0.61000  1.0000
  C   C1895     1.0  0.37438  0.82227  0.75277  1.0000
  C   C1896     1.0  0.39962  0.65413  0.59673  1.0000
  C   C1897     1.0  0.16692  0.90757  0.59209  1.0000
  C   C1898     1.0  0.34951  0.85751  0.78071  1.0000
  C   C1899     1.0  0.37051  0.65100  0.62069  1.0000
  H   H1885     1.0  0.26169  0.88632  0.77487  1.0000
  C   C1900     1.0  0.18791  0.89042  0.63812  1.0000
  H   H1886     1.0  0.17353  0.97260  0.68310  1.0000
  C   C1901     1.0  0.28609  0.61354  0.73888  1.0000
  H   H1887     1.0  0.48938  0.64310  0.62070  1.0000
  C   C1902     1.0  0.19966  0.87686  0.66033  1.0000
  H   H1888     1.0  0.09361  0.85315  0.58495  1.0000
  N   N152      1.0  0.15981  0.85633  0.69991  1.0000
  C   C1903     1.0  0.16856  0.86470  0.69242  1.0000
  C   C1904     1.0  0.15253  0.85788  0.71271  1.0000
  C   C1905     1.0  0.17051  0.87467  0.69790  1.0000
  C   C1906     1.0  0.15395  0.86801  0.71834  1.0000
  C   C1907     1.0  0.16323  0.87622  0.71100  1.0000
  C   C1908     1.0  0.15909  0.84490  0.69472  1.0000
  H   H1889     1.0  0.17455  0.86328  0.68238  1.0000
  H   H1890     1.0  0.14585  0.85104  0.71879  1.0000
  H   H1891     1.0  0.17781  0.88098  0.69218  1.0000
  H   H1892     1.0  0.14839  0.86912  0.72858  1.0000
  H   H1893     1.0  0.16493  0.88360  0.71561  1.0000
  H   H1894     1.0  0.14849  0.84305  0.69788  1.0000
  H   H1895     1.0  0.16203  0.84688  0.68340  1.0000
  H   H1896     1.0  0.16635  0.83555  0.69873  1.0000
  N   N153      1.0  0.37857  0.70948  0.63375  1.0000
  C   C1909     1.0  0.39006  0.69966  0.63048  1.0000
  C   C1910     1.0  0.36927  0.71451  0.62553  1.0000
  C   C1911     1.0  0.39254  0.69473  0.61864  1.0000
  C   C1912     1.0  0.37143  0.70977  0.61364  1.0000
  C   C1913     1.0  0.38310  0.69973  0.61024  1.0000
  C   C1914     1.0  0.37591  0.71447  0.64626  1.0000
  H   H1897     1.0  0.39739  0.69555  0.63703  1.0000
  H   H1898     1.0  0.36012  0.72226  0.62813  1.0000
  H   H1899     1.0  0.20754  0.86024  0.64986  1.0000
  H   H1900     1.0  0.36406  0.71385  0.60712  1.0000
  H   H1901     1.0  0.20855  0.86457  0.62493  1.0000
  H   H1902     1.0  0.36726  0.71054  0.65385  1.0000
  H   H1903     1.0  0.38505  0.71122  0.65091  1.0000
  H   H1904     1.0  0.37305  0.72581  0.64409  1.0000
  N   N154      1.0  0.33553  0.68935  0.70823  1.0000
  C   C1915     1.0  0.32202  0.69306  0.70730  1.0000
  C   C1916     1.0  0.34578  0.69067  0.69673  1.0000
  C   C1917     1.0  0.31852  0.69783  0.69457  1.0000
  C   C1918     1.0  0.34264  0.69538  0.68383  1.0000
  C   C1919     1.0  0.32892  0.69892  0.68279  1.0000
  C   C1920     1.0  0.33899  0.68469  0.72167  1.0000
  H   H1905     1.0  0.31388  0.69238  0.71642  1.0000
  H   H1906     1.0  0.35644  0.68815  0.69750  1.0000
  H   H1907     1.0  0.30783  0.70065  0.69379  1.0000
  H   H1908     1.0  0.35075  0.69641  0.67472  1.0000
  H   H1909     1.0  0.32629  0.70271  0.67289  1.0000
  H   H1910     1.0  0.33124  0.67934  0.72918  1.0000
  H   H1911     1.0  0.34914  0.67741  0.72122  1.0000
  H   H1912     1.0  0.33929  0.69360  0.72537  1.0000
  C   C1921     1.0  0.13822  0.75385  0.77136  1.0000
  C   C1922     1.0  0.36757  0.64255  0.61402  1.0000
  C   C1923     1.0  0.28559  0.60132  0.76265  1.0000
  C   C1924     1.0  0.15742  0.97851  0.67193  1.0000
  H   H1913     1.0  0.35604  0.86413  0.78036  1.0000
  H   H1914     1.0  0.05420  0.84963  0.60102  1.0000
  H   H1915     1.0  0.35894  0.81618  0.74698  1.0000
  H   H1916     1.0  0.40172  0.68705  0.61600  1.0000
  S   S671      1.0  0.13684  0.97386  0.62744  1.0000
  C   C1925     1.0  0.38816  0.81900  0.75376  1.0000
  H   H1917     1.0  0.15354  0.94120  0.68459  1.0000
  N   N155      1.0  0.14498  0.80822  0.67053  1.0000
  C   C1926     1.0  0.13487  0.80525  0.68179  1.0000
  C   C1927     1.0  0.14997  0.79994  0.66128  1.0000
  C   C1928     1.0  0.12937  0.79385  0.68394  1.0000
  C   C1929     1.0  0.14460  0.78853  0.66305  1.0000
  C   C1930     1.0  0.13429  0.78544  0.67450  1.0000
  C   C1931     1.0  0.15110  0.81983  0.66876  1.0000
  H   H1918     1.0  0.13114  0.81158  0.68930  1.0000
  H   H1919     1.0  0.15840  0.80192  0.65266  1.0000
  H   H1920     1.0  0.12159  0.79138  0.69305  1.0000
  H   H1921     1.0  0.14880  0.78183  0.65585  1.0000
  H   H1922     1.0  0.13037  0.77636  0.67626  1.0000
  H   H1923     1.0  0.16064  0.81626  0.67280  1.0000
  H   H1924     1.0  0.15375  0.82479  0.65781  1.0000
  H   H1925     1.0  0.14384  0.82770  0.67423  1.0000
  C   C1932     1.0  0.30565  0.58540  0.76930  1.0000
  H   H1926     1.0  0.39581  0.58463  0.60464  1.0000
  H   H1927     1.0  0.37708  0.72664  0.76342  1.0000
  C   C1933     1.0  0.46974  0.64960  0.65117  1.0000
  H   H1928     1.0  0.37466  0.57141  0.58271  1.0000
  H   H1929     1.0  0.19068  0.82459  0.61167  1.0000
  H   H1930     1.0  0.46876  0.60152  0.62780  1.0000
  C   C1934     1.0  0.18613  0.83351  0.60491  1.0000
  C   C1935     1.0  0.25048  0.74338  0.63899  1.0000
  H   H1931     1.0  0.33118  0.53710  0.64099  1.0000
  H   H1932     1.0  0.38220  0.66431  0.69380  1.0000
  C   C1936     1.0  0.20150  0.87061  0.64946  1.0000
  S   S672      1.0  0.46029  0.64537  0.63039  1.0000
  H   H1933     1.0  0.12624  0.84551  0.60383  1.0000
  N   N156      1.0  0.12881  0.86481  0.60511  1.0000
  C   C1937     1.0  0.12353  0.87852  0.60395  1.0000
  C   C1938     1.0  0.14090  0.85892  0.60932  1.0000
  C   C1939     1.0  0.13047  0.88673  0.60692  1.0000
  C   C1940     1.0  0.14807  0.86681  0.61244  1.0000
  C   C1941     1.0  0.14277  0.88081  0.61125  1.0000
  C   C1942     1.0  0.12177  0.85662  0.60113  1.0000
  H   H1934     1.0  0.11409  0.88324  0.60038  1.0000
  H   H1935     1.0  0.14523  0.84809  0.61000  1.0000
  H   H1936     1.0  0.12643  0.89763  0.60569  1.0000
  H   H1937     1.0  0.15781  0.86212  0.61548  1.0000
  H   H1938     1.0  0.14821  0.88711  0.61356  1.0000
  H   H1939     1.0  0.11067  0.85840  0.60628  1.0000
  C   C1943     1.0  0.32605  0.68968  0.59982  1.0000
  H   H1940     1.0  0.46090  0.61948  0.62345  1.0000
  N   N157      1.0  0.07917  0.87109  0.69272  1.0000
  C   C1944     1.0  0.08513  0.86289  0.70315  1.0000
  C   C1945     1.0  0.06796  0.86845  0.69028  1.0000
  C   C1946     1.0  0.09245  0.86305  0.58705  1.0000
  H   H1941     1.0  0.33128  0.50072  0.62920  1.0000
  H   H1942     1.0  0.07697  0.89185  0.68241  1.0000
  H   H1943     1.0  0.17404  0.98559  0.64002  1.0000
  C   C1947     1.0  0.17028  0.84413  0.58975  1.0000
  C   C1948     1.0  0.39277  0.58537  0.59527  1.0000
  C   C1949     1.0  0.33980  0.69040  0.59754  1.0000
  N   N158      1.0  0.19585  0.87749  0.63845  1.0000
  C   C1950     1.0  0.15471  0.95165  0.68083  1.0000
  N   N159      1.0  0.45625  0.61028  0.64447  1.0000
  H   H1944     1.0  0.41476  0.63650  0.60336  1.0000
  H   H1945     1.0  0.27497  0.60667  0.76552  1.0000
  C   C1951     1.0  0.41145  0.80431  0.75061  1.0000
  H   H1946     1.0  0.15857  0.80189  0.75514  1.0000
  C   C1952     1.0  0.15803  0.98021  0.63434  1.0000
  C   C1953     1.0  0.03293  0.84988  0.60223  1.0000
  C   C1954     1.0  0.18573  0.89691  0.64887  1.0000
  H   H1947     1.0  0.99815  0.85679  0.60786  1.0000
  C   C1955     1.0  0.23869  0.75225  0.63505  1.0000
  N   N160      1.0  0.33158  0.50514  0.66002  1.0000
  C   C1956     1.0  0.33138  0.51878  0.65683  1.0000
  C   C1957     1.0  0.33109  0.49877  0.65036  1.0000
  C   C1958     1.0  0.33105  0.52635  0.64358  1.0000
  H   H1948     1.0  0.04829  0.86973  0.61144  1.0000
  C   C1959     1.0  0.33095  0.51988  0.63357  1.0000
  C   C1960     1.0  0.15530  0.79663  0.76559  1.0000
  C   C1961     1.0  0.44156  0.60788  0.66689  1.0000
  C   C1962     1.0  0.33091  0.50600  0.63697  1.0000
  C   C1963     1.0  0.38072  0.56701  0.60709  1.0000
  H   H1949     1.0  0.99906  0.85340  0.67661  1.0000
  H   H1950     1.0  0.47765  0.65245  0.66705  1.0000
  H   H1951     1.0  0.33151  0.48789  0.65278  1.0000
  C   C1964     1.0  0.36677  0.66028  0.77095  1.0000
  S   S673      1.0  0.30006  0.90171  0.77207  1.0000
  N   N161      1.0  0.36039  0.60772  0.68630  1.0000
  C   C1965     1.0  0.35197  0.61991  0.68860  1.0000
  C   C1966     1.0  0.35927  0.60208  0.67637  1.0000
  C   C1967     1.0  0.34174  0.62655  0.68120  1.0000
  C   C1968     1.0  0.34916  0.60842  0.66878  1.0000
  C   C1969     1.0  0.34028  0.62068  0.67130  1.0000
  C   C1970     1.0  0.37103  0.60096  0.69419  1.0000
  H   H1952     1.0  0.35301  0.62451  0.69631  1.0000
  H   H1953     1.0  0.36594  0.59242  0.67450  1.0000
  H   H1954     1.0  0.33494  0.63610  0.68325  1.0000
  H   H1955     1.0  0.34793  0.60357  0.66134  1.0000
  H   H1956     1.0  0.33219  0.62553  0.66570  1.0000
  H   H1957     1.0  0.36723  0.60234  0.70491  1.0000
  H   H1958     1.0  0.37383  0.58977  0.69474  1.0000
  H   H1959     1.0  0.38038  0.60521  0.68939  1.0000
  H   H1960     1.0  0.17101  0.94849  0.69130  1.0000
  S   S674      1.0  0.34470  0.70040  0.60570  1.0000
  C   C1971     1.0  0.35506  0.84354  0.78130  1.0000
  C   C1972     1.0  0.08513  0.88236  0.68356  1.0000
  C   C1973     1.0  0.34223  0.56697  0.59242  1.0000
  C   C1974     1.0  0.48677  0.64517  0.63083  1.0000
  H   H1961     1.0  0.05399  0.85486  0.69596  1.0000
  C   C1975     1.0  0.26705  0.73533  0.65385  1.0000
  H   H1962     1.0  0.27345  0.74070  0.65659  1.0000
  H   H1963     1.0  0.26372  0.72741  0.66277  1.0000
  H   H1964     1.0  0.27386  0.73019  0.64556  1.0000
  H   H1965     1.0  0.35882  0.73021  0.76645  1.0000
  C   C1976     1.0  0.17581  0.83283  0.59897  1.0000
  H   H1966     1.0  0.99583  0.83145  0.67472  1.0000
  H   H1967     1.0  0.38224  0.65259  0.74298  1.0000
  C   C1977     1.0  0.33188  0.49747  0.67399  1.0000
  H   H1968     1.0  0.03558  0.84104  0.59769  1.0000
  C   C1978     1.0  0.19784  0.87069  0.62724  1.0000
  H   H1969     1.0  0.33406  0.65810  0.61423  1.0000
  C   C1979     1.0  0.14781  0.97398  0.66810  1.0000
  C   C1980     1.0  0.31286  0.58789  0.75576  1.0000
  C   C1981     1.0  0.45051  0.61249  0.67152  1.0000
  H   H1970     1.0  0.37526  0.67118  0.62768  1.0000
  H   H1971     1.0  0.01087  0.83181  0.63604  1.0000
  N   N162      1.0  0.21845  0.80494  0.69517  1.0000
  C   C1982     1.0  0.21680  0.81111  0.70568  1.0000
  C   C1983     1.0  0.22991  0.80509  0.68475  1.0000
  C   C1984     1.0  0.22677  0.81764  0.70600  1.0000
  C   C1985     1.0  0.24014  0.81145  0.68478  1.0000
  C   C1986     1.0  0.23852  0.81779  0.69548  1.0000
  C   C1987     1.0  0.20742  0.79893  0.69467  1.0000
  H   H1972     1.0  0.20763  0.81109  0.71381  1.0000
  H   H1973     1.0  0.23122  0.80040  0.67627  1.0000
  H   H1974     1.0  0.22523  0.82291  0.71413  1.0000
  H   H1975     1.0  0.24909  0.81172  0.67637  1.0000
  H   H1976     1.0  0.24611  0.82320  0.69541  1.0000
  H   H1977     1.0  0.31194  0.59907  0.73540  1.0000
  C   C1988     1.0  0.29189  0.59207  0.77278  1.0000
  C   C1989     1.0  0.11669  0.92996  0.58699  1.0000
  H   H1978     1.0  0.17230  0.82343  0.60131  1.0000
  C   C1990     1.0  0.34650  0.67373  0.58315  1.0000
  H   H1979     1.0  0.28297  0.60791  0.73304  1.0000
  C   C1991     1.0  0.37537  0.64843  0.72722  1.0000
  H   H1980     1.0  0.38987  0.56032  0.61092  1.0000
  H   H1981     1.0  0.45918  0.65103  0.65687  1.0000
  C   C1992     1.0  0.34432  0.65597  0.61609  1.0000
  H   H1982     1.0  0.15938  0.90662  0.60162  1.0000
  C   C1993     1.0  0.47295  0.64700  0.63806  1.0000
  H   H1983     1.0  0.00981  0.85183  0.59281  1.0000
  H   H1984     1.0  0.20014  0.80674  0.68896  1.0000
  S   S675      1.0  0.40143  0.66418  0.60692  1.0000
  N   N163      1.0  0.29283  0.60393  0.74944  1.0000
  H   H1985     1.0  0.35834  0.68167  0.62825  1.0000
  H   H1986     1.0  0.14438  0.81507  0.77268  1.0000
  C   C1994     1.0  0.17479  0.85626  0.58680  1.0000
  H   H1987     1.0  0.31187  0.68047  0.59561  1.0000
  S   S676      1.0  0.20484  0.84608  0.60780  1.0000
  H   H1988     1.0  0.37555  0.63420  0.61053  1.0000
  C   C1995     1.0  0.36392  0.49830  0.63629  1.0000
  H   H1989     1.0  0.39427  0.67584  0.70314  1.0000
  H   H1990     1.0  0.38827  0.73095  0.77955  1.0000
  S   S677      1.0  0.40021  0.77182  0.76930  1.0000
  H   H1991     1.0  0.08826  0.89859  0.59447  1.0000
  C   C1996     1.0  0.34769  0.66435  0.62253  1.0000
  H   H1992     1.0  0.27686  0.62072  0.74337  1.0000
  C   C1997     1.0  0.36758  0.72710  0.77164  1.0000
  C   C1998     1.0  0.39247  0.79946  0.74444  1.0000
  H   H1993     1.0  0.45072  0.60699  0.62746  1.0000
  C   C1999     1.0  0.00644  0.86128  0.64645  1.0000
  H   H1994     1.0  0.12275  0.85941  0.58990  1.0000
  H   H1995     1.0  0.39771  0.68189  0.72195  1.0000
  H   H1996     1.0  0.26105  0.64243  0.76594  1.0000
  C   C2000     1.0  0.23156  0.76279  0.64188  1.0000
  S   S678      1.0  0.18153  0.91718  0.60479  1.0000
  H   H1997     1.0  0.37267  0.66016  0.77807  1.0000
  N   N164      1.0  0.14686  0.96061  0.67222  1.0000
  H   H1998     1.0  0.17943  0.90716  0.64856  1.0000
  C   C2001     1.0  0.29046  0.62409  0.77614  1.0000
  N   N165      1.0  0.39699  0.80766  0.74968  1.0000
  H   H1999     1.0  0.40552  0.66555  0.73108  1.0000
  H   H2000     1.0  0.36751  0.71676  0.77819  1.0000
  C   C2002     1.0  0.19088  0.84554  0.60170  1.0000
  C   C2003     1.0  0.13696  0.95601  0.66782  1.0000
  H   H2001     1.0  0.33846  0.50113  0.67842  1.0000
  C   C2004     1.0  0.38880  0.66831  0.70998  1.0000
  C   C2005     1.0  0.32720  0.85443  0.78054  1.0000
  C   C2006     1.0  0.23631  0.76439  0.65248  1.0000
  C   C2007     1.0  0.04349  0.85466  0.60407  1.0000
  H   H2002     1.0  0.31812  0.69575  0.60628  1.0000
  C   C2008     1.0  0.38204  0.66176  0.70465  1.0000
  H   H2003     1.0  0.38908  0.67511  0.73880  1.0000
  H   H2004     1.0  0.33962  0.55744  0.59305  1.0000
  C   C2009     1.0  0.30623  0.59720  0.74589  1.0000
  C   C2010     1.0  0.39559  0.67226  0.72911  1.0000
  H   H2005     1.0  0.23523  0.75106  0.62663  1.0000
  H   H2006     1.0  0.41355  0.81108  0.75601  1.0000
  H   H2007     1.0  0.35203  0.63886  0.60620  1.0000
  C   C2011     1.0  0.33551  0.86293  0.78055  1.0000
  C   C2012     1.0  0.34999  0.68251  0.58908  1.0000
  N   N166      1.0  0.38856  0.66524  0.72363  1.0000
  H   H2008     1.0  0.21161  0.79005  0.68968  1.0000
  C   C2013     1.0  0.06852  0.84885  0.70893  1.0000
  C   C2014     1.0  0.06249  0.85729  0.69831  1.0000
  H   H2009     1.0  0.33989  0.67299  0.62562  1.0000
  H   H2010     1.0  0.08494  0.84490  0.71935  1.0000
  H   H2011     1.0  0.46939  0.61962  0.66592  1.0000
  H   H2012     1.0  0.20147  0.79533  0.70509  1.0000
  H   H2013     1.0  0.29312  0.61999  0.73181  1.0000
  C   C2015     1.0  0.37519  0.65183  0.71337  1.0000
  H   H2014     1.0  0.36984  0.64671  0.70939  1.0000
  C   C2016     1.0  0.24811  0.75533  0.65617  1.0000
  S   S679      1.0  0.30985  0.86091  0.77973  1.0000
  C   C2017     1.0  0.40740  0.64082  0.59691  1.0000
  C   C2018     1.0  0.07986  0.85169  0.71145  1.0000
  H   H2015     1.0  0.06344  0.87482  0.68184  1.0000
  C   C2019     1.0  0.38221  0.65524  0.73219  1.0000
  C   C2020     1.0  0.36315  0.64831  0.77101  1.0000
  H   H2016     1.0  0.02373  0.88075  0.61919  1.0000
  H   H2017     1.0  0.14017  0.94488  0.66795  1.0000
  H   H2018     1.0  0.38482  0.69578  0.60114  1.0000
  C   C2021     1.0  0.36580  0.48921  0.66351  1.0000
  H   H2019     1.0  0.41232  0.62310  0.58815  1.0000
  C   C2022     1.0  0.14736  0.80404  0.77545  1.0000
  H   H2020     1.0  0.12909  0.93963  0.59303  1.0000
  H   H2021     1.0  0.15476  0.93572  0.58277  1.0000
  H   H2022     1.0  0.32130  0.49869  0.68044  1.0000
  C   C2023     1.0  0.34882  0.59171  0.59064  1.0000
  C   C2024     1.0  0.12861  0.93452  0.58546  1.0000
  H   H2023     1.0  0.31074  0.57835  0.77708  1.0000
  C   C2025     1.0  0.17853  0.91257  0.59100  1.0000
  H   H2024     1.0  0.40285  0.60194  0.58420  1.0000
  H   H2025     1.0  0.00924  0.84023  0.60930  1.0000
  Fe  Fe337     1.0  0.27719  0.90550  0.78053  1.0000
  C   C2026     1.0  0.33276  0.67294  0.58554  1.0000
  H   H2026     1.0  0.36065  0.68300  0.58733  1.0000
  C   C2027     1.0  0.40598  0.63324  0.58831  1.0000
  H   H2027     1.0  0.32638  0.83391  0.78099  1.0000
  C   C2028     1.0  0.38103  0.57794  0.58303  1.0000
  H   H2028     1.0  0.49526  0.67973  0.65662  1.0000
  H   H2029     1.0  0.34522  0.74479  0.78143  1.0000
  C   C2029     1.0  0.34660  0.83504  0.78168  1.0000
  Fe  Fe338     1.0  0.21366  0.63748  0.82203  1.0000
  S   S680      1.0  0.20679  0.63075  0.84462  1.0000
  S   S681      1.0  0.19927  0.65463  0.81124  1.0000
  Fe  Fe339     1.0  0.24168  0.61852  0.82096  1.0000
  S   S682      1.0  0.23708  0.61051  0.84363  1.0000
  S   S683      1.0  0.26346  0.61060  0.81010  1.0000
  Fe  Fe340     1.0  0.21653  0.60969  0.84121  1.0000
  S   S684      1.0  0.20646  0.59308  0.85569  1.0000
  Fe  Fe341     1.0  0.22772  0.63221  0.84511  1.0000
  S   S685      1.0  0.23050  0.64041  0.86175  1.0000
  S   S686      1.0  0.22169  0.61608  0.81829  1.0000
  S   S687      1.0  0.23409  0.64041  0.82270  1.0000
  Fe  Fe342     1.0  0.15064  0.71322  0.84046  1.0000
  S   S688      1.0  0.13516  0.72454  0.85553  1.0000
  S   S689      1.0  0.16670  0.69646  0.84907  1.0000
  Fe  Fe343     1.0  0.13752  0.73009  0.81682  1.0000
  S   S690      1.0  0.12083  0.74258  0.83008  1.0000
  C   C2030     1.0  0.01162  0.63549  0.84132  1.0000
  Fe  Fe344     1.0  0.13792  0.74306  0.83907  1.0000
  S   S691      1.0  0.13998  0.76303  0.84134  1.0000
  Fe  Fe345     1.0  0.11986  0.72269  0.84497  1.0000
  S   S692      1.0  0.10002  0.71702  0.85747  1.0000
  S   S693      1.0  0.15475  0.73193  0.82477  1.0000
  S   S694      1.0  0.13525  0.70998  0.83100  1.0000
  Fe  Fe346     1.0  0.36591  0.79041  0.80765  1.0000
  S   S695      1.0  0.37219  0.80728  0.81219  1.0000
  S   S696      1.0  0.34605  0.78353  0.81681  1.0000
  C   C2031     1.0  0.35039  0.89992  0.79397  1.0000
  Fe  Fe347     1.0  0.39352  0.79404  0.80935  1.0000
  S   S697      1.0  0.40649  0.79212  0.82434  1.0000
  C   C2032     1.0  0.38502  0.82971  0.82829  1.0000
  S   S698      1.0  0.38662  0.77625  0.80701  1.0000
  S   S699      1.0  0.27830  0.91403  0.79781  1.0000
  S   S700      1.0  0.30379  0.88719  0.80345  1.0000
  Fe  Fe348     1.0  0.28079  0.89231  0.80954  1.0000
  S   S701      1.0  0.27095  0.88601  0.83164  1.0000
  C   C2033     1.0  0.18202  0.51278  0.87457  1.0000
  C   C2034     1.0  0.24221  0.89077  0.81561  1.0000
  Fe  Fe349     1.0  0.30361  0.79359  0.88438  1.0000
  S   S702      1.0  0.29979  0.81628  0.87715  1.0000
  S   S703      1.0  0.32517  0.78119  0.88008  1.0000
  Fe  Fe350     1.0  0.27338  0.79332  0.89634  1.0000
  S   S704      1.0  0.26695  0.81615  0.89041  1.0000
  S   S705      1.0  0.25727  0.78061  0.90630  1.0000
  Fe  Fe351     1.0  0.28192  0.81380  0.87064  1.0000
  S   S706      1.0  0.27749  0.82215  0.84979  1.0000
  Fe  Fe352     1.0  0.28540  0.81656  0.89767  1.0000
  S   S707      1.0  0.28455  0.83179  0.90994  1.0000
  S   S708      1.0  0.28707  0.79106  0.87603  1.0000
  S   S709      1.0  0.29051  0.79388  0.90546  1.0000
  Fe  Fe353     1.0  0.22276  0.71492  0.86363  1.0000
  S   S710      1.0  0.20067  0.72155  0.87371  1.0000
  S   S711      1.0  0.22767  0.70380  0.84662  1.0000
  Fe  Fe354     1.0  0.23289  0.73047  0.87838  1.0000
  S   S712      1.0  0.21159  0.73834  0.88985  1.0000
  S   S713      1.0  0.25264  0.73651  0.87722  1.0000
  Fe  Fe355     1.0  0.20862  0.71711  0.89267  1.0000
  S   S714      1.0  0.19561  0.70708  0.91185  1.0000
  Fe  Fe356     1.0  0.20534  0.74205  0.87001  1.0000
  S   S715      1.0  0.19212  0.76214  0.86217  1.0000
  S   S716      1.0  0.23059  0.70870  0.88291  1.0000
  S   S717      1.0  0.22679  0.73592  0.85825  1.0000
  C   C2035     1.0  0.00726  0.67106  0.83696  1.0000
  H   H2030     1.0  0.38061  0.83125  0.81955  1.0000
  Fe  Fe357     1.0  0.44093  0.84295  0.83774  1.0000
  S   S718      1.0  0.44871  0.82687  0.85462  1.0000
  S   S719      1.0  0.43699  0.83903  0.81901  1.0000
  Fe  Fe358     1.0  0.43830  0.86591  0.85164  1.0000
  S   S720      1.0  0.44576  0.85169  0.86982  1.0000
  S   S721      1.0  0.43190  0.88840  0.85136  1.0000
  Fe  Fe359     1.0  0.46180  0.84103  0.85440  1.0000
  N   N167      1.0  0.19269  0.71417  0.81379  1.0000
  Fe  Fe360     1.0  0.43215  0.83894  0.86850  1.0000
  S   S722      1.0  0.41677  0.82923  0.88544  1.0000
  S   S723      1.0  0.45536  0.85625  0.83621  1.0000
  S   S724      1.0  0.42339  0.85400  0.85163  1.0000
  Fe  Fe361     1.0  0.33920  0.84649  0.93864  1.0000
  S   S725      1.0  0.32288  0.85830  0.95289  1.0000
  S   S726      1.0  0.33777  0.82935  0.93007  1.0000
  Fe  Fe362     1.0  0.36011  0.86326  0.93612  1.0000
  S   S727      1.0  0.34555  0.87651  0.95008  1.0000
  S   S728      1.0  0.38104  0.86760  0.92599  1.0000
  Fe  Fe363     1.0  0.33990  0.85701  0.96321  1.0000
  Fe  Fe364     1.0  0.33010  0.87665  0.93854  1.0000
  S   S729      1.0  0.31682  0.89480  0.92751  1.0000
  S   S730      1.0  0.35574  0.84371  0.94985  1.0000
  S   S731      1.0  0.34520  0.86485  0.92369  1.0000
  Fe  Fe365     1.0  0.33414  0.94658  0.84424  1.0000
  S   S732      1.0  0.33486  0.96069  0.85695  1.0000
  S   S733      1.0  0.31482  0.94311  0.84086  1.0000
  Fe  Fe366     1.0  0.36497  0.93595  0.83815  1.0000
  S   S734      1.0  0.36877  0.94906  0.84996  1.0000
  S   S735      1.0  0.37934  0.91989  0.82710  1.0000
  Fe  Fe367     1.0  0.35042  0.94303  0.86564  1.0000
  S   S736      1.0  0.35247  0.93617  0.88753  1.0000
  Fe  Fe368     1.0  0.35308  0.96584  0.84048  1.0000
  C   C2036     1.0  0.35442  0.74508  0.78428  1.0000
  S   S737      1.0  0.34796  0.92860  0.85460  1.0000
  S   S738      1.0  0.35098  0.95315  0.82708  1.0000
  H   H2031     1.0  0.19242  0.53503  0.86605  1.0000
  Fe  Fe369     1.0  0.16314  0.64745  0.91525  1.0000
  S   S739      1.0  0.14430  0.65551  0.93013  1.0000
  S   S740      1.0  0.18057  0.65671  0.90153  1.0000
  Fe  Fe370     1.0  0.15486  0.62086  0.91819  1.0000
  S   S741      1.0  0.16408  0.60319  0.90758  1.0000
  Fe  Fe371     1.0  0.13297  0.64701  0.91985  1.0000
  S   S742      1.0  0.11430  0.65918  0.91143  1.0000
  S   S743      1.0  0.15150  0.64106  0.90390  1.0000
  S   S744      1.0  0.16790  0.62679  0.92853  1.0000
  Fe  Fe372     1.0  0.12052  0.55613  0.86112  1.0000
  S   S745      1.0  0.12197  0.54371  0.88192  1.0000
  S   S746      1.0  0.10145  0.55870  0.85386  1.0000
  Fe  Fe373     1.0  0.14954  0.56061  0.85453  1.0000
  S   S747      1.0  0.15362  0.54807  0.87480  1.0000
  S   S748      1.0  0.16380  0.57205  0.83784  1.0000
  Fe  Fe374     1.0  0.14282  0.53360  0.87145  1.0000
  S   S749      1.0  0.14922  0.51058  0.87673  1.0000
  Fe  Fe375     1.0  0.13236  0.55943  0.88309  1.0000
  S   S750      1.0  0.12469  0.57007  0.90068  1.0000
  S   S751      1.0  0.14070  0.54515  0.85042  1.0000
  S   S752      1.0  0.12900  0.57279  0.86307  1.0000
  Fe  Fe376     1.0  0.06915  0.66196  0.84728  1.0000
  S   S753      1.0  0.05861  0.65678  0.86941  1.0000
  S   S754      1.0  0.07494  0.68163  0.83484  1.0000
  Fe  Fe377     1.0  0.07289  0.63366  0.84299  1.0000
  S   S755      1.0  0.06299  0.62588  0.86461  1.0000
  S   S756      1.0  0.08071  0.62046  0.82762  1.0000
  Fe  Fe378     1.0  0.04717  0.64549  0.86208  1.0000
  S   S757      1.0  0.02441  0.64529  0.87040  1.0000
  Fe  Fe379     1.0  0.07528  0.63759  0.86995  1.0000
  S   S758      1.0  0.08832  0.62645  0.88549  1.0000
  S   S759      1.0  0.05630  0.65250  0.83995  1.0000
  S   S760      1.0  0.08657  0.64359  0.84838  1.0000
  N   N168      1.0  0.18258  0.63172  0.96740  1.0000
  C   C2037     1.0  0.14493  0.50084  0.86768  1.0000
  H   H2032     1.0  0.01686  0.67088  0.82937  1.0000
  C   C2038     1.0  0.26181  0.62906  0.78566  1.0000
  H   H2033     1.0  0.18247  0.54779  0.82667  1.0000
  C   C2039     1.0  0.13662  0.49900  0.84878  1.0000
  C   C2040     1.0  0.14065  0.50683  0.85541  1.0000
  H   H2034     1.0  0.26545  0.67080  0.80356  1.0000
  S   S761      1.0  0.13536  0.62621  0.93366  1.0000
  H   H2035     1.0  0.13310  0.50375  0.83942  1.0000
  H   H2036     1.0  0.14026  0.51752  0.85107  1.0000
  C   C2041     1.0  0.09565  0.57590  0.84671  1.0000
  C   C2042     1.0  0.09049  0.57937  0.83490  1.0000
  C   C2043     1.0  0.08604  0.59311  0.82897  1.0000
  C   C2044     1.0  0.08616  0.60336  0.83519  1.0000
  C   C2045     1.0  0.09089  0.59988  0.84725  1.0000
  C   C2046     1.0  0.09603  0.58617  0.85278  1.0000
  H   H2037     1.0  0.09020  0.57147  0.83016  1.0000
  H   H2038     1.0  0.08233  0.59581  0.81966  1.0000
  H   H2039     1.0  0.09079  0.60780  0.85213  1.0000
  H   H2040     1.0  0.09997  0.58356  0.86192  1.0000
  C   C2047     1.0  0.10706  0.65004  0.90430  1.0000
  C   C2048     1.0  0.11166  0.63593  0.90554  1.0000
  C   C2049     1.0  0.10568  0.62880  0.89993  1.0000
  C   C2050     1.0  0.09540  0.63578  0.89259  1.0000
  C   C2051     1.0  0.09089  0.64993  0.89119  1.0000
  C   C2052     1.0  0.09654  0.65698  0.89725  1.0000
  H   H2041     1.0  0.11966  0.63044  0.91105  1.0000
  H   H2042     1.0  0.10904  0.61784  0.90138  1.0000
  H   H2043     1.0  0.08281  0.65537  0.88576  1.0000
  H   H2044     1.0  0.09268  0.66783  0.89657  1.0000
  C   C2053     1.0  0.15280  0.59465  0.90519  1.0000
  C   C2054     1.0  0.13888  0.59697  0.91174  1.0000
  C   C2055     1.0  0.13027  0.58944  0.91022  1.0000
  C   C2056     1.0  0.13550  0.57978  0.90195  1.0000
  C   C2057     1.0  0.14929  0.57786  0.89496  1.0000
  C   C2058     1.0  0.15795  0.58519  0.89669  1.0000
  H   H2045     1.0  0.13484  0.60426  0.91829  1.0000
  H   H2046     1.0  0.11961  0.59099  0.91563  1.0000
  H   H2047     1.0  0.15340  0.57045  0.88855  1.0000
  H   H2048     1.0  0.16871  0.58340  0.89157  1.0000
  H   H2049     1.0  0.19291  0.55127  0.84379  1.0000
  H   H2050     1.0  0.07014  0.71416  0.82143  1.0000
  C   C2059     1.0  0.02012  0.63804  0.84841  1.0000
  C   C2060     1.0  0.01488  0.64000  0.86179  1.0000
  H   H2051     1.0  0.01566  0.63436  0.83086  1.0000
  H   H2052     1.0  0.03058  0.63888  0.84337  1.0000
  C   C2061     1.0  0.00128  0.63879  0.86817  1.0000
  H   H2053     1.0  0.27704  0.64851  0.79683  1.0000
  C   C2062     1.0  0.08970  0.73441  0.82367  1.0000
  H   H2054     1.0  0.32220  0.80620  0.81861  1.0000
  C   C2063     1.0  0.18109  0.61895  0.97733  1.0000
  C   C2064     1.0  0.26070  0.64944  0.83469  1.0000
  H   H2055     1.0  0.23196  0.87768  0.81128  1.0000
  H   H2056     1.0  0.19182  0.51072  0.87792  1.0000
  C   C2065     1.0  0.18824  0.53316  0.85845  1.0000
  H   H2057     1.0  0.22631  0.88261  0.78828  1.0000
  C   C2066     1.0  0.32662  0.90636  0.91635  1.0000
  C   C2067     1.0  0.32348  0.91327  0.90367  1.0000
  C   C2068     1.0  0.33141  0.92237  0.89466  1.0000
  C   C2069     1.0  0.34226  0.92487  0.89848  1.0000
  C   C2070     1.0  0.34523  0.91810  0.91124  1.0000
  C   C2071     1.0  0.33760  0.90870  0.92003  1.0000
  H   H2058     1.0  0.31496  0.91155  0.90078  1.0000
  H   H2059     1.0  0.32898  0.92763  0.88487  1.0000
  H   H2060     1.0  0.35348  0.92011  0.91434  1.0000
  H   H2061     1.0  0.33999  0.90355  0.92985  1.0000
  C   C2072     1.0  0.41755  0.89720  0.84420  1.0000
  C   C2073     1.0  0.41265  0.89123  0.83654  1.0000
  C   C2074     1.0  0.40098  0.89831  0.83122  1.0000
  C   C2075     1.0  0.39400  0.91126  0.83377  1.0000
  C   C2076     1.0  0.39889  0.91722  0.84142  1.0000
  C   C2077     1.0  0.41078  0.91030  0.84641  1.0000
  H   H2062     1.0  0.41801  0.88129  0.83449  1.0000
  H   H2063     1.0  0.39733  0.89373  0.82517  1.0000
  H   H2064     1.0  0.39371  0.92729  0.84322  1.0000
  H   H2065     1.0  0.41470  0.91511  0.85204  1.0000
  C   C2078     1.0  0.40696  0.83978  0.89686  1.0000
  C   C2079     1.0  0.39409  0.83752  0.90468  1.0000
  C   C2080     1.0  0.38602  0.84606  0.91364  1.0000
  C   C2081     1.0  0.39095  0.85671  0.91498  1.0000
  C   C2082     1.0  0.40394  0.85877  0.90741  1.0000
  C   C2083     1.0  0.41184  0.85044  0.89823  1.0000
  H   H2066     1.0  0.39030  0.82924  0.90372  1.0000
  H   H2067     1.0  0.37603  0.84435  0.91953  1.0000
  H   H2068     1.0  0.40781  0.86694  0.90850  1.0000
  H   H2069     1.0  0.42181  0.85215  0.89237  1.0000
  H   H2070     1.0  0.29759  0.92007  0.81595  1.0000
  N   N169      1.0  0.39756  0.82495  0.84998  1.0000
  H   H2071     1.0  0.31555  0.96987  0.82301  1.0000
  C   C2084     1.0  0.49081  0.83206  0.82357  1.0000
  H   H2072     1.0  0.30767  0.76477  0.90225  1.0000
  H   H2073     1.0  0.25803  0.62536  0.84975  1.0000
  Fe  Fe380     1.0  0.14818  0.63416  0.94292  1.0000
  C   C2085     1.0  0.17685  0.52002  0.85175  1.0000
  H   H2074     1.0  0.18445  0.64535  0.93372  1.0000
  H   H2075     1.0  0.23777  0.80174  0.88522  1.0000
  H   H2076     1.0  0.11201  0.48939  0.89018  1.0000
  H   H2077     1.0  0.27824  0.62728  0.81454  1.0000
  C   C2086     1.0  0.19140  0.69298  0.90922  1.0000
  C   C2087     1.0  0.18088  0.68716  0.91860  1.0000
  C   C2088     1.0  0.17739  0.67597  0.91638  1.0000
  C   C2089     1.0  0.18453  0.67058  0.90485  1.0000
  C   C2090     1.0  0.19496  0.67646  0.89548  1.0000
  C   C2091     1.0  0.19834  0.68768  0.89762  1.0000
  H   H2078     1.0  0.17541  0.69136  0.92752  1.0000
  H   H2079     1.0  0.16921  0.67154  0.92356  1.0000
  H   H2080     1.0  0.20048  0.67233  0.88652  1.0000
  H   H2081     1.0  0.20650  0.69207  0.89038  1.0000
  C   C2092     1.0  0.29896  0.82991  0.91673  1.0000
  C   C2093     1.0  0.29826  0.83831  0.92550  1.0000
  C   C2094     1.0  0.31004  0.83813  0.92982  1.0000
  C   C2095     1.0  0.32253  0.82930  0.92564  1.0000
  C   C2096     1.0  0.32311  0.82058  0.91727  1.0000
  C   C2097     1.0  0.31140  0.82095  0.91273  1.0000
  H   H2082     1.0  0.28864  0.84520  0.92872  1.0000
  H   H2083     1.0  0.30945  0.84483  0.93635  1.0000
  H   H2084     1.0  0.33272  0.81368  0.91405  1.0000
  H   H2085     1.0  0.31207  0.81441  0.90601  1.0000
  C   C2098     1.0  0.25578  0.76858  0.89802  1.0000
  C   C2099     1.0  0.24443  0.76238  0.90289  1.0000
  C   C2100     1.0  0.24315  0.75266  0.89651  1.0000
  C   C2101     1.0  0.25337  0.74892  0.88538  1.0000
  C   C2102     1.0  0.26476  0.75500  0.88063  1.0000
  C   C2103     1.0  0.26589  0.76487  0.88683  1.0000
  H   H2086     1.0  0.23661  0.76511  0.91162  1.0000
  H   H2087     1.0  0.23441  0.74787  0.90035  1.0000
  H   H2088     1.0  0.27274  0.75207  0.87209  1.0000
  H   H2089     1.0  0.27481  0.76926  0.88317  1.0000
  C   C2104     1.0  0.31544  0.92753  0.80347  1.0000
  C   C2105     1.0  0.32547  0.93444  0.80300  1.0000
  C   C2106     1.0  0.32549  0.93913  0.81443  1.0000
  C   C2107     1.0  0.31535  0.93709  0.82638  1.0000
  C   C2108     1.0  0.30526  0.93028  0.82681  1.0000
  C   C2109     1.0  0.30537  0.92539  0.81546  1.0000
  C   C2110     1.0  0.19017  0.71041  0.80229  1.0000
  H   H2090     1.0  0.33325  0.94445  0.81391  1.0000
  H   H2091     1.0  0.29733  0.92872  0.83599  1.0000
  C   C2111     1.0  0.27230  0.86831  0.83684  1.0000
  C   C2112     1.0  0.27276  0.86181  0.85039  1.0000
  C   C2113     1.0  0.27428  0.84760  0.85450  1.0000
  C   C2114     1.0  0.27503  0.83993  0.84511  1.0000
  C   C2115     1.0  0.27426  0.84646  0.83166  1.0000
  C   C2116     1.0  0.27302  0.86059  0.82751  1.0000
  H   H2092     1.0  0.27213  0.86775  0.85766  1.0000
  H   H2093     1.0  0.27481  0.84260  0.86493  1.0000
  H   H2094     1.0  0.27483  0.84054  0.82439  1.0000
  H   H2095     1.0  0.27247  0.86548  0.81713  1.0000
  C   C2117     1.0  0.41567  0.80477  0.82229  1.0000
  C   C2118     1.0  0.41620  0.81551  0.81085  1.0000
  C   C2119     1.0  0.42304  0.82578  0.80983  1.0000
  C   C2120     1.0  0.42918  0.82553  0.82034  1.0000
  C   C2121     1.0  0.42880  0.81471  0.83170  1.0000
  C   C2122     1.0  0.42216  0.80432  0.83261  1.0000
  H   H2096     1.0  0.41126  0.81595  0.80283  1.0000
  H   H2097     1.0  0.42335  0.83407  0.80098  1.0000
  H   H2098     1.0  0.43362  0.81433  0.83978  1.0000
  H   H2099     1.0  0.42187  0.79600  0.84144  1.0000
  C   C2123     1.0  0.18959  0.72761  0.81454  1.0000
  C   C2124     1.0  0.40418  0.82244  0.86141  1.0000
  C   C2125     1.0  0.23469  0.88755  0.80811  1.0000
  H   H2100     1.0  0.17202  0.52766  0.83184  1.0000
  C   C2126     1.0  0.34062  0.78267  0.83442  1.0000
  C   C2127     1.0  0.34949  0.78327  0.84208  1.0000
  C   C2128     1.0  0.34480  0.78261  0.85619  1.0000
  C   C2129     1.0  0.33115  0.78179  0.86251  1.0000
  C   C2130     1.0  0.32231  0.78132  0.85476  1.0000
  C   C2131     1.0  0.32711  0.78149  0.84081  1.0000
  H   H2101     1.0  0.36000  0.78405  0.83719  1.0000
  H   H2102     1.0  0.35170  0.78290  0.86216  1.0000
  H   H2103     1.0  0.31187  0.78042  0.85955  1.0000
  H   H2104     1.0  0.32032  0.78077  0.83495  1.0000
  C   C2132     1.0  0.09414  0.70564  0.85196  1.0000
  C   C2133     1.0  0.08230  0.70101  0.85978  1.0000
  C   C2134     1.0  0.07688  0.69267  0.85507  1.0000
  C   C2135     1.0  0.08322  0.68912  0.84245  1.0000
  C   C2136     1.0  0.09535  0.69328  0.83492  1.0000
  C   C2137     1.0  0.10082  0.70149  0.83968  1.0000
  H   H2105     1.0  0.07708  0.70418  0.86930  1.0000
  H   H2106     1.0  0.06741  0.68958  0.86086  1.0000
  H   H2107     1.0  0.10021  0.69061  0.82511  1.0000
  H   H2108     1.0  0.10979  0.70514  0.83348  1.0000
  C   C2138     1.0  0.15459  0.76227  0.84715  1.0000
  C   C2139     1.0  0.15724  0.77442  0.84795  1.0000
  C   C2140     1.0  0.16880  0.77421  0.85252  1.0000
  C   C2141     1.0  0.17779  0.76185  0.85641  1.0000
  C   C2142     1.0  0.17520  0.74964  0.85557  1.0000
  C   C2143     1.0  0.16362  0.74984  0.85090  1.0000
  H   H2109     1.0  0.15029  0.78404  0.84510  1.0000
  H   H2110     1.0  0.17073  0.78367  0.85315  1.0000
  H   H2111     1.0  0.18208  0.74011  0.85852  1.0000
  H   H2112     1.0  0.16161  0.74041  0.85032  1.0000
  C   C2144     1.0  0.38056  0.82560  0.96992  1.0000
  C   C2145     1.0  0.39233  0.83887  0.82881  1.0000
  H   H2113     1.0  0.39365  0.84760  0.82049  1.0000
  H   H2114     1.0  0.17211  0.51138  0.85398  1.0000
  H   H2115     1.0  0.12227  0.75784  0.80361  1.0000
  H   H2116     1.0  0.19122  0.61167  0.97692  1.0000
  C   C2146     1.0  0.19429  0.58779  0.85064  1.0000
  C   C2147     1.0  0.18637  0.57911  0.86026  1.0000
  C   C2148     1.0  0.17682  0.57442  0.85648  1.0000
  C   C2149     1.0  0.17528  0.57825  0.84298  1.0000
  C   C2150     1.0  0.18311  0.58702  0.83338  1.0000
  C   C2151     1.0  0.19253  0.59187  0.83721  1.0000
  H   H2117     1.0  0.18767  0.57597  0.87068  1.0000
  H   H2118     1.0  0.17076  0.56778  0.86399  1.0000
  H   H2119     1.0  0.18195  0.59002  0.82292  1.0000
  H   H2120     1.0  0.19862  0.59856  0.82973  1.0000
  C   C2152     1.0  0.22834  0.65825  0.85806  1.0000
  C   C2153     1.0  0.22698  0.66584  0.84506  1.0000
  C   C2154     1.0  0.22684  0.67979  0.84168  1.0000
  C   C2155     1.0  0.22757  0.68636  0.85142  1.0000
  C   C2156     1.0  0.22834  0.67892  0.86462  1.0000
  C   C2157     1.0  0.22890  0.66482  0.86788  1.0000
  H   H2121     1.0  0.22637  0.66094  0.83748  1.0000
  H   H2122     1.0  0.22621  0.68551  0.83146  1.0000
  H   H2123     1.0  0.22888  0.68393  0.87220  1.0000
  H   H2124     1.0  0.22990  0.65900  0.87799  1.0000
  C   C2158     1.0  0.19030  0.66643  0.82161  1.0000
  C   C2159     1.0  0.19425  0.66576  0.83359  1.0000
  C   C2160     1.0  0.18669  0.67476  0.84218  1.0000
  C   C2161     1.0  0.17546  0.68484  0.83856  1.0000
  C   C2162     1.0  0.17174  0.68587  0.82636  1.0000
  C   C2163     1.0  0.17910  0.67660  0.81794  1.0000
  H   H2125     1.0  0.20329  0.65848  0.83613  1.0000
  H   H2126     1.0  0.18986  0.67415  0.85142  1.0000
  H   H2127     1.0  0.11430  0.51308  0.88770  1.0000
  H   H2128     1.0  0.37864  0.86837  0.97328  1.0000
  H   H2129     1.0  0.18801  0.66286  0.96505  1.0000
  C   C2164     1.0  0.99589  0.66861  0.83412  1.0000
  C   C2165     1.0  0.37790  0.74638  0.79123  1.0000
  N   N170      1.0  0.19865  0.61959  0.87987  1.0000
  C   C2166     1.0  0.18861  0.61394  0.87891  1.0000
  C   C2167     1.0  0.19655  0.63342  0.87826  1.0000
  C   C2168     1.0  0.17632  0.62223  0.87567  1.0000
  C   C2169     1.0  0.18446  0.64201  0.87481  1.0000
  C   C2170     1.0  0.17432  0.63636  0.87346  1.0000
  C   C2171     1.0  0.21148  0.61065  0.88314  1.0000
  H   H2130     1.0  0.19005  0.60295  0.88071  1.0000
  H   H2131     1.0  0.20424  0.63792  0.87955  1.0000
  H   H2132     1.0  0.16837  0.61761  0.87516  1.0000
  H   H2133     1.0  0.18295  0.65296  0.87343  1.0000
  H   H2134     1.0  0.16481  0.64290  0.87102  1.0000
  H   H2135     1.0  0.21984  0.61632  0.88030  1.0000
  H   H2136     1.0  0.20975  0.60607  0.89422  1.0000
  H   H2137     1.0  0.21508  0.60237  0.87729  1.0000
  H   H2138     1.0  0.25158  0.90606  0.81736  1.0000
  C   C2172     1.0  0.37517  0.83673  0.97630  1.0000
  H   H2139     1.0  0.17612  0.67724  0.80860  1.0000
  C   C2173     1.0  0.49043  0.84504  0.81513  1.0000
  C   C2174     1.0  0.18254  0.63270  0.95408  1.0000
  H   H2140     1.0  0.30641  0.85940  0.83270  1.0000
  N   N171      1.0  0.09924  0.72499  0.80356  1.0000
  H   H2141     1.0  0.40451  0.84333  0.83996  1.0000
  H   H2142     1.0  0.18080  0.62429  0.95102  1.0000
  H   H2143     1.0  0.32967  0.90111  0.82528  1.0000
  H   H2144     1.0  0.08840  0.71167  0.80067  1.0000
  C   C2175     1.0  0.27245  0.64893  0.80746  1.0000
  H   H2145     1.0  0.10845  0.73783  0.80931  1.0000
  H   H2146     1.0  0.27666  0.62186  0.84510  1.0000
  N   N172      1.0  0.14667  0.78318  0.79232  1.0000
  H   H2147     1.0  0.19748  0.72396  0.84502  1.0000
  H   H2148     1.0  0.37777  0.81588  0.97487  1.0000
  C   C2176     1.0  0.38670  0.85085  0.95720  1.0000
  C   C2177     1.0  0.10263  0.52721  0.84586  1.0000
  C   C2178     1.0  0.00648  0.67295  0.84989  1.0000
  C   C2179     1.0  0.19127  0.73139  0.82577  1.0000
  N   N173      1.0  0.26675  0.63724  0.83083  1.0000
  H   H2149     1.0  0.13110  0.77972  0.81031  1.0000
  H   H2150     1.0  0.18823  0.66470  0.94075  1.0000
  C   C2180     1.0  0.28462  0.61743  0.78920  1.0000
  C   C2181     1.0  0.09989  0.73287  0.81182  1.0000
  H   H2151     1.0  0.11513  0.78150  0.79122  1.0000
  C   C2182     1.0  0.31740  0.74922  0.88373  1.0000
  C   C2183     1.0  0.36051  0.90582  0.79498  1.0000
  C   C2184     1.0  0.18852  0.54240  0.84591  1.0000
  C   C2185     1.0  0.17681  0.52917  0.83917  1.0000
  H   H2152     1.0  0.17893  0.71140  0.80361  1.0000
  H   H2153     1.0  0.38724  0.74710  0.79354  1.0000
  C   C2186     1.0  0.49450  0.85476  0.84764  1.0000
  C   C2187     1.0  0.23425  0.90919  0.79300  1.0000
  H   H2154     1.0  0.25073  0.63098  0.78927  1.0000
  H   H2155     1.0  0.32178  0.73913  0.88089  1.0000
  H   H2156     1.0  0.18023  0.50280  0.87441  1.0000
  H   H2157     1.0  0.27062  0.75017  0.92157  1.0000
  H   H2158     1.0  0.36193  0.86604  0.97349  1.0000
  C   C2188     1.0  0.48209  0.81110  0.83312  1.0000
  C   C2189     1.0  0.19741  0.70424  0.82405  1.0000
  N   N174      1.0  0.37850  0.89184  0.89129  1.0000
  C   C2190     1.0  0.38873  0.88217  0.88561  1.0000
  C   C2191     1.0  0.38095  0.90417  0.89086  1.0000
  C   C2192     1.0  0.40189  0.88465  0.87955  1.0000
  C   C2193     1.0  0.39399  0.90700  0.88489  1.0000
  C   C2194     1.0  0.40455  0.89708  0.87938  1.0000
  C   C2195     1.0  0.36485  0.88906  0.89808  1.0000
  H   H2159     1.0  0.38687  0.87234  0.88598  1.0000
  H   H2160     1.0  0.37282  0.91190  0.89520  1.0000
  H   H2161     1.0  0.41004  0.87698  0.87509  1.0000
  H   H2162     1.0  0.39586  0.91682  0.88453  1.0000
  H   H2163     1.0  0.41477  0.89905  0.87482  1.0000
  H   H2164     1.0  0.35683  0.89680  0.89327  1.0000
  H   H2165     1.0  0.36414  0.87878  0.89764  1.0000
  H   H2166     1.0  0.36264  0.88946  0.90903  1.0000
  N   N175      1.0  0.08590  0.58736  0.89601  1.0000
  C   C2196     1.0  0.09079  0.57425  0.89415  1.0000
  C   C2197     1.0  0.07537  0.59576  0.89022  1.0000
  C   C2198     1.0  0.08498  0.56917  0.88650  1.0000
  C   C2199     1.0  0.06925  0.59097  0.88258  1.0000
  C   C2200     1.0  0.07413  0.57760  0.88070  1.0000
  C   C2201     1.0  0.09255  0.59262  0.90357  1.0000
  H   H2167     1.0  0.09931  0.56767  0.89850  1.0000
  H   H2168     1.0  0.07170  0.60628  0.89139  1.0000
  H   H2169     1.0  0.08911  0.55889  0.88474  1.0000
  H   H2170     1.0  0.06095  0.59766  0.87792  1.0000
  H   H2171     1.0  0.06982  0.57392  0.87439  1.0000
  H   H2172     1.0  0.09580  0.58465  0.91228  1.0000
  H   H2173     1.0  0.10185  0.59599  0.89670  1.0000
  H   H2174     1.0  0.08556  0.60147  0.90774  1.0000
  N   N176      1.0  0.31351  0.86249  0.90205  1.0000
  C   C2202     1.0  0.31080  0.87222  0.90953  1.0000
  C   C2203     1.0  0.30311  0.86000  0.89802  1.0000
  C   C2204     1.0  0.29732  0.87942  0.91358  1.0000
  C   C2205     1.0  0.28949  0.86691  0.90201  1.0000
  C   C2206     1.0  0.28660  0.87666  0.90987  1.0000
  C   C2207     1.0  0.32772  0.85501  0.89801  1.0000
  H   H2175     1.0  0.31904  0.87435  0.91258  1.0000
  H   H2176     1.0  0.30517  0.85215  0.89227  1.0000
  H   H2177     1.0  0.29525  0.88698  0.91970  1.0000
  H   H2178     1.0  0.28122  0.86436  0.89937  1.0000
  H   H2179     1.0  0.27606  0.88197  0.91318  1.0000
  H   H2180     1.0  0.33326  0.85271  0.90637  1.0000
  H   H2181     1.0  0.32803  0.84497  0.89604  1.0000
  H   H2182     1.0  0.33323  0.86111  0.88874  1.0000
  C   C2208     1.0  0.18453  0.64457  0.94429  1.0000
  C   C2209     1.0  0.37194  0.86089  0.97642  1.0000
  H   H2183     1.0  0.25521  0.67134  0.82806  1.0000
  H   H2184     1.0  0.10216  0.52269  0.83756  1.0000
  N   N177      1.0  0.34837  0.90820  0.81773  1.0000
  C   C2210     1.0  0.35937  0.90986  0.80705  1.0000
  C   C2211     1.0  0.26016  0.66170  0.82496  1.0000
  C   C2212     1.0  0.10555  0.49388  0.87123  1.0000
  C   C2213     1.0  0.47163  0.84249  0.80733  1.0000
  H   H2185     1.0  0.33331  0.93610  0.79378  1.0000
  C   C2214     1.0  0.34734  0.91276  0.83012  1.0000
  H   H2186     1.0  0.36723  0.91452  0.80777  1.0000
  H   H2187     1.0  0.14784  0.77854  0.81313  1.0000
  C   C2215     1.0  0.22247  0.89334  0.78960  1.0000
  C   C2216     1.0  0.07824  0.71980  0.81857  1.0000
  C   C2217     1.0  0.07880  0.72785  0.82703  1.0000
  H   H2188     1.0  0.34944  0.92315  0.82739  1.0000
  H   H2189     1.0  0.33686  0.91342  0.83685  1.0000
  H   H2190     1.0  0.35503  0.90576  0.83587  1.0000
  H   H2191     1.0  0.18885  0.74204  0.82640  1.0000
  N   N178      1.0  0.18259  0.52206  0.86117  1.0000
  H   H2192     1.0  0.17372  0.61424  0.97517  1.0000
  H   H2193     1.0  0.29125  0.61034  0.79561  1.0000
  H   H2194     1.0  0.30053  0.97085  0.84580  1.0000
  H   H2195     1.0  0.36908  0.90744  0.78641  1.0000
  H   H2196     1.0  0.24538  0.88348  0.82441  1.0000
  H   H2197     1.0  0.39709  0.82747  0.86964  1.0000
  H   H2198     1.0  0.27724  0.73441  0.90561  1.0000
  C   C2218     1.0  0.14236  0.77627  0.80653  1.0000
  H   H2199     1.0  0.28586  0.76541  0.91983  1.0000
  H   H2200     1.0  0.15137  0.65508  0.96347  1.0000
  H   H2201     1.0  0.16322  0.69377  0.82338  1.0000
  C   C2219     1.0  0.27029  0.61977  0.79394  1.0000
  C   C2220     1.0  0.19877  0.70762  0.83558  1.0000
  N   N179      1.0  0.16101  0.70703  0.89187  1.0000
  C   C2221     1.0  0.16694  0.69890  0.88254  1.0000
  C   C2222     1.0  0.15129  0.70317  0.90316  1.0000
  C   C2223     1.0  0.16285  0.68676  0.88419  1.0000
  C   C2224     1.0  0.14692  0.69110  0.90509  1.0000
  C   C2225     1.0  0.15274  0.68289  0.89550  1.0000
  C   C2226     1.0  0.16562  0.71957  0.89017  1.0000
  H   H2202     1.0  0.17500  0.70167  0.87383  1.0000
  H   H2203     1.0  0.14697  0.70935  0.91080  1.0000
  H   H2204     1.0  0.16782  0.68020  0.87693  1.0000
  H   H2205     1.0  0.13930  0.68798  0.91409  1.0000
  H   H2206     1.0  0.14975  0.67331  0.89706  1.0000
  H   H2207     1.0  0.16914  0.72409  0.87921  1.0000
  H   H2208     1.0  0.15717  0.72746  0.89454  1.0000
  H   H2209     1.0  0.17426  0.71732  0.89538  1.0000
  H   H2210     1.0  0.37858  0.81082  0.83833  1.0000
  C   C2227     1.0  0.33328  0.98581  0.80871  1.0000
  H   H2211     1.0  0.38953  0.80692  0.85763  1.0000
  C   C2228     1.0  0.12569  0.76037  0.79270  1.0000
  S   S762      1.0  0.14767  0.62749  0.96576  1.0000
  H   H2212     1.0  0.48982  0.80334  0.82790  1.0000
  H   H2213     1.0  0.32549  0.75178  0.88713  1.0000
  N   N180      1.0  0.11763  0.68322  0.87048  1.0000
  C   C2229     1.0  0.11091  0.67587  0.86654  1.0000
  C   C2230     1.0  0.13098  0.68381  0.86416  1.0000
  C   C2231     1.0  0.11743  0.66917  0.85575  1.0000
  C   C2232     1.0  0.13786  0.67716  0.85340  1.0000
  C   C2233     1.0  0.13099  0.66987  0.84913  1.0000
  C   C2234     1.0  0.11070  0.69009  0.88188  1.0000
  H   H2214     1.0  0.10032  0.67539  0.87151  1.0000
  H   H2215     1.0  0.13636  0.68958  0.86732  1.0000
  H   H2216     1.0  0.11189  0.66364  0.85250  1.0000
  H   H2217     1.0  0.14840  0.67778  0.84833  1.0000
  H   H2218     1.0  0.13615  0.66482  0.84067  1.0000
  H   H2219     1.0  0.11337  0.68347  0.89148  1.0000
  H   H2220     1.0  0.11368  0.69997  0.88003  1.0000
  H   H2221     1.0  0.09932  0.69250  0.88316  1.0000
  N   N181      1.0  0.12817  0.60739  0.84717  1.0000
  C   C2235     1.0  0.14201  0.60333  0.84676  1.0000
  C   C2236     1.0  0.11911  0.61063  0.85876  1.0000
  C   C2237     1.0  0.14711  0.60276  0.85804  1.0000
  C   C2238     1.0  0.12387  0.61003  0.87024  1.0000
  C   C2239     1.0  0.13795  0.60611  0.86986  1.0000
  C   C2240     1.0  0.12298  0.60743  0.83544  1.0000
  H   H2222     1.0  0.14919  0.60039  0.83773  1.0000
  H   H2223     1.0  0.10812  0.61369  0.85924  1.0000
  H   H2224     1.0  0.15808  0.59959  0.85768  1.0000
  H   H2225     1.0  0.11668  0.61252  0.87941  1.0000
  H   H2226     1.0  0.14171  0.60559  0.87875  1.0000
  H   H2227     1.0  0.13046  0.60998  0.82570  1.0000
  H   H2228     1.0  0.12115  0.59720  0.83630  1.0000
  H   H2229     1.0  0.11316  0.61513  0.83481  1.0000
  H   H2230     1.0  0.46500  0.82367  0.81627  1.0000
  N   N182      1.0  0.23084  0.89672  0.79694  1.0000
  C   C2241     1.0  0.38384  0.81827  0.83883  1.0000
  C   C2242     1.0  0.26717  0.62448  0.84112  1.0000
  H   H2231     1.0  0.14453  0.76501  0.80778  1.0000
  C   C2243     1.0  0.47224  0.82958  0.81597  1.0000
  H   H2232     1.0  0.31515  0.75706  0.87457  1.0000
  C   C2244     1.0  0.10824  0.52026  0.86833  1.0000
  H   H2233     1.0  0.39318  0.81880  0.95172  1.0000
  N   N183      1.0  0.31009  0.82458  0.82428  1.0000
  C   C2245     1.0  0.31064  0.82512  0.83706  1.0000
  C   C2246     1.0  0.30899  0.83618  0.81429  1.0000
  C   C2247     1.0  0.30939  0.83763  0.84028  1.0000
  C   C2248     1.0  0.30784  0.84882  0.81714  1.0000
  C   C2249     1.0  0.30786  0.84957  0.83026  1.0000
  C   C2250     1.0  0.31119  0.81141  0.82118  1.0000
  H   H2234     1.0  0.31159  0.81588  0.84494  1.0000
  H   H2235     1.0  0.30877  0.83578  0.80408  1.0000
  H   H2236     1.0  0.30922  0.83808  0.85058  1.0000
  H   H2237     1.0  0.30662  0.85797  0.80925  1.0000
  H   H2238     1.0  0.18565  0.73549  0.80651  1.0000
  C   C2251     1.0  0.08869  0.71836  0.80688  1.0000
  H   H2239     1.0  0.30645  0.81264  0.81248  1.0000
  H   H2240     1.0  0.07112  0.72855  0.83645  1.0000
  C   C2252     1.0  0.39232  0.83992  0.95056  1.0000
  C   C2253     1.0  0.38918  0.82724  0.95695  1.0000
  H   H2241     1.0  0.01550  0.67410  0.85245  1.0000
  S   S763      1.0  0.27760  0.88442  0.79307  1.0000
  C   C2254     1.0  0.35351  0.75420  0.79233  1.0000
  C   C2255     1.0  0.19594  0.72128  0.83632  1.0000
  H   H2242     1.0  0.40729  0.81135  0.86568  1.0000
  H   H2243     1.0  0.30567  0.80484  0.83008  1.0000
  H   H2244     1.0  0.21156  0.89476  0.79528  1.0000
  H   H2245     1.0  0.34375  0.76088  0.79573  1.0000
  S   S764      1.0  0.48381  0.83147  0.85695  1.0000
  C   C2256     1.0  0.27296  0.63691  0.81750  1.0000
  H   H2246     1.0  0.19407  0.71707  0.79249  1.0000
  C   C2257     1.0  0.31565  0.97760  0.82812  1.0000
  Fe  Fe381     1.0  0.30127  0.90835  0.79050  1.0000
  H   H2247     1.0  0.09046  0.74030  0.83045  1.0000
  C   C2258     1.0  0.10951  0.49720  0.88143  1.0000
  H   H2248     1.0  0.17337  0.51735  0.88219  1.0000
  C   C2259     1.0  0.48074  0.85029  0.80699  1.0000
  H   H2249     1.0  0.20204  0.69969  0.84391  1.0000
  C   C2260     1.0  0.18465  0.64233  0.97135  1.0000
  C   C2261     1.0  0.14826  0.63643  0.97778  1.0000
  H   H2250     1.0  0.15428  0.66591  0.98070  1.0000
  H   H2251     1.0  0.33129  0.89374  0.80420  1.0000
  H   H2252     1.0  0.19541  0.69968  0.80159  1.0000
  H   H2253     1.0  0.41375  0.82642  0.85811  1.0000
  H   H2254     1.0  0.99717  0.64017  0.87855  1.0000
  H   H2255     1.0  0.11127  0.53260  0.84193  1.0000
  H   H2256     1.0  0.37384  0.97660  0.86453  1.0000
  C   C2262     1.0  0.18660  0.65438  0.96185  1.0000
  N   N184      1.0  0.23355  0.77847  0.87045  1.0000
  C   C2263     1.0  0.24488  0.77839  0.85991  1.0000
  C   C2264     1.0  0.23080  0.78693  0.87930  1.0000
  C   C2265     1.0  0.25391  0.78685  0.85811  1.0000
  C   C2266     1.0  0.23968  0.79543  0.87787  1.0000
  C   C2267     1.0  0.25127  0.79541  0.86717  1.0000
  C   C2268     1.0  0.22406  0.76976  0.87193  1.0000
  H   H2257     1.0  0.24711  0.77158  0.85298  1.0000
  H   H2258     1.0  0.22190  0.78690  0.88775  1.0000
  H   H2259     1.0  0.26299  0.78666  0.84986  1.0000
  H   H2260     1.0  0.25827  0.80191  0.86599  1.0000
  H   H2261     1.0  0.21660  0.77484  0.86525  1.0000
  H   H2262     1.0  0.22980  0.75982  0.86917  1.0000
  H   H2263     1.0  0.21824  0.76734  0.88264  1.0000
  H   H2264     1.0  0.10953  0.53049  0.86716  1.0000
  H   H2265     1.0  0.38885  0.86078  0.95195  1.0000
  C   C2269     1.0  0.39017  0.81605  0.84969  1.0000
  H   H2266     1.0  0.20002  0.69359  0.82345  1.0000
  H   H2267     1.0  0.10079  0.50097  0.85145  1.0000
  C   C2270     1.0  0.18271  0.54041  0.83625  1.0000
  H   H2268     1.0  0.48015  0.86044  0.80057  1.0000
  C   C2271     1.0  0.39851  0.83636  0.83984  1.0000
  H   H2269     1.0  0.23139  0.91643  0.78405  1.0000
  H   H2270     1.0  0.29896  0.73414  0.88808  1.0000
  N   N185      1.0  0.30481  0.74907  0.89448  1.0000
  C   C2272     1.0  0.30116  0.75787  0.90314  1.0000
  C   C2273     1.0  0.29636  0.74074  0.89527  1.0000
  C   C2274     1.0  0.28893  0.75823  0.91314  1.0000
  C   C2275     1.0  0.28410  0.74077  0.90521  1.0000
  C   C2276     1.0  0.28038  0.74960  0.91418  1.0000
  H   H2271     1.0  0.13689  0.80293  0.79647  1.0000
  H   H2272     1.0  0.24487  0.92243  0.79678  1.0000
  H   H2273     1.0  0.11964  0.71587  0.79479  1.0000
  C   C2277     1.0  0.33854  0.90218  0.81693  1.0000
  N   N186      1.0  0.10474  0.51682  0.85820  1.0000
  N   N187      1.0  0.48157  0.82465  0.82414  1.0000
  H   H2274     1.0  0.48453  0.86019  0.84551  1.0000
  H   H2275     1.0  0.09292  0.53489  0.84822  1.0000
  H   H2276     1.0  0.47188  0.80833  0.83610  1.0000
  H   H2277     1.0  0.25614  0.64974  0.84533  1.0000
  C   C2278     1.0  0.11080  0.51049  0.88004  1.0000
  S   S765      1.0  0.31617  0.92121  0.78913  1.0000
  N   N188      1.0  0.37832  0.84914  0.96995  1.0000
  C   C2279     1.0  0.18661  0.65545  0.94824  1.0000
  C   C2280     1.0  0.26594  0.66140  0.81124  1.0000
  C   C2281     1.0  0.24573  0.90345  0.81164  1.0000
  C   C2282     1.0  0.33942  0.89793  0.80506  1.0000
  C   C2283     1.0  0.10322  0.50387  0.85959  1.0000
  H   H2278     1.0  0.26697  0.61597  0.83670  1.0000
  C   C2284     1.0  0.14312  0.79711  0.78886  1.0000
  C   C2285     1.0  0.15063  0.64965  0.97397  1.0000
  C   C2286     1.0  0.99785  0.63484  0.84753  1.0000
  C   C2287     1.0  0.30704  0.97816  0.84101  1.0000
  C   C2288     1.0  0.24184  0.91269  0.80021  1.0000
  H   H2279     1.0  0.99658  0.66642  0.82433  1.0000
  H   H2280     1.0  0.36480  0.76202  0.80186  1.0000
  S   S766      1.0  0.13939  0.73346  0.79423  1.0000
  Fe  Fe382     1.0  0.37758  0.81434  0.78953  1.0000
  H   H2281     1.0  0.39875  0.84142  0.94033  1.0000
  Fe  Fe383     1.0  0.30047  0.88107  0.78585  1.0000
  H   H2282     1.0  0.48487  0.81085  0.84275  1.0000
  H   H2283     1.0  0.46387  0.84651  0.80124  1.0000
  H   H2284     1.0  0.33449  0.97592  0.80592  1.0000
  C   C2289     1.0  0.36534  0.75484  0.79580  1.0000
  C   C2290     1.0  0.11041  0.72309  0.79156  1.0000
  C   C2291     1.0  0.12160  0.77380  0.78565  1.0000
  Fe  Fe384     1.0  0.39047  0.78552  0.78460  1.0000
  H   H2285     1.0  0.15694  0.76476  0.78531  1.0000
  S   S767      1.0  0.39936  0.80207  0.78679  1.0000
  H   H2286     1.0  0.11334  0.73295  0.78602  1.0000
  C   C2292     1.0  0.13405  0.75036  0.78559  1.0000
  S   S768      1.0  0.36933  0.79870  0.78514  1.0000
  H   H2287     1.0  0.35087  0.89710  0.78455  1.0000
  C   C2293     1.0  0.14556  0.48686  0.87304  1.0000
  H   H2288     1.0  0.10741  0.71909  0.78424  1.0000
  N   N189      1.0  0.32423  0.98648  0.82219  1.0000
  H   H2289     1.0  0.28618  0.59033  0.78330  1.0000
  C   C2294     1.0  0.37843  0.73733  0.78326  1.0000
  C   C2295     1.0  0.15440  0.77581  0.78268  1.0000
  H   H2290     1.0  0.38556  0.98567  0.84090  1.0000
  H   H2291     1.0  0.35076  0.82429  0.78212  1.0000
  H   H2292     1.0  0.18448  0.64164  0.98195  1.0000
  Fe  Fe385     1.0  0.79148  0.26743  0.12930  1.0000
  S   S769      1.0  0.77179  0.26490  0.14452  1.0000
  S   S770      1.0  0.81315  0.25672  0.13103  1.0000
  Fe  Fe386     1.0  0.77781  0.29281  0.11171  1.0000
  S   S771      1.0  0.75676  0.29242  0.12516  1.0000
  S   S772      1.0  0.78263  0.30931  0.09304  1.0000
  Fe  Fe387     1.0  0.76739  0.28751  0.14242  1.0000
  S   S773      1.0  0.75800  0.29716  0.16070  1.0000
  Fe  Fe388     1.0  0.76247  0.26975  0.12619  1.0000
  S   S774      1.0  0.74500  0.25924  0.12933  1.0000
  S   S775      1.0  0.78792  0.28957  0.12896  1.0000
  S   S776      1.0  0.78271  0.27056  0.11096  1.0000
  Fe  Fe389     1.0  0.70304  0.19001  0.10112  1.0000
  S   S777      1.0  0.70130  0.21257  0.09368  1.0000
  S   S778      1.0  0.70408  0.17703  0.08642  1.0000
  Fe  Fe390     1.0  0.70355  0.19129  0.12953  1.0000
  S   S779      1.0  0.70142  0.21396  0.12467  1.0000
  S   S780      1.0  0.70411  0.18057  0.15113  1.0000
  Fe  Fe391     1.0  0.68594  0.21419  0.11338  1.0000
  S   S781      1.0  0.66674  0.23056  0.11252  1.0000
  Fe  Fe392     1.0  0.71711  0.21048  0.10556  1.0000
  S   S782      1.0  0.73402  0.22231  0.09601  1.0000
  S   S783      1.0  0.68639  0.19184  0.12002  1.0000
  S   S784      1.0  0.72046  0.18759  0.11121  1.0000
  H   H2293     1.0  0.74399  0.12580  0.16591  1.0000
  H   H2294     1.0  0.61154  0.99965  0.16707  1.0000
  C   C2296     1.0  0.92519  0.30006  0.11648  1.0000
  S   S785      1.0  0.88088  0.30269  0.14371  1.0000
  C   C2297     1.0  0.91133  0.33940  0.17496  1.0000
  H   H2295     1.0  0.80519  0.43866  0.18094  1.0000
  H   H2296     1.0  0.95888  0.39509  0.12210  1.0000
  H   H2297     1.0  0.82012  0.44558  0.17529  1.0000
  H   H2298     1.0  0.75565  0.33763  0.17695  1.0000
  S   S786      1.0  0.76994  0.35481  0.15393  1.0000
  H   H2299     1.0  0.90850  0.32181  0.08655  1.0000
  C   C2298     1.0  0.53920  0.10282  0.13999  1.0000
  H   H2300     1.0  0.70696  0.16031  0.17524  1.0000
  C   C2299     1.0  0.98565  0.36673  0.13186  1.0000
  H   H2301     1.0  0.82901  0.38385  0.00522  1.0000
  C   C2300     1.0  0.94778  0.38596  0.16561  1.0000
  Fe  Fe393     1.0  0.65108  0.14868  0.06786  1.0000
  S   S787      1.0  0.63451  0.14869  0.05768  1.0000
  S   S788      1.0  0.65023  0.16504  0.07878  1.0000
  Fe  Fe394     1.0  0.66567  0.11959  0.06543  1.0000
  S   S789      1.0  0.65055  0.11688  0.05523  1.0000
  S   S790      1.0  0.68442  0.10385  0.07003  1.0000
  Fe  Fe395     1.0  0.65168  0.13799  0.04283  1.0000
  S   S791      1.0  0.65565  0.14354  0.01955  1.0000
  Fe  Fe396     1.0  0.63464  0.12762  0.07075  1.0000
  S   S792      1.0  0.61685  0.11848  0.08425  1.0000
  S   S793      1.0  0.66824  0.13989  0.05203  1.0000
  S   S794      1.0  0.64987  0.12842  0.08191  1.0000
  Fe  Fe397     1.0  0.55764  0.15414  0.13394  1.0000
  S   S795      1.0  0.57056  0.14989  0.14923  1.0000
  S   S796      1.0  0.56750  0.16073  0.11190  1.0000
  Fe  Fe398     1.0  0.53161  0.14981  0.15527  1.0000
  C   C2301     1.0  0.64998  0.13434  0.98633  1.0000
  S   S797      1.0  0.50873  0.14971  0.16237  1.0000
  Fe  Fe399     1.0  0.55250  0.16273  0.16079  1.0000
  H   H2302     1.0  0.81424  0.31329  0.16848  1.0000
  Fe  Fe400     1.0  0.55981  0.13277  0.15943  1.0000
  C   C2302     1.0  0.67280  0.05375  0.17980  1.0000
  S   S798      1.0  0.54013  0.16851  0.14466  1.0000
  S   S799      1.0  0.54820  0.13580  0.14322  1.0000
  Fe  Fe401     1.0  0.64583  0.05495  0.16065  1.0000
  S   S800      1.0  0.62724  0.04697  0.16219  1.0000
  Fe  Fe402     1.0  0.65881  0.04944  0.13234  1.0000
  S   S801      1.0  0.64150  0.04108  0.13123  1.0000
  S   S802      1.0  0.67797  0.05099  0.11599  1.0000
  Fe  Fe403     1.0  0.62793  0.05863  0.14062  1.0000
  S   S803      1.0  0.61035  0.07315  0.13184  1.0000
  Fe  Fe404     1.0  0.64227  0.02988  0.15278  1.0000
  S   S804      1.0  0.64020  0.00778  0.16170  1.0000
  S   S805      1.0  0.64529  0.06781  0.13973  1.0000
  S   S806      1.0  0.66084  0.03700  0.15319  1.0000
  H   H2303     1.0  0.80956  0.30604  0.15731  1.0000
  S   S807      1.0  0.85893  0.36480  0.02956  1.0000
  C   C2303     1.0  0.52402  0.11389  0.15787  1.0000
  H   H2304     1.0  0.64304  0.99043  0.12123  1.0000
  Fe  Fe405     1.0  0.93541  0.34132  0.13801  1.0000
  S   S808      1.0  0.94550  0.35159  0.11721  1.0000
  H   H2305     1.0  0.62481  0.12917  0.10325  1.0000
  Fe  Fe406     1.0  0.92596  0.36728  0.14866  1.0000
  S   S809      1.0  0.93477  0.37988  0.12887  1.0000
  H   H2306     1.0  0.51857  0.11450  0.13916  1.0000
  Fe  Fe407     1.0  0.92624  0.36803  0.11944  1.0000
  S   S810      1.0  0.91445  0.37891  0.10297  1.0000
  Fe  Fe408     1.0  0.95334  0.36246  0.12853  1.0000
  S   S811      1.0  0.97425  0.36813  0.12139  1.0000
  S   S812      1.0  0.91561  0.35703  0.13948  1.0000
  S   S813      1.0  0.94499  0.35062  0.14912  1.0000
  Fe  Fe409     1.0  0.84525  0.38221  0.07322  1.0000
  S   S814      1.0  0.86527  0.37311  0.06048  1.0000
  S   S815      1.0  0.83825  0.40338  0.07777  1.0000
  Fe  Fe410     1.0  0.83489  0.35587  0.08117  1.0000
  S   S816      1.0  0.85416  0.34448  0.06919  1.0000
  S   S817      1.0  0.81846  0.34733  0.09798  1.0000
  Fe  Fe411     1.0  0.86537  0.35472  0.07770  1.0000
  S   S818      1.0  0.88254  0.34293  0.08862  1.0000
  Fe  Fe412     1.0  0.85245  0.36372  0.05267  1.0000
  S   S819      1.0  0.84634  0.36457  0.09085  1.0000
  S   S820      1.0  0.83226  0.37443  0.06425  1.0000
  Fe  Fe413     1.0  0.86122  0.43890  0.12119  1.0000
  S   S821      1.0  0.85329  0.42717  0.14194  1.0000
  S   S822      1.0  0.87183  0.42574  0.10561  1.0000
  Fe  Fe414     1.0  0.85205  0.46607  0.13059  1.0000
  S   S823      1.0  0.84295  0.45624  0.15190  1.0000
  Fe  Fe415     1.0  0.86226  0.43992  0.14956  1.0000
  S   S824      1.0  0.87205  0.43059  0.16751  1.0000
  Fe  Fe416     1.0  0.83474  0.44437  0.14218  1.0000
  S   S825      1.0  0.81330  0.44039  0.15042  1.0000
  S   S826      1.0  0.87206  0.45035  0.12884  1.0000
  S   S827      1.0  0.84208  0.45555  0.12085  1.0000
  H   H2307     1.0  0.82548  0.34872  0.01524  1.0000
  C   C2304     1.0  0.84679  0.40825  0.08751  1.0000
  C   C2305     1.0  0.85970  0.40076  0.08981  1.0000
  C   C2306     1.0  0.86713  0.40601  0.09582  1.0000
  C   C2307     1.0  0.86149  0.41845  0.10005  1.0000
  C   C2308     1.0  0.84816  0.42540  0.09868  1.0000
  C   C2309     1.0  0.84095  0.42045  0.09217  1.0000
  H   H2308     1.0  0.86426  0.39133  0.08630  1.0000
  H   H2309     1.0  0.87740  0.40054  0.09702  1.0000
  H   H2310     1.0  0.84372  0.43500  0.10191  1.0000
  H   H2311     1.0  0.83097  0.42632  0.09041  1.0000
  H   H2312     1.0  0.85831  0.42654  0.05809  1.0000
  C   C2310     1.0  0.49838  0.14630  0.15331  1.0000
  C   C2311     1.0  0.98319  0.36053  0.14573  1.0000
  C   C2312     1.0  0.63764  0.12982  0.99114  1.0000
  H   H2313     1.0  0.97425  0.35611  0.15028  1.0000
  S   S828      1.0  0.81257  0.37782  0.16742  1.0000
  C   C2313     1.0  0.89919  0.39734  0.15518  1.0000
  C   C2314     1.0  0.88934  0.40978  0.15510  1.0000
  C   C2315     1.0  0.88434  0.41519  0.16691  1.0000
  S   S829      1.0  0.64705  0.06736  0.17483  1.0000
  C   C2316     1.0  0.60956  0.99464  0.14910  1.0000
  H   H2314     1.0  0.90320  0.39324  0.14604  1.0000
  H   H2315     1.0  0.88578  0.41529  0.14589  1.0000
  C   C2317     1.0  0.65635  0.17344  0.99314  1.0000
  H   H2316     1.0  0.49938  0.13801  0.12361  1.0000
  C   C2318     1.0  0.90614  0.36872  0.09855  1.0000
  C   C2319     1.0  0.89716  0.37475  0.08967  1.0000
  C   C2320     1.0  0.88989  0.36691  0.08653  1.0000
  C   C2321     1.0  0.89151  0.35300  0.09238  1.0000
  C   C2322     1.0  0.90029  0.34703  0.10150  1.0000
  C   C2323     1.0  0.90781  0.35481  0.10436  1.0000
  H   H2317     1.0  0.89581  0.38551  0.08529  1.0000
  H   H2318     1.0  0.88309  0.37162  0.07956  1.0000
  H   H2319     1.0  0.90112  0.33647  0.10658  1.0000
  H   H2320     1.0  0.91474  0.35012  0.11122  1.0000
  H   H2321     1.0  0.86746  0.44420  0.07907  1.0000
  S   S830      1.0  0.83577  0.34853  0.98674  1.0000
  H   H2322     1.0  0.84281  0.43090  0.17613  1.0000
  H   H2323     1.0  0.88996  0.42913  0.07541  1.0000
  S   S831      1.0  0.62170  0.23334  0.16743  1.0000
  S   S832      1.0  0.86438  0.27044  0.16595  1.0000
  H   H2324     1.0  0.94357  0.40701  0.12832  1.0000
  H   H2325     1.0  0.86862  0.45081  0.06096  1.0000
  Fe  Fe417     1.0  0.77236  0.35923  0.17291  1.0000
  H   H2326     1.0  0.51448  0.14305  0.13559  1.0000
  C   C2324     1.0  0.58230  0.10214  0.15916  1.0000
  C   C2325     1.0  0.59193  0.09096  0.16432  1.0000
  C   C2326     1.0  0.60062  0.08207  0.15596  1.0000
  C   C2327     1.0  0.59947  0.08412  0.14249  1.0000
  C   C2328     1.0  0.58974  0.09526  0.13735  1.0000
  C   C2329     1.0  0.58130  0.10438  0.14560  1.0000
  H   H2327     1.0  0.55913  0.09175  0.14398  1.0000
  H   H2328     1.0  0.60813  0.07358  0.16002  1.0000
  H   H2329     1.0  0.58883  0.09690  0.12693  1.0000
  H   H2330     1.0  0.57398  0.11304  0.14148  1.0000
  H   H2331     1.0  0.63274  0.16603  0.00707  1.0000
  C   C2330     1.0  0.83504  0.38641  0.99495  1.0000
  C   C2331     1.0  0.65581  0.13769  0.99534  1.0000
  C   C2332     1.0  0.64936  0.13669  0.00924  1.0000
  C   C2333     1.0  0.63727  0.13175  0.01415  1.0000
  C   C2334     1.0  0.63147  0.12831  0.00514  1.0000
  C   C2335     1.0  0.61111  0.11651  0.13584  1.0000
  H   H2332     1.0  0.74797  0.10189  0.17436  1.0000
  H   H2333     1.0  0.63213  0.13099  0.02479  1.0000
  H   H2334     1.0  0.62197  0.12476  0.00898  1.0000
  C   C2336     1.0  0.68218  0.08997  0.08377  1.0000
  C   C2337     1.0  0.66946  0.08932  0.09290  1.0000
  C   C2338     1.0  0.66810  0.07766  0.10340  1.0000
  C   C2339     1.0  0.67939  0.06659  0.10451  1.0000
  C   C2340     1.0  0.69209  0.06747  0.09555  1.0000
  C   C2341     1.0  0.69351  0.07913  0.08530  1.0000
  H   H2335     1.0  0.66065  0.09767  0.09175  1.0000
  H   H2336     1.0  0.65823  0.07704  0.11026  1.0000
  H   H2337     1.0  0.70084  0.05896  0.09635  1.0000
  H   H2338     1.0  0.70336  0.07958  0.07829  1.0000
  C   C2342     1.0  0.60278  0.13020  0.09157  1.0000
  C   C2343     1.0  0.59323  0.12547  0.10317  1.0000
  C   C2344     1.0  0.58252  0.13476  0.10971  1.0000
  C   C2345     1.0  0.58107  0.14879  0.10438  1.0000
  C   C2346     1.0  0.59051  0.15346  0.09270  1.0000
  C   C2347     1.0  0.60145  0.14421  0.08643  1.0000
  H   H2339     1.0  0.59422  0.11464  0.10718  1.0000
  H   H2340     1.0  0.57523  0.13108  0.11868  1.0000
  H   H2341     1.0  0.58939  0.16430  0.08852  1.0000
  H   H2342     1.0  0.60870  0.14797  0.07750  1.0000
  C   C2348     1.0  0.78778  0.29857  0.17450  1.0000
  C   C2349     1.0  0.67013  0.17578  0.16553  1.0000
  C   C2350     1.0  0.64278  0.99808  0.13857  1.0000
  C   C2351     1.0  0.64234  0.99497  0.15256  1.0000
  H   H2343     1.0  0.92440  0.29489  0.15747  1.0000
  S   S833      1.0  0.77244  0.38056  0.17345  1.0000
  C   C2352     1.0  0.99231  0.36008  0.15374  1.0000
  H   H2344     1.0  0.64269  0.00843  0.13286  1.0000
  H   H2345     1.0  0.81561  0.37425  0.99602  1.0000
  C   C2353     1.0  0.56971  0.17752  0.17593  1.0000
  C   C2354     1.0  0.81187  0.39536  0.16184  1.0000
  C   C2355     1.0  0.83804  0.42224  0.17865  1.0000
  S   S834      1.0  0.57148  0.11302  0.16992  1.0000
  C   C2356     1.0  0.81230  0.42321  0.15381  1.0000
  C   C2357     1.0  0.82350  0.41356  0.14867  1.0000
  C   C2358     1.0  0.82337  0.39966  0.15280  1.0000
  C   C2359     1.0  0.89868  0.39571  0.17889  1.0000
  C   C2360     1.0  0.84752  0.39010  0.99314  1.0000
  H   H2346     1.0  0.83224  0.41682  0.14149  1.0000
  N   N190      1.0  0.61852  0.11676  0.12274  1.0000
  H   H2347     1.0  0.90365  0.40690  0.07025  1.0000
  C   C2361     1.0  0.86059  0.35910  0.00482  1.0000
  C   C2362     1.0  0.85566  0.35574  0.99509  1.0000
  C   C2363     1.0  0.62473  0.10393  0.11804  1.0000
  H   H2348     1.0  0.61127  0.00432  0.14256  1.0000
  C   C2364     1.0  0.89529  0.30761  0.14494  1.0000
  H   H2349     1.0  0.87672  0.34588  0.17864  1.0000
  S   S835      1.0  0.54261  0.14518  0.17236  1.0000
  C   C2365     1.0  0.91952  0.31487  0.14480  1.0000
  C   C2366     1.0  0.90993  0.32403  0.13766  1.0000
  C   C2367     1.0  0.89792  0.32035  0.13760  1.0000
  H   H2350     1.0  0.93596  0.39355  0.15019  1.0000
  C   C2368     1.0  0.97128  0.38864  0.15847  1.0000
  H   H2351     1.0  0.91198  0.33377  0.13185  1.0000
  H   H2352     1.0  0.89072  0.32730  0.13173  1.0000
  H   H2353     1.0  0.83408  0.35494  0.03223  1.0000
  H   H2354     1.0  0.89446  0.39428  0.05896  1.0000
  C   C2369     1.0  0.68906  0.17348  0.08463  1.0000
  C   C2370     1.0  0.67672  0.17535  0.09437  1.0000
  C   C2371     1.0  0.66497  0.17233  0.09267  1.0000
  C   C2372     1.0  0.66549  0.16738  0.08126  1.0000
  C   C2373     1.0  0.67790  0.16527  0.07165  1.0000
  C   C2374     1.0  0.68963  0.16836  0.07332  1.0000
  H   H2355     1.0  0.67620  0.17916  0.10318  1.0000
  H   H2356     1.0  0.65538  0.17400  0.10012  1.0000
  H   H2357     1.0  0.67837  0.16159  0.06275  1.0000
  H   H2358     1.0  0.69916  0.16688  0.06575  1.0000
  C   C2375     1.0  0.65459  0.23086  0.12805  1.0000
  C   C2376     1.0  0.64276  0.24135  0.12847  1.0000
  C   C2377     1.0  0.63281  0.24196  0.14062  1.0000
  C   C2378     1.0  0.63451  0.23201  0.15243  1.0000
  C   C2379     1.0  0.64635  0.22144  0.15207  1.0000
  C   C2380     1.0  0.65643  0.22088  0.13986  1.0000
  H   H2359     1.0  0.64129  0.24908  0.11938  1.0000
  H   H2360     1.0  0.62370  0.25014  0.14085  1.0000
  H   H2361     1.0  0.64781  0.21381  0.16122  1.0000
  H   H2362     1.0  0.66561  0.21279  0.13962  1.0000
  C   C2381     1.0  0.71028  0.16293  0.15351  1.0000
  C   C2382     1.0  0.71014  0.15522  0.16677  1.0000
  C   C2383     1.0  0.71369  0.14097  0.16913  1.0000
  C   C2384     1.0  0.71780  0.13439  0.15818  1.0000
  C   C2385     1.0  0.71832  0.14211  0.14486  1.0000
  C   C2386     1.0  0.71441  0.15639  0.14253  1.0000
  H   H2363     1.0  0.67512  0.17712  0.15450  1.0000
  C   C2387     1.0  0.81769  0.38160  0.98613  1.0000
  C   C2388     1.0  0.96914  0.39466  0.14530  1.0000
  H   H2364     1.0  0.71449  0.16232  0.13227  1.0000
  C   C2389     1.0  0.79273  0.31988  0.09421  1.0000
  C   C2390     1.0  0.80014  0.32705  0.08234  1.0000
  C   C2391     1.0  0.80812  0.33559  0.08324  1.0000
  C   C2392     1.0  0.80848  0.33714  0.09602  1.0000
  C   C2393     1.0  0.80082  0.33022  0.10781  1.0000
  C   C2394     1.0  0.79304  0.32161  0.10691  1.0000
  H   H2365     1.0  0.79979  0.32592  0.07245  1.0000
  H   H2366     1.0  0.81394  0.34098  0.07407  1.0000
  H   H2367     1.0  0.80098  0.33144  0.11773  1.0000
  H   H2368     1.0  0.78695  0.31664  0.11604  1.0000
  C   C2395     1.0  0.76212  0.31277  0.15912  1.0000
  C   C2396     1.0  0.75699  0.31957  0.16996  1.0000
  C   C2397     1.0  0.75994  0.33224  0.16869  1.0000
  C   C2398     1.0  0.76788  0.33817  0.15650  1.0000
  C   C2399     1.0  0.77335  0.33117  0.14582  1.0000
  C   C2400     1.0  0.77040  0.31852  0.14712  1.0000
  Fe  Fe418     1.0  0.84408  0.28052  0.17739  1.0000
  H   H2369     1.0  0.59907  0.15063  0.13405  1.0000
  H   H2370     1.0  0.77952  0.33573  0.13639  1.0000
  H   H2371     1.0  0.77425  0.31340  0.13872  1.0000
  C   C2401     1.0  0.81653  0.26156  0.14440  1.0000
  C   C2402     1.0  0.80575  0.26477  0.15531  1.0000
  C   C2403     1.0  0.80807  0.26957  0.16556  1.0000
  C   C2404     1.0  0.82103  0.27175  0.16471  1.0000
  C   C2405     1.0  0.83191  0.26845  0.15386  1.0000
  C   C2406     1.0  0.82970  0.26318  0.14378  1.0000
  H   H2372     1.0  0.79562  0.26338  0.15596  1.0000
  H   H2373     1.0  0.51413  0.12008  0.16177  1.0000
  H   H2374     1.0  0.54131  0.10045  0.13001  1.0000
  H   H2375     1.0  0.83807  0.26071  0.13534  1.0000
  C   C2407     1.0  0.74403  0.24748  0.12040  1.0000
  C   C2408     1.0  0.73493  0.23871  0.12681  1.0000
  C   C2409     1.0  0.73224  0.23054  0.11958  1.0000
  C   C2410     1.0  0.73855  0.23112  0.10581  1.0000
  C   C2411     1.0  0.74799  0.23959  0.09947  1.0000
  C   C2412     1.0  0.75075  0.24774  0.10674  1.0000
  H   H2376     1.0  0.72979  0.23835  0.13740  1.0000
  H   H2377     1.0  0.72512  0.22394  0.12464  1.0000
  H   H2378     1.0  0.75296  0.24006  0.08882  1.0000
  H   H2379     1.0  0.75773  0.25450  0.10167  1.0000
  C   C2413     1.0  0.54919  0.09796  0.14781  1.0000
  H   H2380     1.0  0.98135  0.38702  0.16061  1.0000
  C   C2414     1.0  0.80025  0.40503  0.16635  1.0000
  H   H2381     1.0  0.78849  0.29750  0.16426  1.0000
  H   H2382     1.0  0.84197  0.27005  0.15317  1.0000
  C   C2415     1.0  0.92627  0.31664  0.09524  1.0000
  H   H2383     1.0  0.93151  0.32378  0.08729  1.0000
  C   C2416     1.0  0.50374  0.14324  0.14038  1.0000
  H   H2384     1.0  0.66500  0.16434  0.99381  1.0000
  H   H2385     1.0  0.55419  0.09746  0.16657  1.0000
  H   H2386     1.0  0.88011  0.31615  0.17054  1.0000
  H   H2387     1.0  0.61256  0.15086  0.11031  1.0000
  H   H2388     1.0  0.66000  0.18307  0.16660  1.0000
  C   C2417     1.0  0.53130  0.11299  0.17857  1.0000
  H   H2389     1.0  0.70279  0.09105  0.15094  1.0000
  C   C2418     1.0  0.60971  0.99200  0.16289  1.0000
  S   S836      1.0  0.91604  0.37480  0.16797  1.0000
  N   N191      1.0  0.53404  0.10944  0.16527  1.0000
  H   H2390     1.0  0.92960  0.29422  0.12517  1.0000
  C   C2419     1.0  0.54637  0.10128  0.16056  1.0000
  H   H2391     1.0  0.86323  0.47958  0.14826  1.0000
  H   H2392     1.0  0.90661  0.29251  0.12405  1.0000
  H   H2393     1.0  0.58057  0.15857  0.16988  1.0000
  S   S837      1.0  0.82289  0.27924  0.17707  1.0000
  C   C2420     1.0  0.52647  0.11073  0.14510  1.0000
  H   H2394     1.0  0.66525  0.14134  0.99144  1.0000
  N   N192      1.0  0.64603  0.17083  0.98758  1.0000
  H   H2395     1.0  0.68672  0.12943  0.17021  1.0000
  C   C2421     1.0  0.80048  0.41898  0.16232  1.0000
  H   H2396     1.0  0.61043  0.10688  0.14297  1.0000
  N   N193      1.0  0.70030  0.13158  0.07759  1.0000
  C   C2422     1.0  0.70874  0.13627  0.08240  1.0000
  C   C2423     1.0  0.68713  0.13119  0.08477  1.0000
  C   C2424     1.0  0.70392  0.14105  0.09454  1.0000
  C   C2425     1.0  0.68195  0.13596  0.09690  1.0000
  C   C2426     1.0  0.69042  0.14094  0.10178  1.0000
  C   C2427     1.0  0.70552  0.12641  0.06497  1.0000
  H   H2397     1.0  0.71917  0.13662  0.07673  1.0000
  H   H2398     1.0  0.68047  0.12740  0.08100  1.0000
  H   H2399     1.0  0.71044  0.14533  0.09801  1.0000
  H   H2400     1.0  0.67133  0.13612  0.10225  1.0000
  H   H2401     1.0  0.68643  0.14509  0.11093  1.0000
  H   H2402     1.0  0.71412  0.13100  0.05812  1.0000
  H   H2403     1.0  0.70908  0.11513  0.06743  1.0000
  H   H2404     1.0  0.69729  0.12888  0.05918  1.0000
  N   N194      1.0  0.70572  0.26159  0.11838  1.0000
  C   C2428     1.0  0.71293  0.25906  0.10585  1.0000
  C   C2429     1.0  0.69387  0.25703  0.12461  1.0000
  C   C2430     1.0  0.70822  0.25190  0.09918  1.0000
  C   C2431     1.0  0.68879  0.24996  0.11816  1.0000
  C   C2432     1.0  0.69602  0.24741  0.10536  1.0000
  C   C2433     1.0  0.71074  0.26899  0.12541  1.0000
  H   H2405     1.0  0.72262  0.26217  0.10112  1.0000
  H   H2406     1.0  0.68833  0.25874  0.13467  1.0000
  H   H2407     1.0  0.71425  0.24943  0.08950  1.0000
  H   H2408     1.0  0.67943  0.24624  0.12315  1.0000
  H   H2409     1.0  0.69234  0.24171  0.10038  1.0000
  H   H2410     1.0  0.71388  0.26207  0.13472  1.0000
  H   H2411     1.0  0.71995  0.27286  0.11893  1.0000
  H   H2412     1.0  0.70264  0.27784  0.12831  1.0000
  N   N195      1.0  0.82326  0.29175  0.09975  1.0000
  C   C2434     1.0  0.82361  0.29053  0.11303  1.0000
  C   C2435     1.0  0.82815  0.30192  0.08980  1.0000
  C   C2436     1.0  0.82924  0.29943  0.11662  1.0000
  C   C2437     1.0  0.83396  0.31094  0.09300  1.0000
  C   C2438     1.0  0.83441  0.30973  0.10651  1.0000
  C   C2439     1.0  0.81686  0.28261  0.09631  1.0000
  H   H2413     1.0  0.81944  0.28270  0.12095  1.0000
  H   H2414     1.0  0.82735  0.30326  0.07936  1.0000
  H   H2415     1.0  0.82944  0.29839  0.12720  1.0000
  H   H2416     1.0  0.83760  0.31917  0.08513  1.0000
  H   H2417     1.0  0.83849  0.31696  0.10914  1.0000
  H   H2418     1.0  0.81826  0.27238  0.10324  1.0000
  H   H2419     1.0  0.80567  0.28700  0.09724  1.0000
  H   H2420     1.0  0.82146  0.28106  0.08574  1.0000
  N   N196      1.0  0.74634  0.33490  0.12967  1.0000
  C   C2440     1.0  0.75254  0.33172  0.11719  1.0000
  C   C2441     1.0  0.74810  0.34619  0.13268  1.0000
  C   C2442     1.0  0.76107  0.33970  0.10749  1.0000
  C   C2443     1.0  0.75681  0.35423  0.12332  1.0000
  C   C2444     1.0  0.76340  0.35088  0.11068  1.0000
  C   C2445     1.0  0.73747  0.32635  0.13969  1.0000
  H   H2421     1.0  0.75108  0.32285  0.11470  1.0000
  H   H2422     1.0  0.74329  0.34871  0.14260  1.0000
  H   H2423     1.0  0.76608  0.33701  0.09767  1.0000
  H   H2424     1.0  0.75871  0.36275  0.12607  1.0000
  H   H2425     1.0  0.77042  0.35682  0.10341  1.0000
  H   H2426     1.0  0.73616  0.32768  0.15022  1.0000
  H   H2427     1.0  0.72721  0.32886  0.13717  1.0000
  H   H2428     1.0  0.74217  0.31536  0.13986  1.0000
  N   N197      1.0  0.86864  0.37205  0.12509  1.0000
  C   C2446     1.0  0.85842  0.38359  0.12579  1.0000
  C   C2447     1.0  0.88133  0.37165  0.12691  1.0000
  C   C2448     1.0  0.86080  0.39508  0.12843  1.0000
  C   C2449     1.0  0.88415  0.38308  0.12921  1.0000
  C   C2450     1.0  0.87382  0.39486  0.12995  1.0000
  C   C2451     1.0  0.86606  0.36040  0.12166  1.0000
  H   H2429     1.0  0.84846  0.38406  0.12401  1.0000
  H   H2430     1.0  0.88948  0.36258  0.12630  1.0000
  H   H2431     1.0  0.85284  0.40435  0.12857  1.0000
  H   H2432     1.0  0.89442  0.38296  0.12997  1.0000
  H   H2433     1.0  0.87602  0.40394  0.13127  1.0000
  H   H2434     1.0  0.85617  0.35791  0.12802  1.0000
  H   H2435     1.0  0.86563  0.36282  0.11071  1.0000
  H   H2436     1.0  0.87432  0.35109  0.12334  1.0000
  H   H2437     1.0  0.96003  0.41138  0.12399  1.0000
  H   H2438     1.0  0.62802  0.09551  0.12642  1.0000
  H   H2439     1.0  0.74069  0.14889  0.16984  1.0000
  C   C2452     1.0  0.94593  0.39225  0.15240  1.0000
  C   C2453     1.0  0.90384  0.39033  0.16713  1.0000
  C   C2454     1.0  0.60408  0.12865  0.14017  1.0000
  C   C2455     1.0  0.84018  0.35511  0.02196  1.0000
  C   C2456     1.0  0.67873  0.15119  0.16702  1.0000
  H   H2440     1.0  0.79166  0.42645  0.16613  1.0000
  C   C2457     1.0  0.93218  0.30900  0.10622  1.0000
  C   C2458     1.0  0.91694  0.30208  0.15204  1.0000
  H   H2441     1.0  0.68771  0.08960  0.16469  1.0000
  C   C2459     1.0  0.86560  0.44258  0.06968  1.0000
  N   N198      1.0  0.65333  0.20935  0.09267  1.0000
  C   C2460     1.0  0.64687  0.20494  0.08543  1.0000
  C   C2461     1.0  0.66673  0.21052  0.08766  1.0000
  C   C2462     1.0  0.65396  0.20128  0.07297  1.0000
  C   C2463     1.0  0.67414  0.20690  0.07528  1.0000
  C   C2464     1.0  0.66770  0.20220  0.06793  1.0000
  C   C2465     1.0  0.64590  0.21316  0.10573  1.0000
  H   H2442     1.0  0.63628  0.20391  0.08937  1.0000
  H   H2443     1.0  0.67183  0.21405  0.09337  1.0000
  H   H2444     1.0  0.64898  0.19722  0.06755  1.0000
  H   H2445     1.0  0.68494  0.20732  0.07165  1.0000
  H   H2446     1.0  0.67346  0.19892  0.05855  1.0000
  H   H2447     1.0  0.64353  0.22443  0.10448  1.0000
  H   H2448     1.0  0.63612  0.20957  0.10984  1.0000
  H   H2449     1.0  0.65231  0.20860  0.11349  1.0000
  C   C2466     1.0  0.60469  0.14110  0.13098  1.0000
  N   N199      1.0  0.69596  0.07269  0.15493  1.0000
  C   C2467     1.0  0.70547  0.06057  0.15578  1.0000
  C   C2468     1.0  0.68505  0.07459  0.14914  1.0000
  C   C2469     1.0  0.70412  0.04993  0.15081  1.0000
  C   C2470     1.0  0.68348  0.06421  0.14397  1.0000
  C   C2471     1.0  0.69308  0.05182  0.14481  1.0000
  C   C2472     1.0  0.69778  0.08396  0.15965  1.0000
  H   H2450     1.0  0.71394  0.05895  0.16066  1.0000
  H   H2451     1.0  0.67737  0.08408  0.14868  1.0000
  H   H2452     1.0  0.71150  0.04024  0.15175  1.0000
  H   H2453     1.0  0.67482  0.06570  0.13942  1.0000
  H   H2454     1.0  0.69186  0.04369  0.14089  1.0000
  H   H2455     1.0  0.70427  0.08017  0.16737  1.0000
  C   C2473     1.0  0.64293  0.98786  0.13201  1.0000
  H   H2456     1.0  0.89544  0.35773  0.17550  1.0000
  N   N200      1.0  0.65773  0.06707  0.08247  1.0000
  C   C2474     1.0  0.65000  0.06153  0.09459  1.0000
  C   C2475     1.0  0.65228  0.07921  0.07478  1.0000
  C   C2476     1.0  0.63654  0.06835  0.09943  1.0000
  C   C2477     1.0  0.63882  0.08623  0.07928  1.0000
  C   C2478     1.0  0.63095  0.08080  0.09172  1.0000
  C   C2479     1.0  0.67173  0.05973  0.07736  1.0000
  H   H2457     1.0  0.65433  0.05191  0.10072  1.0000
  H   H2458     1.0  0.65839  0.08360  0.06515  1.0000
  H   H2459     1.0  0.63045  0.06402  0.10909  1.0000
  H   H2460     1.0  0.63449  0.09583  0.07315  1.0000
  H   H2461     1.0  0.62051  0.08622  0.09536  1.0000
  H   H2462     1.0  0.67618  0.05231  0.08577  1.0000
  H   H2463     1.0  0.67165  0.05414  0.06975  1.0000
  H   H2464     1.0  0.67869  0.06696  0.07255  1.0000
  N   N201      1.0  0.80481  0.37815  0.13034  1.0000
  C   C2480     1.0  0.81068  0.37656  0.11724  1.0000
  C   C2481     1.0  0.80303  0.39037  0.13376  1.0000
  C   C2482     1.0  0.81469  0.38749  0.10711  1.0000
  C   C2483     1.0  0.80711  0.40146  0.12394  1.0000
  C   C2484     1.0  0.81291  0.40000  0.11051  1.0000
  C   C2485     1.0  0.80103  0.36655  0.14097  1.0000
  H   H2465     1.0  0.81223  0.36683  0.11453  1.0000
  H   H2466     1.0  0.79840  0.39158  0.14417  1.0000
  H   H2467     1.0  0.81916  0.38627  0.09667  1.0000
  H   H2468     1.0  0.80574  0.41112  0.12675  1.0000
  H   H2469     1.0  0.81600  0.40852  0.10271  1.0000
  H   H2470     1.0  0.80926  0.36182  0.14681  1.0000
  H   H2471     1.0  0.79129  0.36994  0.14818  1.0000
  H   H2472     1.0  0.79923  0.35872  0.13665  1.0000
  H   H2473     1.0  0.88497  0.31455  0.11157  1.0000
  C   C2486     1.0  0.58091  0.16643  0.17463  1.0000
  Fe  Fe419     1.0  0.87085  0.29006  0.16324  1.0000
  H   H2474     1.0  0.88963  0.29688  0.11037  1.0000
  H   H2475     1.0  0.94206  0.31013  0.10690  1.0000
  S   S838      1.0  0.72240  0.11657  0.16098  1.0000
  N   N202      1.0  0.90633  0.30691  0.10516  1.0000
  H   H2476     1.0  0.83226  0.39221  0.14909  1.0000
  C   C2487     1.0  0.91328  0.31542  0.09484  1.0000
  H   H2477     1.0  0.68714  0.15331  0.15850  1.0000
  C   C2488     1.0  0.91219  0.29914  0.11579  1.0000
  S   S839      1.0  0.55427  0.17833  0.17131  1.0000
  C   C2489     1.0  0.90350  0.31896  0.17754  1.0000
  H   H2478     1.0  0.86169  0.35604  0.98478  1.0000
  C   C2490     1.0  0.61927  0.12893  0.11373  1.0000
  C   C2491     1.0  0.83530  0.35164  0.01227  1.0000
  H   H2479     1.0  0.85435  0.44333  0.07153  1.0000
  C   C2492     1.0  0.85282  0.35898  0.01826  1.0000
  H   H2480     1.0  0.87158  0.40422  0.05295  1.0000
  H   H2481     1.0  0.63387  0.10491  0.10953  1.0000
  H   H2482     1.0  0.79978  0.27155  0.17418  1.0000
  H   H2483     1.0  0.61704  0.10106  0.11438  1.0000
  H   H2484     1.0  0.72157  0.13705  0.13636  1.0000
  C   C2493     1.0  0.90475  0.29853  0.15228  1.0000
  S   S840      1.0  0.84984  0.30064  0.17282  1.0000
  H   H2485     1.0  0.87041  0.36201  0.00184  1.0000
  N   N203      1.0  0.87347  0.42924  0.06684  1.0000
  C   C2494     1.0  0.88606  0.42388  0.07013  1.0000
  C   C2495     1.0  0.86840  0.42244  0.06050  1.0000
  C   C2496     1.0  0.89384  0.41129  0.06726  1.0000
  C   C2497     1.0  0.87587  0.40979  0.05754  1.0000
  C   C2498     1.0  0.88867  0.40420  0.06096  1.0000
  C   C2499     1.0  0.89204  0.30707  0.10553  1.0000
  H   H2486     1.0  0.61609  0.16010  0.99791  1.0000
  C   C2500     1.0  0.84292  0.35207  0.99874  1.0000
  N   N204      1.0  0.95653  0.39660  0.14247  1.0000
  C   C2501     1.0  0.96054  0.38417  0.16864  1.0000
  S   S841      1.0  0.93490  0.31900  0.14464  1.0000
  C   C2502     1.0  0.84645  0.40929  0.17794  1.0000
  C   C2503     1.0  0.95463  0.40284  0.12855  1.0000
  C   C2504     1.0  0.61235  0.14127  0.11768  1.0000
  H   H2487     1.0  0.90294  0.28855  0.15773  1.0000
  H   H2488     1.0  0.59795  0.12834  0.15050  1.0000
  H   H2489     1.0  0.88995  0.31009  0.09511  1.0000
  C   C2505     1.0  0.62495  0.16369  0.99104  1.0000
  C   C2506     1.0  0.88903  0.40811  0.17876  1.0000
  H   H2490     1.0  0.91959  0.34453  0.17347  1.0000
  C   C2507     1.0  0.80528  0.31230  0.16522  1.0000
  C   C2508     1.0  0.67844  0.13764  0.17354  1.0000
  C   C2509     1.0  0.89775  0.34681  0.17607  1.0000
  N   N205      1.0  0.83084  0.38541  0.98401  1.0000
  H   H2491     1.0  0.65199  0.17540  0.00361  1.0000
  H   H2492     1.0  0.79126  0.40176  0.17321  1.0000
  H   H2493     1.0  0.59278  0.08918  0.17479  1.0000
  H   H2494     1.0  0.97773  0.39753  0.13730  1.0000
  H   H2495     1.0  0.92483  0.31959  0.17449  1.0000
  H   H2496     1.0  0.85756  0.40802  0.17484  1.0000
  H   H2497     1.0  0.66038  0.18243  0.98661  1.0000
  H   H2498     1.0  0.79965  0.32255  0.16079  1.0000
  H   H2499     1.0  0.67662  0.17856  0.17079  1.0000
  H   H2500     1.0  0.85107  0.39027  0.00194  1.0000
  C   C2510     1.0  0.63442  0.16708  0.99614  1.0000
  C   C2511     1.0  0.88724  0.34006  0.17783  1.0000
  N   N206      1.0  0.66873  0.16167  0.17152  1.0000
  C   C2512     1.0  0.91426  0.32539  0.17567  1.0000
  H   H2501     1.0  0.84682  0.38800  0.18052  1.0000
  H   H2502     1.0  0.99029  0.35533  0.16447  1.0000
  S   S842      1.0  0.79331  0.35007  0.17721  1.0000
  H   H2503     1.0  0.67181  0.04560  0.17584  1.0000
  H   H2504     1.0  0.96217  0.37917  0.17880  1.0000
  H   H2505     1.0  0.93936  0.38240  0.17338  1.0000
  N   N207      1.0  0.89021  0.32629  0.17858  1.0000
  Fe  Fe420     1.0  0.79290  0.37107  0.17899  1.0000
  N   N208      1.0  0.79594  0.30562  0.17678  1.0000
  H   H2506     1.0  0.90585  0.30806  0.17802  1.0000
  H   H2507     1.0  0.80918  0.39080  0.98591  1.0000
  H   H2508     1.0  0.52433  0.12325  0.17866  1.0000
  C   C2513     1.0  0.84044  0.39808  0.18118  1.0000
  C   C2514     1.0  0.74549  0.14004  0.17657  1.0000
  H   H2509     1.0  0.75060  0.31511  0.17930  1.0000
  C   C2515     1.0  0.74729  0.12693  0.17445  1.0000
  H   H2510     1.0  0.76576  0.09848  0.17537  1.0000
  H   H2511     1.0  0.71326  0.13513  0.17941  1.0000
  C   C2516     1.0  0.87925  0.31928  0.18015  1.0000
  C   C2517     1.0  0.59229  0.16517  0.18010  1.0000
  H   H2512     1.0  0.60069  0.15632  0.17946  1.0000
  C   C2518     1.0  0.66215  0.06538  0.18051  1.0000
  H   H2513     1.0  0.54098  0.11342  0.18093  1.0000
  C   C2519     1.0  0.75497  0.10203  0.18067  1.0000
  Fe  Fe421     1.0  0.77129  0.12360  0.25945  1.0000
  S   S843      1.0  0.79067  0.10754  0.26210  1.0000
  S   S844      1.0  0.75607  0.12710  0.24601  1.0000
  Fe  Fe422     1.0  0.77485  0.13938  0.27831  1.0000
  S   S845      1.0  0.79429  0.12492  0.28243  1.0000
  S   S846      1.0  0.76759  0.15805  0.28742  1.0000
  Fe  Fe423     1.0  0.80023  0.12503  0.26023  1.0000
  S   S847      1.0  0.82293  0.12439  0.25233  1.0000
  Fe  Fe424     1.0  0.78360  0.10845  0.28432  1.0000
  S   S848      1.0  0.78770  0.08934  0.30056  1.0000
  S   S849      1.0  0.78165  0.14111  0.25570  1.0000
  S   S850      1.0  0.76334  0.12296  0.28202  1.0000
  C   C2520     1.0  0.50982  0.32895  0.36634  1.0000
  S   S851      1.0  0.71553  0.11291  0.20155  1.0000
  H   H2514     1.0  0.87079  0.01471  0.32703  1.0000
  Fe  Fe425     1.0  0.70563  0.08060  0.19821  1.0000
  S   S852      1.0  0.70448  0.08473  0.21861  1.0000
  C   C2521     1.0  0.88198  0.99379  0.32759  1.0000
  Fe  Fe426     1.0  0.69540  0.10640  0.20954  1.0000
  S   S853      1.0  0.67703  0.11817  0.22209  1.0000
  Fe  Fe427     1.0  0.72472  0.09103  0.20926  1.0000
  S   S854      1.0  0.74220  0.08515  0.22031  1.0000
  H   H2515     1.0  0.59637  0.13121  0.21928  1.0000
  S   S855      1.0  0.72685  0.08473  0.18968  1.0000
  Fe  Fe428     1.0  0.87040  0.19825  0.26578  1.0000
  S   S856      1.0  0.87531  0.18221  0.25358  1.0000
  S   S857      1.0  0.87115  0.22037  0.25710  1.0000
  Fe  Fe429     1.0  0.86252  0.17851  0.29279  1.0000
  S   S858      1.0  0.86611  0.16107  0.28266  1.0000
  S   S859      1.0  0.85753  0.17364  0.31572  1.0000
  Fe  Fe430     1.0  0.88518  0.16852  0.27064  1.0000
  S   S860      1.0  0.90584  0.15411  0.26754  1.0000
  Fe  Fe431     1.0  0.85577  0.17644  0.26682  1.0000
  S   S861      1.0  0.83794  0.17699  0.25818  1.0000
  S   S862      1.0  0.88212  0.18514  0.28158  1.0000
  S   S863      1.0  0.85034  0.19328  0.27816  1.0000
  S   S864      1.0  0.84966  0.27371  0.19781  1.0000
  H   H2516     1.0  0.72205  0.19075  0.37063  1.0000
  H   H2517     1.0  0.67591  0.46648  0.35981  1.0000
  S   S865      1.0  0.88087  0.24300  0.19323  1.0000
  C   C2522     1.0  0.66569  0.47284  0.34304  1.0000
  S   S866      1.0  0.85227  0.30852  0.20490  1.0000
  Fe  Fe432     1.0  0.61191  0.28502  0.28521  1.0000
  S   S867      1.0  0.62032  0.26229  0.28776  1.0000
  S   S868      1.0  0.59080  0.29436  0.29613  1.0000
  Fe  Fe433     1.0  0.63881  0.29208  0.26859  1.0000
  S   S869      1.0  0.64945  0.27018  0.26970  1.0000
  S   S870      1.0  0.65119  0.30816  0.25850  1.0000
  Fe  Fe434     1.0  0.63037  0.26741  0.26545  1.0000
  S   S871      1.0  0.63607  0.25472  0.24927  1.0000
  Fe  Fe435     1.0  0.63863  0.26692  0.29166  1.0000
  S   S872      1.0  0.65116  0.25463  0.30722  1.0000
  S   S873      1.0  0.62051  0.28988  0.26255  1.0000
  S   S874      1.0  0.62947  0.28903  0.29087  1.0000
  Fe  Fe436     1.0  0.64126  0.19189  0.20044  1.0000
  S   S875      1.0  0.63400  0.21412  0.20087  1.0000
  S   S876      1.0  0.66365  0.18183  0.19927  1.0000
  Fe  Fe437     1.0  0.61350  0.18878  0.19882  1.0000
  S   S877      1.0  0.60358  0.21074  0.19958  1.0000
  S   S878      1.0  0.90653  0.12126  0.36203  1.0000
  H   H2518     1.0  0.51806  0.38430  0.32012  1.0000
  Fe  Fe438     1.0  0.61534  0.20809  0.21570  1.0000
  S   S879      1.0  0.60526  0.21783  0.23415  1.0000
  C   C2523     1.0  0.51522  0.35146  0.33547  1.0000
  S   S880      1.0  0.62342  0.18555  0.21648  1.0000
  Fe  Fe439     1.0  0.78616  0.18554  0.35111  1.0000
  S   S881      1.0  0.76511  0.18352  0.35150  1.0000
  S   S882      1.0  0.79565  0.20141  0.33518  1.0000
  Fe  Fe440     1.0  0.77346  0.16106  0.35695  1.0000
  S   S883      1.0  0.76996  0.14435  0.34953  1.0000
  S   S884      1.0  0.79497  0.16309  0.35403  1.0000
  Fe  Fe441     1.0  0.67209  0.28630  0.35347  1.0000
  S   S885      1.0  0.69397  0.28629  0.34236  1.0000
  S   S886      1.0  0.65458  0.29339  0.34270  1.0000
  C   C2524     1.0  0.85882  0.98938  0.32262  1.0000
  Fe  Fe442     1.0  0.69477  0.29577  0.35885  1.0000
  S   S887      1.0  0.70634  0.31162  0.35688  1.0000
  Fe  Fe443     1.0  0.69892  0.26629  0.35695  1.0000
  C   C2525     1.0  0.62821  0.25627  0.20061  1.0000
  S   S888      1.0  0.87889  0.28361  0.18240  1.0000
  S   S889      1.0  0.78411  0.36708  0.20154  1.0000
  S   S890      1.0  0.74743  0.38732  0.20958  1.0000
  Fe  Fe444     1.0  0.78254  0.34699  0.19914  1.0000
  S   S891      1.0  0.78763  0.32773  0.21436  1.0000
  H   H2519     1.0  0.65514  0.08470  0.18667  1.0000
  Fe  Fe445     1.0  0.66714  0.35584  0.29094  1.0000
  S   S892      1.0  0.67173  0.36698  0.30412  1.0000
  S   S893      1.0  0.65137  0.34291  0.29933  1.0000
  Fe  Fe446     1.0  0.68581  0.36822  0.26518  1.0000
  S   S894      1.0  0.69179  0.38087  0.27594  1.0000
  S   S895      1.0  0.69351  0.36592  0.24328  1.0000
  Fe  Fe447     1.0  0.69349  0.36185  0.29235  1.0000
  S   S896      1.0  0.71217  0.35484  0.30120  1.0000
  Fe  Fe448     1.0  0.66949  0.38501  0.28675  1.0000
  S   S897      1.0  0.65582  0.40525  0.29037  1.0000
  S   S898      1.0  0.68918  0.34885  0.28091  1.0000
  S   S899      1.0  0.66325  0.37418  0.27436  1.0000
  Fe  Fe449     1.0  0.60755  0.44823  0.36039  1.0000
  S   S900      1.0  0.62200  0.43034  0.36994  1.0000
  S   S901      1.0  0.58702  0.44457  0.36077  1.0000
  Fe  Fe450     1.0  0.62672  0.46755  0.35495  1.0000
  S   S902      1.0  0.64283  0.45105  0.36392  1.0000
  Fe  Fe451     1.0  0.63838  0.43778  0.35274  1.0000
  S   S903      1.0  0.65590  0.42186  0.34429  1.0000
  H   H2520     1.0  0.62988  0.48627  0.37358  1.0000
  S   S904      1.0  0.62373  0.45470  0.34214  1.0000
  C   C2526     1.0  0.49570  0.36235  0.35077  1.0000
  Fe  Fe452     1.0  0.57955  0.35539  0.33061  1.0000
  H   H2521     1.0  0.78014  0.21469  0.35733  1.0000
  S   S905      1.0  0.59222  0.34868  0.31122  1.0000
  Fe  Fe453     1.0  0.57741  0.38082  0.34091  1.0000
  S   S906      1.0  0.58939  0.39748  0.33209  1.0000
  S   S907      1.0  0.59271  0.36096  0.34100  1.0000
  S   S908      1.0  0.56482  0.37579  0.32929  1.0000
  H   H2522     1.0  0.89082  0.99561  0.32989  1.0000
  H   H2523     1.0  0.60327  0.14218  0.20357  1.0000
  H   H2524     1.0  0.89300  0.06516  0.36908  1.0000
  Fe  Fe454     1.0  0.94060  0.14647  0.32737  1.0000
  S   S909      1.0  0.94533  0.12454  0.33827  1.0000
  S   S910      1.0  0.94612  0.15117  0.30447  1.0000
  Fe  Fe455     1.0  0.92519  0.13048  0.35274  1.0000
  Fe  Fe456     1.0  0.71588  0.10619  0.18277  1.0000
  Fe  Fe457     1.0  0.95498  0.13228  0.35080  1.0000
  S   S911      1.0  0.97555  0.12201  0.35674  1.0000
  S   S912      1.0  0.91986  0.15192  0.34092  1.0000
  S   S913      1.0  0.95158  0.15375  0.33886  1.0000
  Fe  Fe458     1.0  0.84015  0.07892  0.34639  1.0000
  S   S914      1.0  0.85956  0.06604  0.33620  1.0000
  S   S915      1.0  0.82473  0.09576  0.33634  1.0000
  Fe  Fe459     1.0  0.87026  0.07378  0.34762  1.0000
  S   S916      1.0  0.89097  0.07942  0.33813  1.0000
  C   C2527     1.0  0.90534  0.20715  0.26412  1.0000
  H   H2525     1.0  0.54788  0.15428  0.19566  1.0000
  C   C2528     1.0  0.85360  0.01476  0.35596  1.0000
  H   H2526     1.0  0.60044  0.25900  0.22694  1.0000
  C   C2529     1.0  0.83433  0.00830  0.35218  1.0000
  C   C2530     1.0  0.84056  0.01843  0.35292  1.0000
  H   H2527     1.0  0.82434  0.01125  0.34961  1.0000
  H   H2528     1.0  0.83541  0.02907  0.35088  1.0000
  H   H2529     1.0  0.58898  0.23678  0.21286  1.0000
  H   H2530     1.0  0.64905  0.14355  0.19769  1.0000
  H   H2531     1.0  0.67848  0.43553  0.33870  1.0000
  H   H2532     1.0  0.75002  0.20841  0.35575  1.0000
  H   H2533     1.0  0.53522  0.35365  0.33604  1.0000
  C   C2531     1.0  0.90228  0.11061  0.35411  1.0000
  C   C2532     1.0  0.88867  0.10906  0.35751  1.0000
  C   C2533     1.0  0.88505  0.09969  0.35247  1.0000
  C   C2534     1.0  0.89501  0.09195  0.34381  1.0000
  C   C2535     1.0  0.90855  0.09391  0.33994  1.0000
  C   C2536     1.0  0.91222  0.10319  0.34514  1.0000
  H   H2534     1.0  0.85032  0.24507  0.19835  1.0000
  H   H2535     1.0  0.87458  0.09841  0.35538  1.0000
  H   H2536     1.0  0.91630  0.08796  0.33320  1.0000
  H   H2537     1.0  0.92276  0.10432  0.34247  1.0000
  C   C2537     1.0  0.58801  0.43090  0.35343  1.0000
  C   C2538     1.0  0.57710  0.42413  0.35743  1.0000
  C   C2539     1.0  0.57761  0.41345  0.35137  1.0000
  C   C2540     1.0  0.58881  0.40987  0.34091  1.0000
  C   C2541     1.0  0.59968  0.41668  0.33689  1.0000
  C   C2542     1.0  0.59943  0.42694  0.34334  1.0000
  H   H2538     1.0  0.56814  0.42727  0.36508  1.0000
  H   H2539     1.0  0.56913  0.40835  0.35441  1.0000
  H   H2540     1.0  0.60828  0.41409  0.32869  1.0000
  H   H2541     1.0  0.62989  0.24714  0.18380  1.0000
  C   C2543     1.0  0.65583  0.40975  0.30543  1.0000
  C   C2544     1.0  0.66554  0.40234  0.31322  1.0000
  C   C2545     1.0  0.66539  0.40610  0.32519  1.0000
  C   C2546     1.0  0.65542  0.41715  0.32953  1.0000
  C   C2547     1.0  0.64551  0.42440  0.32191  1.0000
  C   C2548     1.0  0.64582  0.42078  0.30980  1.0000
  H   H2542     1.0  0.67336  0.39388  0.30987  1.0000
  H   H2543     1.0  0.67310  0.40048  0.33104  1.0000
  H   H2544     1.0  0.63774  0.43289  0.32521  1.0000
  H   H2545     1.0  0.63830  0.42656  0.30378  1.0000
  C   C2549     1.0  0.73243  0.38134  0.21876  1.0000
  C   C2550     1.0  0.72763  0.37253  0.21412  1.0000
  C   C2551     1.0  0.71552  0.36809  0.22156  1.0000
  C   C2552     1.0  0.70829  0.37220  0.23382  1.0000
  C   C2553     1.0  0.71314  0.38095  0.23848  1.0000
  C   C2554     1.0  0.72510  0.38559  0.23091  1.0000
  H   H2546     1.0  0.73304  0.36942  0.20463  1.0000
  H   H2547     1.0  0.71179  0.36140  0.21785  1.0000
  H   H2548     1.0  0.70760  0.38431  0.24781  1.0000
  H   H2549     1.0  0.72868  0.39250  0.23450  1.0000
  C   C2555     1.0  0.71018  0.34274  0.31658  1.0000
  C   C2556     1.0  0.71957  0.34004  0.32483  1.0000
  C   C2557     1.0  0.71822  0.33053  0.33722  1.0000
  C   C2558     1.0  0.70765  0.32342  0.34127  1.0000
  C   C2559     1.0  0.69826  0.32598  0.33299  1.0000
  C   C2560     1.0  0.69944  0.33576  0.32067  1.0000
  H   H2550     1.0  0.72785  0.34543  0.32170  1.0000
  H   H2551     1.0  0.72547  0.32860  0.34360  1.0000
  H   H2552     1.0  0.68998  0.32061  0.33623  1.0000
  H   H2553     1.0  0.69214  0.33789  0.31432  1.0000
  H   H2554     1.0  0.80661  0.08692  0.36375  1.0000
  S   S917      1.0  0.60568  0.17169  0.19589  1.0000
  H   H2555     1.0  0.85002  0.01065  0.32265  1.0000
  H   H2556     1.0  0.67000  0.44127  0.31867  1.0000
  H   H2557     1.0  0.65597  0.47597  0.32645  1.0000
  N   N209      1.0  0.49952  0.39443  0.33178  1.0000
  H   H2558     1.0  0.58574  0.24488  0.22669  1.0000
  C   C2561     1.0  0.66253  0.46865  0.33284  1.0000
  C   C2562     1.0  0.59070  0.30968  0.30023  1.0000
  C   C2563     1.0  0.58103  0.31422  0.31139  1.0000
  C   C2564     1.0  0.58126  0.32626  0.31489  1.0000
  C   C2565     1.0  0.59104  0.33385  0.30708  1.0000
  C   C2566     1.0  0.60050  0.32945  0.29579  1.0000
  C   C2567     1.0  0.60037  0.31738  0.29241  1.0000
  H   H2559     1.0  0.57350  0.30831  0.31742  1.0000
  H   H2560     1.0  0.57388  0.32964  0.32357  1.0000
  H   H2561     1.0  0.60803  0.33532  0.28970  1.0000
  H   H2562     1.0  0.60763  0.31408  0.28364  1.0000
  C   C2568     1.0  0.65130  0.31770  0.26993  1.0000
  C   C2569     1.0  0.66257  0.32343  0.26800  1.0000
  C   C2570     1.0  0.66256  0.33142  0.27685  1.0000
  C   C2571     1.0  0.65129  0.33364  0.28768  1.0000
  C   C2572     1.0  0.63997  0.32802  0.28954  1.0000
  C   C2573     1.0  0.63994  0.32014  0.28063  1.0000
  H   H2563     1.0  0.67134  0.32168  0.25966  1.0000
  H   H2564     1.0  0.67133  0.33573  0.27531  1.0000
  H   H2565     1.0  0.63115  0.32983  0.29780  1.0000
  H   H2566     1.0  0.63099  0.31622  0.28187  1.0000
  C   C2574     1.0  0.65131  0.26425  0.31867  1.0000
  C   C2575     1.0  0.64046  0.27532  0.32137  1.0000
  C   C2576     1.0  0.64140  0.28400  0.32907  1.0000
  C   C2577     1.0  0.65308  0.28151  0.33436  1.0000
  C   C2578     1.0  0.66365  0.27004  0.33230  1.0000
  C   C2579     1.0  0.66274  0.26139  0.32449  1.0000
  H   H2567     1.0  0.63127  0.27715  0.31761  1.0000
  H   H2568     1.0  0.63307  0.29269  0.33084  1.0000
  H   H2569     1.0  0.67268  0.26801  0.33644  1.0000
  H   H2570     1.0  0.67110  0.25276  0.32260  1.0000
  C   C2580     1.0  0.61406  0.22740  0.23904  1.0000
  C   C2581     1.0  0.62779  0.22780  0.23282  1.0000
  C   C2582     1.0  0.63431  0.23616  0.23621  1.0000
  C   C2583     1.0  0.62723  0.24418  0.24590  1.0000
  C   C2584     1.0  0.61357  0.24363  0.25237  1.0000
  C   C2585     1.0  0.60703  0.23522  0.24896  1.0000
  H   H2571     1.0  0.63340  0.22170  0.22534  1.0000
  H   H2572     1.0  0.64490  0.23647  0.23118  1.0000
  H   H2573     1.0  0.60799  0.24981  0.25982  1.0000
  H   H2574     1.0  0.59640  0.23494  0.25387  1.0000
  C   C2586     1.0  0.83430  0.31404  0.20837  1.0000
  C   C2587     1.0  0.82824  0.32784  0.20436  1.0000
  C   C2588     1.0  0.81387  0.33210  0.20624  1.0000
  C   C2589     1.0  0.80555  0.32263  0.21255  1.0000
  C   C2590     1.0  0.81161  0.30889  0.21682  1.0000
  C   C2591     1.0  0.82598  0.30456  0.21449  1.0000
  H   H2575     1.0  0.80523  0.30153  0.22166  1.0000
  H   H2576     1.0  0.83065  0.29389  0.21754  1.0000
  C   C2592     1.0  0.93421  0.15090  0.29545  1.0000
  C   C2593     1.0  0.92013  0.15656  0.29930  1.0000
  C   C2594     1.0  0.91119  0.15748  0.29092  1.0000
  C   C2595     1.0  0.91629  0.15244  0.27889  1.0000
  C   C2596     1.0  0.93027  0.14638  0.27539  1.0000
  C   C2597     1.0  0.93921  0.14584  0.28348  1.0000
  H   H2577     1.0  0.91622  0.16064  0.30846  1.0000
  H   H2578     1.0  0.90039  0.16204  0.29381  1.0000
  H   H2579     1.0  0.93429  0.14244  0.26614  1.0000
  H   H2580     1.0  0.95009  0.14154  0.28041  1.0000
  C   C2598     1.0  0.84108  0.18272  0.32206  1.0000
  C   C2599     1.0  0.83376  0.17769  0.33507  1.0000
  C   C2600     1.0  0.81992  0.18389  0.33945  1.0000
  C   C2601     1.0  0.81342  0.19505  0.33079  1.0000
  C   C2602     1.0  0.82099  0.20060  0.31818  1.0000
  C   C2603     1.0  0.83484  0.19447  0.31385  1.0000
  H   H2581     1.0  0.83862  0.16871  0.34153  1.0000
  H   H2582     1.0  0.81422  0.17989  0.34942  1.0000
  H   H2583     1.0  0.81606  0.20939  0.31157  1.0000
  H   H2584     1.0  0.84064  0.19878  0.30411  1.0000
  C   C2604     1.0  0.87377  0.22650  0.23932  1.0000
  C   C2605     1.0  0.87815  0.21758  0.23034  1.0000
  C   C2606     1.0  0.88050  0.22274  0.21619  1.0000
  C   C2607     1.0  0.87817  0.23685  0.21097  1.0000
  C   C2608     1.0  0.87359  0.24579  0.21993  1.0000
  C   C2609     1.0  0.87154  0.24061  0.23407  1.0000
  H   H2585     1.0  0.87982  0.20672  0.23424  1.0000
  H   H2586     1.0  0.88399  0.21580  0.20927  1.0000
  H   H2587     1.0  0.87183  0.25669  0.21597  1.0000
  H   H2588     1.0  0.86816  0.24758  0.24097  1.0000
  H   H2589     1.0  0.89923  0.20891  0.24563  1.0000
  H   H2590     1.0  0.80926  0.34271  0.20285  1.0000
  C   C2610     1.0  0.50474  0.36682  0.35561  1.0000
  C   C2611     1.0  0.80563  0.09454  0.36947  1.0000
  H   H2591     1.0  0.91525  0.09202  0.38143  1.0000
  C   C2612     1.0  0.77767  0.29355  0.19856  1.0000
  C   C2613     1.0  0.90553  0.20252  0.25269  1.0000
  S   S918      1.0  0.60917  0.46249  0.37235  1.0000
  C   C2614     1.0  0.50013  0.38152  0.31567  1.0000
  C   C2615     1.0  0.61045  0.24680  0.19825  1.0000
  C   C2616     1.0  0.67364  0.13594  0.21623  1.0000
  C   C2617     1.0  0.66080  0.14382  0.22127  1.0000
  C   C2618     1.0  0.65767  0.15798  0.21628  1.0000
  C   C2619     1.0  0.66752  0.16433  0.20650  1.0000
  C   C2620     1.0  0.68051  0.15650  0.20179  1.0000
  C   C2621     1.0  0.68351  0.14231  0.20649  1.0000
  H   H2592     1.0  0.65315  0.13894  0.22885  1.0000
  H   H2593     1.0  0.64767  0.16396  0.22006  1.0000
  H   H2594     1.0  0.68811  0.16142  0.19421  1.0000
  H   H2595     1.0  0.69341  0.13636  0.20250  1.0000
  C   C2622     1.0  0.79675  0.09077  0.31194  1.0000
  C   C2623     1.0  0.80468  0.07909  0.31882  1.0000
  C   C2624     1.0  0.81315  0.08034  0.32670  1.0000
  C   C2625     1.0  0.81362  0.09329  0.32768  1.0000
  C   C2626     1.0  0.80513  0.10485  0.32142  1.0000
  C   C2627     1.0  0.79662  0.10358  0.31373  1.0000
  H   H2596     1.0  0.80457  0.06911  0.31772  1.0000
  H   H2597     1.0  0.81949  0.07135  0.33172  1.0000
  H   H2598     1.0  0.80518  0.11488  0.32243  1.0000
  H   H2599     1.0  0.78981  0.11251  0.30935  1.0000
  C   C2628     1.0  0.82749  0.13901  0.25343  1.0000
  C   C2629     1.0  0.81853  0.15176  0.25127  1.0000
  C   C2630     1.0  0.82211  0.16336  0.25240  1.0000
  C   C2631     1.0  0.83442  0.16221  0.25615  1.0000
  C   C2632     1.0  0.84338  0.14945  0.25840  1.0000
  C   C2633     1.0  0.84001  0.13789  0.25683  1.0000
  H   H2600     1.0  0.80890  0.15272  0.24856  1.0000
  H   H2601     1.0  0.81517  0.17322  0.25056  1.0000
  H   H2602     1.0  0.85296  0.14853  0.26118  1.0000
  H   H2603     1.0  0.84703  0.12805  0.25836  1.0000
  C   C2634     1.0  0.76832  0.15418  0.30465  1.0000
  C   C2635     1.0  0.76907  0.14082  0.31224  1.0000
  C   C2636     1.0  0.76965  0.13785  0.32603  1.0000
  C   C2637     1.0  0.76973  0.14819  0.33217  1.0000
  C   C2638     1.0  0.76937  0.16148  0.32448  1.0000
  C   C2639     1.0  0.76851  0.16450  0.31076  1.0000
  H   H2604     1.0  0.76891  0.13282  0.30756  1.0000
  H   H2605     1.0  0.76996  0.12753  0.33192  1.0000
  H   H2606     1.0  0.76961  0.16948  0.32909  1.0000
  H   H2607     1.0  0.76812  0.17481  0.30483  1.0000
  C   C2640     1.0  0.75289  0.11516  0.23873  1.0000
  C   C2641     1.0  0.75913  0.10129  0.24140  1.0000
  C   C2642     1.0  0.75578  0.09217  0.23569  1.0000
  C   C2643     1.0  0.74605  0.09682  0.22746  1.0000
  C   C2644     1.0  0.73978  0.11068  0.22486  1.0000
  C   C2645     1.0  0.74334  0.11981  0.23031  1.0000
  H   H2608     1.0  0.76651  0.09758  0.24787  1.0000
  H   H2609     1.0  0.76071  0.08145  0.23773  1.0000
  H   H2610     1.0  0.73232  0.11444  0.21855  1.0000
  H   H2611     1.0  0.73850  0.13054  0.22816  1.0000
  H   H2612     1.0  0.98868  0.16444  0.35516  1.0000
  H   H2613     1.0  0.59406  0.39128  0.29649  1.0000
  C   C2646     1.0  0.83853  0.16535  0.37736  1.0000
  C   C2647     1.0  0.50338  0.32354  0.35961  1.0000
  C   C2648     1.0  0.87073  0.00470  0.32583  1.0000
  H   H2614     1.0  0.75264  0.09468  0.19051  1.0000
  S   S919      1.0  0.69482  0.10178  0.18997  1.0000
  C   C2649     1.0  0.73780  0.25688  0.36440  1.0000
  H   H2615     1.0  0.62664  0.21799  0.28107  1.0000
  C   C2650     1.0  0.59913  0.38137  0.30213  1.0000
  H   H2616     1.0  0.99080  0.13840  0.31107  1.0000
  C   C2651     1.0  0.64997  0.22482  0.26649  1.0000
  C   C2652     1.0  0.55717  0.15140  0.19961  1.0000
  C   C2653     1.0  0.86015  0.00087  0.35857  1.0000
  N   N210      1.0  0.74926  0.24514  0.36237  1.0000
  H   H2617     1.0  0.58103  0.25483  0.21080  1.0000
  S   S920      1.0  0.93531  0.13568  0.36652  1.0000
  S   S921      1.0  0.67685  0.26558  0.36688  1.0000
  S   S922      1.0  0.86281  0.02702  0.35533  1.0000
  S   S923      1.0  0.56731  0.34539  0.35037  1.0000
  C   C2654     1.0  0.68468  0.05259  0.18445  1.0000
  H   H2618     1.0  0.91329  0.20242  0.28228  1.0000
  C   C2655     1.0  0.71641  0.23140  0.37183  1.0000
  H   H2619     1.0  0.67997  0.23328  0.26444  1.0000
  N   N211      1.0  0.67762  0.30179  0.30907  1.0000
  C   C2656     1.0  0.66528  0.30338  0.30587  1.0000
  C   C2657     1.0  0.68798  0.29067  0.30676  1.0000
  C   C2658     1.0  0.66330  0.29417  0.29944  1.0000
  C   C2659     1.0  0.68628  0.28112  0.30053  1.0000
  C   C2660     1.0  0.67389  0.28301  0.29671  1.0000
  C   C2661     1.0  0.67945  0.31183  0.31550  1.0000
  H   H2620     1.0  0.65681  0.31169  0.30850  1.0000
  H   H2621     1.0  0.69758  0.28907  0.30983  1.0000
  H   H2622     1.0  0.65347  0.29546  0.29697  1.0000
  H   H2623     1.0  0.69442  0.27222  0.29887  1.0000
  H   H2624     1.0  0.67226  0.27558  0.29211  1.0000
  H   H2625     1.0  0.69050  0.31118  0.31482  1.0000
  H   H2626     1.0  0.67509  0.32236  0.31038  1.0000
  H   H2627     1.0  0.67408  0.31012  0.32642  1.0000
  H   H2628     1.0  0.59430  0.32191  0.33819  1.0000
  C   C2662     1.0  0.79074  0.11114  0.35500  1.0000
  C   C2663     1.0  0.66346  0.22662  0.26116  1.0000
  Fe  Fe460     1.0  0.87048  0.26489  0.18618  1.0000
  C   C2664     1.0  0.91348  0.19906  0.27326  1.0000
  H   H2629     1.0  0.52645  0.10531  0.18667  1.0000
  C   C2665     1.0  0.73441  0.22654  0.35221  1.0000
  S   S924      1.0  0.92411  0.17397  0.36465  1.0000
  H   H2630     1.0  0.85814  0.22951  0.19274  1.0000
  H   H2631     1.0  0.74862  0.15175  0.18913  1.0000
  H   H2632     1.0  0.79105  0.12742  0.37048  1.0000
  C   C2666     1.0  0.50689  0.38676  0.32230  1.0000
  C   C2667     1.0  0.68612  0.06317  0.18951  1.0000
  H   H2633     1.0  0.98362  0.12816  0.32705  1.0000
  N   N212      1.0  0.66733  0.45547  0.33119  1.0000
  C   C2668     1.0  0.67366  0.46340  0.35168  1.0000
  C   C2669     1.0  0.77858  0.29237  0.18534  1.0000
  S   S925      1.0  0.52978  0.37055  0.35603  1.0000
  C   C2670     1.0  0.62830  0.22701  0.28359  1.0000
  S   S926      1.0  0.71547  0.25021  0.34748  1.0000
  C   C2671     1.0  0.52424  0.35604  0.34023  1.0000
  H   H2634     1.0  0.69286  0.04354  0.18395  1.0000
  S   S927      1.0  0.59097  0.33983  0.37671  1.0000
  C   C2672     1.0  0.81807  0.41299  0.18596  1.0000
  C   C2673     1.0  0.67540  0.07472  0.19033  1.0000
  H   H2635     1.0  0.97350  0.15136  0.35217  1.0000
  C   C2674     1.0  0.75615  0.13016  0.19587  1.0000
  H   H2636     1.0  0.61853  0.36068  0.31081  1.0000
  H   H2637     1.0  0.74102  0.26436  0.36798  1.0000
  S   S928      1.0  0.76142  0.35393  0.19483  1.0000
  H   H2638     1.0  0.55242  0.16956  0.20755  1.0000
  Fe  Fe461     1.0  0.76158  0.18290  0.37379  1.0000
  H   H2639     1.0  0.52078  0.32870  0.36293  1.0000
  H   H2640     1.0  0.61135  0.37067  0.36532  1.0000
  C   C2675     1.0  0.61979  0.25974  0.21271  1.0000
  Fe  Fe462     1.0  0.85736  0.29294  0.19216  1.0000
  C   C2676     1.0  0.63339  0.39587  0.36307  1.0000
  S   S929      1.0  0.76807  0.16001  0.37944  1.0000
  C   C2677     1.0  0.98909  0.13665  0.32233  1.0000
  H   H2641     1.0  0.80142  0.31263  0.19149  1.0000
  Fe  Fe463     1.0  0.76343  0.37442  0.19594  1.0000
  H   H2642     1.0  0.90403  0.19070  0.23442  1.0000
  C   C2678     1.0  0.91322  0.18514  0.23873  1.0000
  N   N213      1.0  0.84684  0.22699  0.21332  1.0000
  C   C2679     1.0  0.84709  0.21337  0.21586  1.0000
  C   C2680     1.0  0.84456  0.23335  0.22386  1.0000
  C   C2681     1.0  0.84520  0.20569  0.22924  1.0000
  C   C2682     1.0  0.84269  0.22597  0.23736  1.0000
  C   C2683     1.0  0.84304  0.21205  0.24003  1.0000
  C   C2684     1.0  0.84876  0.23475  0.19918  1.0000
  H   H2643     1.0  0.84880  0.20835  0.20751  1.0000
  H   H2644     1.0  0.84449  0.24412  0.22187  1.0000
  H   H2645     1.0  0.84543  0.19487  0.23127  1.0000
  H   H2646     1.0  0.84134  0.23092  0.24569  1.0000
  H   H2647     1.0  0.84168  0.20618  0.25044  1.0000
  H   H2648     1.0  0.66166  0.48326  0.34444  1.0000
  C   C2685     1.0  0.86236  0.16569  0.37620  1.0000
  H   H2649     1.0  0.50927  0.31912  0.35088  1.0000
  S   S930      1.0  0.86805  0.05680  0.36600  1.0000
  C   C2686     1.0  0.67837  0.44993  0.35003  1.0000
  C   C2687     1.0  0.62558  0.39574  0.30839  1.0000
  H   H2650     1.0  0.66894  0.22449  0.25123  1.0000
  H   H2651     1.0  0.64512  0.22131  0.26051  1.0000
  N   N214      1.0  0.82403  0.42399  0.18237  1.0000
  H   H2652     1.0  0.63942  0.36191  0.31717  1.0000
  Fe  Fe464     1.0  0.55329  0.36634  0.34982  1.0000
  N   N215      1.0  0.75053  0.35486  0.24321  1.0000
  C   C2688     1.0  0.74545  0.34794  0.23701  1.0000
  C   C2689     1.0  0.74304  0.35873  0.25512  1.0000
  C   C2690     1.0  0.73273  0.34438  0.24297  1.0000
  C   C2691     1.0  0.73029  0.35529  0.26138  1.0000
  C   C2692     1.0  0.72514  0.34807  0.25523  1.0000
  C   C2693     1.0  0.76371  0.35883  0.23662  1.0000
  H   H2653     1.0  0.75116  0.34533  0.22731  1.0000
  H   H2654     1.0  0.74684  0.36459  0.25982  1.0000
  H   H2655     1.0  0.72854  0.33920  0.23788  1.0000
  H   H2656     1.0  0.72433  0.35840  0.27082  1.0000
  H   H2657     1.0  0.71508  0.34570  0.25971  1.0000
  H   H2658     1.0  0.76915  0.35912  0.24428  1.0000
  H   H2659     1.0  0.77069  0.35141  0.23043  1.0000
  H   H2660     1.0  0.76188  0.36908  0.22982  1.0000
  N   N216      1.0  0.75306  0.11571  0.18305  1.0000
  Fe  Fe465     1.0  0.62300  0.21523  0.18485  1.0000
  C   C2694     1.0  0.75765  0.11718  0.19353  1.0000
  C   C2695     1.0  0.67506  0.44611  0.33969  1.0000
  C   C2696     1.0  0.87593  0.15918  0.37713  1.0000
  H   H2661     1.0  0.96645  0.18359  0.37822  1.0000
  H   H2662     1.0  0.63841  0.25844  0.19699  1.0000
  H   H2663     1.0  0.74252  0.16046  0.34707  1.0000
  H   H2664     1.0  0.60689  0.24175  0.19251  1.0000
  H   H2665     1.0  0.90906  0.15250  0.37811  1.0000
  H   H2666     1.0  0.63967  0.40291  0.36234  1.0000
  N   N217      1.0  0.61830  0.31798  0.35612  1.0000
  C   C2697     1.0  0.95311  0.15618  0.38193  1.0000
  C   C2698     1.0  0.78593  0.30089  0.20078  1.0000
  C   C2699     1.0  0.84106  0.99443  0.35444  1.0000
  N   N218      1.0  0.58156  0.14490  0.20853  1.0000
  C   C2700     1.0  0.57916  0.13641  0.20192  1.0000
  H   H2667     1.0  0.51789  0.39516  0.33703  1.0000
  H   H2668     1.0  0.78531  0.30192  0.21100  1.0000
  H   H2669     1.0  0.77560  0.23350  0.33771  1.0000
  C   C2701     1.0  0.85393  0.99076  0.35781  1.0000
  H   H2670     1.0  0.50063  0.37275  0.36345  1.0000
  C   C2702     1.0  0.72911  0.19403  0.33632  1.0000
  C   C2703     1.0  0.82616  0.39990  0.18531  1.0000
  H   H2671     1.0  0.87021  0.99792  0.36097  1.0000
  H   H2672     1.0  0.62948  0.40490  0.34291  1.0000
  H   H2673     1.0  0.79483  0.11925  0.34681  1.0000
  C   C2704     1.0  0.62772  0.39699  0.35200  1.0000
  H   H2674     1.0  0.69245  0.32756  0.37659  1.0000
  S   S931      1.0  0.67237  0.29789  0.36860  1.0000
  N   N219      1.0  0.70849  0.11161  0.24747  1.0000
  C   C2705     1.0  0.71751  0.11032  0.25539  1.0000
  C   C2706     1.0  0.70221  0.12425  0.24129  1.0000
  C   C2707     1.0  0.72021  0.12188  0.25755  1.0000
  C   C2708     1.0  0.70475  0.13603  0.24316  1.0000
  C   C2709     1.0  0.71383  0.13481  0.25134  1.0000
  C   C2710     1.0  0.70621  0.09933  0.24503  1.0000
  H   H2675     1.0  0.72298  0.10030  0.25975  1.0000
  H   H2676     1.0  0.69526  0.12529  0.23479  1.0000
  H   H2677     1.0  0.72771  0.12083  0.26347  1.0000
  H   H2678     1.0  0.69982  0.14603  0.23815  1.0000
  H   H2679     1.0  0.71620  0.14381  0.25262  1.0000
  H   H2680     1.0  0.70492  0.09149  0.25463  1.0000
  H   H2681     1.0  0.69675  0.10155  0.24101  1.0000
  H   H2682     1.0  0.71518  0.09500  0.23753  1.0000
  N   N220      1.0  0.83055  0.09782  0.28959  1.0000
  C   C2711     1.0  0.83745  0.08781  0.29837  1.0000
  C   C2712     1.0  0.82338  0.09457  0.28216  1.0000
  C   C2713     1.0  0.83730  0.07412  0.29986  1.0000
  C   C2714     1.0  0.82281  0.08103  0.28357  1.0000
  C   C2715     1.0  0.82984  0.07075  0.29246  1.0000
  C   C2716     1.0  0.83085  0.11206  0.28837  1.0000
  H   H2683     1.0  0.81785  0.10244  0.27523  1.0000
  H   H2684     1.0  0.84252  0.06627  0.30707  1.0000
  H   H2685     1.0  0.81662  0.07863  0.27806  1.0000
  H   H2686     1.0  0.82919  0.06025  0.29387  1.0000
  H   H2687     1.0  0.82478  0.11915  0.28101  1.0000
  H   H2688     1.0  0.82645  0.11495  0.29844  1.0000
  C   C2717     1.0  0.66222  0.23472  0.28110  1.0000
  C   C2718     1.0  0.98287  0.14599  0.35557  1.0000
  H   H2689     1.0  0.62489  0.22604  0.29482  1.0000
  H   H2690     1.0  0.68429  0.44242  0.35690  1.0000
  H   H2691     1.0  0.74351  0.15598  0.37054  1.0000
  H   H2692     1.0  0.50534  0.41108  0.33500  1.0000
  C   C2719     1.0  0.81538  0.43762  0.18315  1.0000
  S   S932      1.0  0.85125  0.08798  0.35615  1.0000
  C   C2720     1.0  0.74055  0.21455  0.36027  1.0000
  H   H2693     1.0  0.62174  0.23633  0.27858  1.0000
  C   C2721     1.0  0.61968  0.38793  0.35283  1.0000
  C   C2722     1.0  0.66352  0.45130  0.32066  1.0000
  H   H2694     1.0  0.84283  0.09042  0.30454  1.0000
  S   S933      1.0  0.83559  0.06229  0.36481  1.0000
  H   H2695     1.0  0.50259  0.39753  0.34993  1.0000
  C   C2723     1.0  0.61757  0.37779  0.36457  1.0000
  Fe  Fe466     1.0  0.93127  0.15669  0.35374  1.0000
  H   H2696     1.0  0.66751  0.12441  0.19010  1.0000
  C   C2724     1.0  0.56695  0.13952  0.19734  1.0000
  H   H2697     1.0  0.59169  0.37824  0.31166  1.0000
  C   C2725     1.0  0.57204  0.15660  0.21073  1.0000
  Fe  Fe467     1.0  0.57931  0.35307  0.36064  1.0000
  C   C2726     1.0  0.60681  0.25652  0.21739  1.0000
  H   H2698     1.0  0.80696  0.41434  0.18903  1.0000
  Fe  Fe468     1.0  0.78928  0.16333  0.37627  1.0000
  C   C2727     1.0  0.62050  0.37058  0.31006  1.0000
  C   C2728     1.0  0.55968  0.15998  0.20637  1.0000
  H   H2699     1.0  0.65037  0.16725  0.18617  1.0000
  C   C2729     1.0  0.65730  0.14556  0.18888  1.0000
  H   H2700     1.0  0.84161  0.11345  0.28463  1.0000
  C   C2730     1.0  0.73451  0.16451  0.37257  1.0000
  H   H2701     1.0  0.84957  0.98740  0.32130  1.0000
  H   H2702     1.0  0.64293  0.23577  0.29565  1.0000
  C   C2731     1.0  0.61530  0.32367  0.32939  1.0000
  C   C2732     1.0  0.66960  0.23162  0.26854  1.0000
  C   C2733     1.0  0.85907  0.00244  0.32337  1.0000
  H   H2703     1.0  0.62343  0.26453  0.21864  1.0000
  H   H2704     1.0  0.56525  0.13296  0.19177  1.0000
  H   H2705     1.0  0.73913  0.22936  0.34152  1.0000
  H   H2706     1.0  0.89871  0.21685  0.26596  1.0000
  C   C2734     1.0  0.51903  0.36382  0.35027  1.0000
  C   C2735     1.0  0.62786  0.32335  0.33204  1.0000
  H   H2707     1.0  0.98209  0.14583  0.32582  1.0000
  H   H2708     1.0  0.77058  0.28879  0.20706  1.0000
  C   C2736     1.0  0.96550  0.17306  0.38076  1.0000
  N   N221      1.0  0.63524  0.34415  0.25168  1.0000
  C   C2737     1.0  0.63318  0.35259  0.26039  1.0000
  C   C2738     1.0  0.64717  0.34249  0.24190  1.0000
  C   C2739     1.0  0.64330  0.35947  0.25958  1.0000
  C   C2740     1.0  0.65751  0.34922  0.24081  1.0000
  C   C2741     1.0  0.65554  0.35775  0.24972  1.0000
  C   C2742     1.0  0.62436  0.33727  0.25257  1.0000
  H   H2709     1.0  0.62380  0.35379  0.26823  1.0000
  H   H2710     1.0  0.64894  0.33557  0.23519  1.0000
  H   H2711     1.0  0.64176  0.36586  0.26674  1.0000
  H   H2712     1.0  0.66711  0.34762  0.23330  1.0000
  H   H2713     1.0  0.66361  0.36283  0.24911  1.0000
  H   H2714     1.0  0.61653  0.34428  0.24701  1.0000
  H   H2715     1.0  0.62861  0.32795  0.24821  1.0000
  H   H2716     1.0  0.61928  0.33379  0.26338  1.0000
  H   H2717     1.0  0.61419  0.32564  0.31898  1.0000
  S   S934      1.0  0.56465  0.37335  0.36146  1.0000
  C   C2743     1.0  0.61393  0.39476  0.30481  1.0000
  C   C2744     1.0  0.50667  0.39987  0.33872  1.0000
  C   C2745     1.0  0.73576  0.18055  0.33563  1.0000
  H   H2718     1.0  0.89001  0.13971  0.38118  1.0000
  C   C2746     1.0  0.62019  0.31471  0.37014  1.0000
  C   C2747     1.0  0.99151  0.15341  0.35727  1.0000
  H   H2719     1.0  0.81391  0.43965  0.19341  1.0000
  C   C2748     1.0  0.85609  0.14430  0.38175  1.0000
  H   H2720     1.0  0.57420  0.16369  0.21536  1.0000
  S   S935      1.0  0.78234  0.18613  0.37311  1.0000
  S   S936      1.0  0.70160  0.27585  0.37253  1.0000
  C   C2749     1.0  0.74993  0.14164  0.18738  1.0000
  H   H2721     1.0  0.83836  0.17420  0.36857  1.0000
  C   C2750     1.0  0.58175  0.18646  0.18749  1.0000
  H   H2722     1.0  0.60160  0.37369  0.29575  1.0000
  N   N222      1.0  0.73275  0.17469  0.36003  1.0000
  N   N223      1.0  0.89098  0.13997  0.32243  1.0000
  C   C2751     1.0  0.90411  0.13253  0.32256  1.0000
  C   C2752     1.0  0.88488  0.14064  0.31213  1.0000
  C   C2753     1.0  0.91134  0.12515  0.31242  1.0000
  C   C2754     1.0  0.89185  0.13345  0.30178  1.0000
  C   C2755     1.0  0.90514  0.12561  0.30199  1.0000
  C   C2756     1.0  0.88375  0.14801  0.33288  1.0000
  H   H2723     1.0  0.90910  0.13232  0.33049  1.0000
  H   H2724     1.0  0.87465  0.14692  0.31177  1.0000
  H   H2725     1.0  0.92177  0.11931  0.31254  1.0000
  H   H2726     1.0  0.88714  0.13420  0.29346  1.0000
  H   H2727     1.0  0.91074  0.12021  0.29387  1.0000
  H   H2728     1.0  0.88587  0.15841  0.32930  1.0000
  H   H2729     1.0  0.87243  0.14900  0.33493  1.0000
  H   H2730     1.0  0.88705  0.14310  0.34268  1.0000
  N   N224      1.0  0.80790  0.15780  0.29649  1.0000
  C   C2757     1.0  0.80359  0.15055  0.30932  1.0000
  C   C2758     1.0  0.81581  0.16701  0.29440  1.0000
  C   C2759     1.0  0.80686  0.15274  0.32056  1.0000
  C   C2760     1.0  0.81936  0.16939  0.30539  1.0000
  C   C2761     1.0  0.81480  0.16223  0.31854  1.0000
  C   C2762     1.0  0.80469  0.15518  0.28479  1.0000
  H   H2731     1.0  0.79746  0.14312  0.31094  1.0000
  H   H2732     1.0  0.81939  0.17260  0.28419  1.0000
  H   H2733     1.0  0.80319  0.14715  0.33075  1.0000
  H   H2734     1.0  0.82559  0.17675  0.30372  1.0000
  H   H2735     1.0  0.81744  0.16404  0.32714  1.0000
  H   H2736     1.0  0.80202  0.16484  0.27736  1.0000
  H   H2737     1.0  0.81363  0.14821  0.27972  1.0000
  H   H2738     1.0  0.79565  0.15045  0.28788  1.0000
  H   H2739     1.0  0.92801  0.17244  0.25743  1.0000
  C   C2763     1.0  0.79502  0.30695  0.18969  1.0000
  H   H2740     1.0  0.75972  0.13126  0.20428  1.0000
  C   C2764     1.0  0.63226  0.37120  0.31376  1.0000
  H   H2741     1.0  0.92819  0.18016  0.27778  1.0000
  H   H2742     1.0  0.85958  0.17675  0.37386  1.0000
  H   H2743     1.0  0.65265  0.45027  0.32404  1.0000
  S   S937      1.0  0.70174  0.06202  0.19389  1.0000
  H   H2744     1.0  0.83466  0.33516  0.19948  1.0000
  C   C2765     1.0  0.59264  0.17505  0.18677  1.0000
  C   C2766     1.0  0.77151  0.22326  0.35879  1.0000
  N   N225      1.0  0.60243  0.24988  0.21032  1.0000
  H   H2745     1.0  0.62747  0.40565  0.30761  1.0000
  C   C2767     1.0  0.50091  0.35468  0.34064  1.0000
  H   H2746     1.0  0.66476  0.45891  0.31088  1.0000
  H   H2747     1.0  0.50598  0.37500  0.30856  1.0000
  C   C2768     1.0  0.58882  0.24653  0.21538  1.0000
  C   C2769     1.0  0.60415  0.32145  0.34021  1.0000
  C   C2770     1.0  0.73454  0.21072  0.37407  1.0000
  C   C2771     1.0  0.72237  0.23502  0.35796  1.0000
  C   C2772     1.0  0.62916  0.32052  0.34556  1.0000
  H   H2748     1.0  0.64401  0.38458  0.31543  1.0000
  N   N226      1.0  0.61158  0.38229  0.30556  1.0000
  C   C2773     1.0  0.72404  0.19768  0.34898  1.0000
  C   C2774     1.0  0.72593  0.18781  0.36081  1.0000
  H   H2749     1.0  0.62175  0.32381  0.37257  1.0000
  H   H2750     1.0  0.72879  0.25360  0.37199  1.0000
  H   H2751     1.0  0.77955  0.11495  0.35881  1.0000
  H   H2752     1.0  0.60662  0.40406  0.30173  1.0000
  H   H2753     1.0  0.61104  0.31167  0.37769  1.0000
  N   N227      1.0  0.64276  0.22801  0.27876  1.0000
  Fe  Fe469     1.0  0.85586  0.04983  0.35535  1.0000
  H   H2754     1.0  0.66681  0.23879  0.28686  1.0000
  C   C2775     1.0  0.76896  0.23389  0.34775  1.0000
  C   C2776     1.0  0.73739  0.17093  0.34768  1.0000
  C   C2777     1.0  0.64869  0.23295  0.28604  1.0000
  H   H2755     1.0  0.71880  0.20812  0.34967  1.0000
  C   C2778     1.0  0.62347  0.24989  0.19325  1.0000
  C   C2779     1.0  0.98627  0.13173  0.35852  1.0000
  Fe  Fe470     1.0  0.62517  0.44498  0.38027  1.0000
  H   H2756     1.0  0.94597  0.17782  0.37497  1.0000
  N   N228      1.0  0.91334  0.19004  0.25058  1.0000
  H   H2757     1.0  0.51934  0.34548  0.32766  1.0000
  H   H2758     1.0  0.92262  0.18647  0.23068  1.0000
  H   H2759     1.0  0.63658  0.32509  0.32371  1.0000
  H   H2760     1.0  0.61505  0.38876  0.34441  1.0000
  H   H2761     1.0  0.76238  0.10828  0.20026  1.0000
  C   C2780     1.0  0.92165  0.18223  0.25925  1.0000
  H   H2762     1.0  0.90223  0.39034  0.18814  1.0000
  C   C2781     1.0  0.75775  0.24487  0.34974  1.0000
  C   C2782     1.0  0.50202  0.33515  0.37716  1.0000
  H   H2763     1.0  0.60782  0.43218  0.34011  1.0000
  C   C2783     1.0  0.92181  0.18657  0.27075  1.0000
  H   H2764     1.0  0.67627  0.08280  0.19446  1.0000
  S   S938      1.0  0.63203  0.19365  0.18284  1.0000
  C   C2784     1.0  0.63482  0.38388  0.31284  1.0000
  H   H2765     1.0  0.91281  0.17415  0.24172  1.0000
  H   H2766     1.0  0.83962  0.23596  0.19502  1.0000
  H   H2767     1.0  0.58683  0.12729  0.19991  1.0000
  H   H2768     1.0  0.72785  0.20163  0.32705  1.0000
  H   H2769     1.0  0.75576  0.25307  0.34109  1.0000
  H   H2770     1.0  0.79198  0.10232  0.35041  1.0000
  C   C2785     1.0  0.75171  0.23474  0.37326  1.0000
  C   C2786     1.0  0.60582  0.31865  0.35361  1.0000
  C   C2787     1.0  0.59468  0.14160  0.21273  1.0000
  N   N229      1.0  0.79800  0.10747  0.36613  1.0000
  C   C2788     1.0  0.76282  0.22362  0.37163  1.0000
  H   H2771     1.0  0.73416  0.26204  0.35482  1.0000
  H   H2772     1.0  0.59508  0.14895  0.21851  1.0000
  H   H2773     1.0  0.58187  0.19409  0.19267  1.0000
  H   H2774     1.0  0.59707  0.31706  0.36197  1.0000
  N   N230      1.0  0.63097  0.38612  0.37468  1.0000
  C   C2789     1.0  0.65805  0.15899  0.18225  1.0000
  H   H2775     1.0  0.73969  0.17754  0.32585  1.0000
  H   H2776     1.0  0.63903  0.32002  0.34757  1.0000
  H   H2777     1.0  0.72512  0.16031  0.37713  1.0000
  H   H2778     1.0  0.86881  0.32577  0.18289  1.0000
  C   C2790     1.0  0.62345  0.37695  0.37541  1.0000
  C   C2791     1.0  0.89260  0.06782  0.37858  1.0000
  H   H2779     1.0  0.87997  0.31006  0.18852  1.0000
  H   H2780     1.0  0.86276  0.08901  0.37943  1.0000
  H   H2781     1.0  0.70710  0.23791  0.37634  1.0000
  H   H2782     1.0  0.82135  0.39126  0.18774  1.0000
  H   H2783     1.0  0.77220  0.28671  0.18343  1.0000
  H   H2784     1.0  0.62924  0.30612  0.37138  1.0000
  C   C2792     1.0  0.66767  0.13483  0.18461  1.0000
  C   C2793     1.0  0.66344  0.07578  0.18591  1.0000
  Fe  Fe471     1.0  0.84821  0.07057  0.37380  1.0000
  H   H2785     1.0  0.88088  0.11505  0.36415  1.0000
  C   C2794     1.0  0.81242  0.09097  0.38019  1.0000
  C   C2795     1.0  0.79704  0.11713  0.37317  1.0000
  H   H2786     1.0  0.88519  0.41224  0.18790  1.0000
  H   H2787     1.0  0.88357  0.16511  0.37553  1.0000
  C   C2796     1.0  0.91531  0.16908  0.38156  1.0000
  C   C2797     1.0  0.87955  0.14496  0.38033  1.0000
  H   H2788     1.0  0.90612  0.08159  0.36903  1.0000
  N   N231      1.0  0.85270  0.15825  0.37828  1.0000
  H   H2789     1.0  0.94416  0.15379  0.38042  1.0000
  C   C2798     1.0  0.90000  0.07716  0.37859  1.0000
  H   H2790     1.0  0.83273  0.15856  0.37586  1.0000
  C   C2799     1.0  0.95405  0.16983  0.37888  1.0000
  H   H2791     1.0  0.56168  0.19627  0.18318  1.0000
  H   H2792     1.0  0.73640  0.16915  0.38013  1.0000
  C   C2800     1.0  0.72244  0.21920  0.37985  1.0000
  H   H2793     1.0  0.58193  0.36757  0.38102  1.0000
  H   H2794     1.0  0.76447  0.21518  0.38020  1.0000
  Fe  Fe472     1.0  0.67902  0.27723  0.38116  1.0000
  C   C2801     1.0  0.57030  0.18765  0.18215  1.0000
  C   C2802     1.0  0.58942  0.40707  0.40365  1.0000
  H   H2795     1.0  0.83570  0.14540  0.50605  1.0000
  H   H2796     1.0  0.87533  0.10230  0.38594  1.0000
  C   C2803     1.0  0.88437  0.06232  0.39077  1.0000
  C   C2804     1.0  0.89762  0.13669  0.46078  1.0000
  C   C2805     1.0  0.82831  0.13939  0.48695  1.0000
  H   H2797     1.0  0.95621  0.12907  0.40022  1.0000
  S   S939      1.0  0.67203  0.27198  0.40393  1.0000
  H   H2798     1.0  0.71771  0.21633  0.39054  1.0000
  H   H2799     1.0  0.68009  0.36097  0.56391  1.0000
  C   C2806     1.0  0.86958  0.13748  0.38269  1.0000
  H   H2800     1.0  0.87228  0.12645  0.38545  1.0000
  H   H2801     1.0  0.64722  0.42375  0.38263  1.0000
  Fe  Fe473     1.0  0.64552  0.33727  0.43585  1.0000
  S   S940      1.0  0.62354  0.34456  0.44618  1.0000
  S   S941      1.0  0.65632  0.31532  0.44110  1.0000
  Fe  Fe474     1.0  0.64978  0.36583  0.42374  1.0000
  S   S942      1.0  0.62839  0.37533  0.43349  1.0000
  S   S943      1.0  0.66381  0.37848  0.40867  1.0000
  Fe  Fe475     1.0  0.63186  0.35928  0.45223  1.0000
  S   S944      1.0  0.62431  0.36188  0.47425  1.0000
  Fe  Fe476     1.0  0.62231  0.35984  0.42641  1.0000
  S   S945      1.0  0.60519  0.36958  0.41499  1.0000
  S   S946      1.0  0.65391  0.35112  0.44296  1.0000
  S   S947      1.0  0.64363  0.35120  0.41561  1.0000
  Fe  Fe477     1.0  0.65080  0.37693  0.53059  1.0000
  S   S948      1.0  0.63999  0.36119  0.54542  1.0000
  S   S949      1.0  0.65914  0.37565  0.50824  1.0000
  Fe  Fe478     1.0  0.64539  0.39409  0.55221  1.0000
  H   H2802     1.0  0.68840  0.30280  0.38589  1.0000
  S   S950      1.0  0.64500  0.41373  0.55768  1.0000
  Fe  Fe479     1.0  0.65091  0.36336  0.56037  1.0000
  H   H2803     1.0  0.59215  0.39791  0.57585  1.0000
  Fe  Fe480     1.0  0.62426  0.37925  0.55174  1.0000
  H   H2804     1.0  0.97253  0.12472  0.38844  1.0000
  S   S951      1.0  0.66322  0.37772  0.54503  1.0000
  S   S952      1.0  0.63436  0.39491  0.53620  1.0000
  S   S953      1.0  0.74186  0.19534  0.38417  1.0000
  H   H2805     1.0  0.60850  0.33009  0.39606  1.0000
  H   H2806     1.0  0.89877  0.10174  0.38852  1.0000
  C   C2807     1.0  0.65710  0.40019  0.57954  1.0000
  C   C2808     1.0  0.97453  0.14910  0.38867  1.0000
  C   C2809     1.0  0.57928  0.41374  0.39615  1.0000
  H   H2807     1.0  0.62878  0.40331  0.50838  1.0000
  H   H2808     1.0  0.83817  0.16189  0.49668  1.0000
  Fe  Fe481     1.0  0.86747  0.12212  0.42630  1.0000
  S   S954      1.0  0.86590  0.14427  0.41617  1.0000
  S   S955      1.0  0.87457  0.10812  0.41128  1.0000
  Fe  Fe482     1.0  0.86161  0.12804  0.45497  1.0000
  S   S956      1.0  0.85933  0.15048  0.44678  1.0000
  S   S957      1.0  0.85956  0.11945  0.47777  1.0000
  Fe  Fe483     1.0  0.84748  0.14776  0.43315  1.0000
  S   S958      1.0  0.82835  0.16327  0.42919  1.0000
  Fe  Fe484     1.0  0.87797  0.14470  0.43071  1.0000
  S   S959      1.0  0.89482  0.15593  0.42631  1.0000
  S   S960      1.0  0.84808  0.12557  0.44251  1.0000
  S   S961      1.0  0.88116  0.12230  0.43966  1.0000
  Fe  Fe485     1.0  0.85087  0.13812  0.56561  1.0000
  S   S962      1.0  0.87061  0.12766  0.55345  1.0000
  H   H2809     1.0  0.87689  0.06238  0.41218  1.0000
  Fe  Fe486     1.0  0.86017  0.16461  0.55999  1.0000
  S   S963      1.0  0.88037  0.15638  0.54699  1.0000
  S   S964      1.0  0.85776  0.18501  0.56493  1.0000
  Fe  Fe487     1.0  0.86818  0.14757  0.53807  1.0000
  S   S965      1.0  0.87294  0.15099  0.51489  1.0000
  Fe  Fe488     1.0  0.88070  0.13755  0.56353  1.0000
  C   C2810     1.0  0.90605  0.09165  0.38997  1.0000
  S   S966      1.0  0.84776  0.15753  0.54978  1.0000
  H   H2810     1.0  0.62190  0.36896  0.38444  1.0000
  C   C2811     1.0  0.90024  0.14081  0.48499  1.0000
  H   H2811     1.0  0.81695  0.09808  0.39563  1.0000
  H   H2812     1.0  0.86290  0.08375  0.56966  1.0000
  C   C2812     1.0  0.60036  0.39089  0.51359  1.0000
  H   H2813     1.0  0.63085  0.41409  0.47802  1.0000
  H   H2814     1.0  0.56896  0.43327  0.38608  1.0000
  C   C2813     1.0  0.68703  0.31650  0.41061  1.0000
  H   H2815     1.0  0.91987  0.18482  0.38820  1.0000
  H   H2816     1.0  0.59142  0.39606  0.40675  1.0000
  S   S967      1.0  0.84146  0.07447  0.39527  1.0000
  H   H2817     1.0  0.92721  0.15079  0.56296  1.0000
  S   S968      1.0  0.60145  0.38233  0.55487  1.0000
  H   H2818     1.0  0.64797  0.38039  0.38421  1.0000
  H   H2819     1.0  0.90238  0.16109  0.47381  1.0000
  H   H2820     1.0  0.87821  0.05540  0.39087  1.0000
  C   C2814     1.0  0.86177  0.12894  0.48842  1.0000
  C   C2815     1.0  0.86070  0.12336  0.50243  1.0000
  C   C2816     1.0  0.86330  0.13035  0.51096  1.0000
  C   C2817     1.0  0.86704  0.14294  0.50545  1.0000
  C   C2818     1.0  0.86746  0.14876  0.49159  1.0000
  C   C2819     1.0  0.86483  0.14182  0.48312  1.0000
  H   H2821     1.0  0.85821  0.11344  0.50667  1.0000
  H   H2822     1.0  0.86295  0.12575  0.52164  1.0000
  H   H2823     1.0  0.87026  0.15854  0.48727  1.0000
  H   H2824     1.0  0.86564  0.14629  0.47241  1.0000
  C   C2820     1.0  0.84920  0.08561  0.39917  1.0000
  C   C2821     1.0  0.85966  0.09115  0.38954  1.0000
  C   C2822     1.0  0.86673  0.09879  0.39322  1.0000
  C   C2823     1.0  0.86334  0.10114  0.40648  1.0000
  C   C2824     1.0  0.85237  0.09623  0.41595  1.0000
  C   C2825     1.0  0.84537  0.08842  0.41231  1.0000
  C   C2826     1.0  0.89966  0.14922  0.46117  1.0000
  H   H2825     1.0  0.70567  0.30140  0.38732  1.0000
  H   H2826     1.0  0.84974  0.09785  0.42625  1.0000
  H   H2827     1.0  0.83725  0.08418  0.41982  1.0000
  C   C2827     1.0  0.59485  0.34808  0.38743  1.0000
  C   C2828     1.0  0.88370  0.06616  0.40277  1.0000
  C   C2829     1.0  0.90877  0.17201  0.40495  1.0000
  C   C2830     1.0  0.90232  0.16099  0.40899  1.0000
  C   C2831     1.0  0.90230  0.15401  0.39927  1.0000
  N   N232      1.0  0.96339  0.14601  0.38653  1.0000
  C   C2832     1.0  0.82358  0.16075  0.46507  1.0000
  H   H2828     1.0  0.90876  0.17745  0.41241  1.0000
  H   H2829     1.0  0.89742  0.14541  0.40238  1.0000
  H   H2830     1.0  0.63589  0.39748  0.47364  1.0000
  H   H2831     1.0  0.88288  0.15274  0.58174  1.0000
  H   H2832     1.0  0.87719  0.18827  0.58036  1.0000
  N   N233      1.0  0.89797  0.12864  0.48456  1.0000
  H   H2833     1.0  0.63563  0.39568  0.38787  1.0000
  H   H2834     1.0  0.89002  0.11149  0.49713  1.0000
  N   N234      1.0  0.82865  0.15228  0.48736  1.0000
  C   C2833     1.0  0.58899  0.36185  0.38751  1.0000
  C   C2834     1.0  0.91906  0.15976  0.56440  1.0000
  S   S969      1.0  0.80501  0.14804  0.38691  1.0000
  C   C2835     1.0  0.58422  0.43522  0.39538  1.0000
  C   C2836     1.0  0.59428  0.42822  0.40289  1.0000
  C   C2837     1.0  0.89124  0.07554  0.40240  1.0000
  C   C2838     1.0  0.91506  0.17618  0.39125  1.0000
  H   H2835     1.0  0.60835  0.41325  0.42134  1.0000
  H   H2836     1.0  0.90093  0.14265  0.49450  1.0000
  C   C2839     1.0  0.83097  0.15492  0.49955  1.0000
  C   C2840     1.0  0.60501  0.35761  0.57245  1.0000
  H   H2837     1.0  0.89340  0.12196  0.50624  1.0000
  H   H2838     1.0  0.82134  0.14581  0.45556  1.0000
  H   H2839     1.0  0.61480  0.35499  0.56558  1.0000
  H   H2840     1.0  0.89484  0.11686  0.47230  1.0000
  C   C2841     1.0  0.85604  0.08914  0.57733  1.0000
  H   H2841     1.0  0.90766  0.11102  0.49705  1.0000
  H   H2842     1.0  0.59211  0.38754  0.52177  1.0000
  N   N235      1.0  0.59666  0.41433  0.40704  1.0000
  H   H2843     1.0  0.61309  0.39333  0.47958  1.0000
  C   C2842     1.0  0.90796  0.17850  0.57581  1.0000
  C   C2843     1.0  0.57663  0.42792  0.39210  1.0000
  C   C2844     1.0  0.60723  0.40786  0.57706  1.0000
  H   H2844     1.0  0.66231  0.40062  0.38529  1.0000
  C   C2845     1.0  0.63469  0.36472  0.48365  1.0000
  C   C2846     1.0  0.64756  0.36786  0.47744  1.0000
  C   C2847     1.0  0.65511  0.37084  0.48518  1.0000
  C   C2848     1.0  0.64986  0.37075  0.49915  1.0000
  C   C2849     1.0  0.63716  0.36723  0.50542  1.0000
  C   C2850     1.0  0.62964  0.36421  0.49770  1.0000
  H   H2845     1.0  0.65159  0.36826  0.46664  1.0000
  H   H2846     1.0  0.66495  0.37353  0.48026  1.0000
  H   H2847     1.0  0.63302  0.36707  0.51618  1.0000
  H   H2848     1.0  0.61974  0.36167  0.50262  1.0000
  C   C2851     1.0  0.84986  0.10298  0.57358  1.0000
  C   C2852     1.0  0.69294  0.35610  0.57839  1.0000
  C   C2853     1.0  0.59206  0.36820  0.39621  1.0000
  C   C2854     1.0  0.60117  0.36092  0.40476  1.0000
  C   C2855     1.0  0.60726  0.34720  0.40453  1.0000
  C   C2856     1.0  0.60399  0.34078  0.39597  1.0000
  H   H2849     1.0  0.58734  0.37882  0.39627  1.0000
  H   H2850     1.0  0.90802  0.15702  0.55102  1.0000
  H   H2851     1.0  0.61432  0.34150  0.41107  1.0000
  H   H2852     1.0  0.90024  0.09223  0.58056  1.0000
  C   C2857     1.0  0.63820  0.42193  0.40413  1.0000
  C   C2858     1.0  0.63822  0.41359  0.41711  1.0000
  C   C2859     1.0  0.64655  0.40040  0.41858  1.0000
  C   C2860     1.0  0.65506  0.39562  0.40710  1.0000
  C   C2861     1.0  0.65565  0.40424  0.39419  1.0000
  H   H2853     1.0  0.64303  0.40035  0.48605  1.0000
  H   H2854     1.0  0.63152  0.41720  0.42600  1.0000
  H   H2855     1.0  0.64640  0.39391  0.42861  1.0000
  N   N236      1.0  0.89924  0.08093  0.39039  1.0000
  H   H2856     1.0  0.82185  0.16914  0.45647  1.0000
  C   C2862     1.0  0.66701  0.28462  0.41369  1.0000
  C   C2863     1.0  0.66187  0.29845  0.40841  1.0000
  C   C2864     1.0  0.65799  0.30807  0.41681  1.0000
  C   C2865     1.0  0.65955  0.30385  0.43036  1.0000
  C   C2866     1.0  0.66471  0.29008  0.43549  1.0000
  C   C2867     1.0  0.66826  0.28053  0.42726  1.0000
  H   H2857     1.0  0.66068  0.30166  0.39798  1.0000
  H   H2858     1.0  0.65400  0.31871  0.41277  1.0000
  H   H2859     1.0  0.66596  0.28674  0.44591  1.0000
  H   H2860     1.0  0.67213  0.26988  0.43143  1.0000
  C   C2868     1.0  0.81078  0.15238  0.39908  1.0000
  C   C2869     1.0  0.80530  0.16495  0.40294  1.0000
  C   C2870     1.0  0.81061  0.16824  0.41235  1.0000
  C   C2871     1.0  0.82150  0.15904  0.41771  1.0000
  C   C2872     1.0  0.82700  0.14652  0.41375  1.0000
  C   C2873     1.0  0.82155  0.14315  0.40456  1.0000
  H   H2861     1.0  0.79698  0.17211  0.39872  1.0000
  H   H2862     1.0  0.80635  0.17795  0.41540  1.0000
  H   H2863     1.0  0.83540  0.13937  0.41783  1.0000
  H   H2864     1.0  0.82576  0.13338  0.40163  1.0000
  C   C2874     1.0  0.82577  0.13685  0.47549  1.0000
  H   H2865     1.0  0.90007  0.15730  0.45205  1.0000
  C   C2875     1.0  0.68199  0.34111  0.40484  1.0000
  C   C2876     1.0  0.63347  0.40293  0.48210  1.0000
  H   H2866     1.0  0.82651  0.17314  0.47695  1.0000
  S   S970      1.0  0.62631  0.43760  0.40222  1.0000
  H   H2867     1.0  0.89011  0.07901  0.41164  1.0000
  C   C2877     1.0  0.62101  0.39975  0.50599  1.0000
  H   H2868     1.0  0.83040  0.13088  0.49532  1.0000
  H   H2869     1.0  0.65999  0.39125  0.57515  1.0000
  S   S971      1.0  0.65840  0.34598  0.57681  1.0000
  C   C2878     1.0  0.63683  0.38531  0.38621  1.0000
  H   H2870     1.0  0.89650  0.13504  0.45137  1.0000
  H   H2871     1.0  0.68740  0.30715  0.41837  1.0000
  H   H2872     1.0  0.80299  0.12150  0.38954  1.0000
  H   H2873     1.0  0.58256  0.44621  0.39180  1.0000
  C   C2879     1.0  0.69470  0.30296  0.39284  1.0000
  C   C2880     1.0  0.61018  0.39582  0.51650  1.0000
  H   H2874     1.0  0.82105  0.15958  0.50574  1.0000
  N   N237      1.0  0.69033  0.31607  0.39707  1.0000
  C   C2881     1.0  0.96222  0.13177  0.38965  1.0000
  H   H2875     1.0  0.59384  0.38617  0.49782  1.0000
  H   H2876     1.0  0.60563  0.39716  0.42087  1.0000
  N   N238      1.0  0.62203  0.39874  0.49294  1.0000
  H   H2877     1.0  0.82599  0.12653  0.47502  1.0000
  H   H2878     1.0  0.60018  0.43398  0.40531  1.0000
  H   H2879     1.0  0.69340  0.29421  0.40162  1.0000
  H   H2880     1.0  0.67973  0.32927  0.42545  1.0000
  C   C2882     1.0  0.81155  0.10073  0.38740  1.0000
  H   H2881     1.0  0.90939  0.09005  0.39962  1.0000
  H   H2882     1.0  0.88805  0.20041  0.57634  1.0000
  C   C2883     1.0  0.64705  0.41731  0.39268  1.0000
  C   C2884     1.0  0.90100  0.15132  0.47333  1.0000
  C   C2885     1.0  0.68270  0.32900  0.41469  1.0000
  C   C2886     1.0  0.89741  0.17438  0.56027  1.0000
  N   N239      1.0  0.64408  0.32692  0.48229  1.0000
  C   C2887     1.0  0.64079  0.33020  0.49480  1.0000
  C   C2888     1.0  0.65682  0.32737  0.47399  1.0000
  C   C2889     1.0  0.65041  0.33402  0.49932  1.0000
  C   C2890     1.0  0.66659  0.33140  0.47808  1.0000
  C   C2891     1.0  0.66332  0.33477  0.49083  1.0000
  C   C2892     1.0  0.63366  0.32324  0.47775  1.0000
  H   H2883     1.0  0.63057  0.33020  0.50122  1.0000
  H   H2884     1.0  0.65944  0.32475  0.46407  1.0000
  H   H2885     1.0  0.64768  0.33689  0.50914  1.0000
  H   H2886     1.0  0.67656  0.33205  0.47134  1.0000
  H   H2887     1.0  0.67066  0.33821  0.49405  1.0000
  H   H2888     1.0  0.62493  0.33218  0.47650  1.0000
  H   H2889     1.0  0.63785  0.32001  0.46780  1.0000
  H   H2890     1.0  0.62976  0.31465  0.48533  1.0000
  H   H2891     1.0  0.61764  0.40533  0.40715  1.0000
  H   H2892     1.0  0.57364  0.40796  0.39336  1.0000
  C   C2893     1.0  0.60759  0.40714  0.41447  1.0000
  C   C2894     1.0  0.60131  0.39016  0.50019  1.0000
  H   H2893     1.0  0.60947  0.39640  0.52690  1.0000
  C   C2895     1.0  0.89729  0.11771  0.49684  1.0000
  S   S972      1.0  0.89899  0.12769  0.57328  1.0000
  C   C2896     1.0  0.89680  0.12644  0.47263  1.0000
  C   C2897     1.0  0.90895  0.15797  0.38558  1.0000
  C   C2898     1.0  0.68556  0.34058  0.39106  1.0000
  H   H2894     1.0  0.85182  0.10820  0.56300  1.0000
  C   C2899     1.0  0.61222  0.39427  0.48990  1.0000
  C   C2900     1.0  0.82627  0.16292  0.47664  1.0000
  C   C2901     1.0  0.82331  0.14763  0.46454  1.0000
  H   H2895     1.0  0.88106  0.19821  0.56337  1.0000
  S   S973      1.0  0.83431  0.12756  0.57912  1.0000
  C   C2902     1.0  0.91898  0.16746  0.57346  1.0000
  C   C2903     1.0  0.88538  0.19275  0.57252  1.0000
  C   C2904     1.0  0.58340  0.37354  0.57818  1.0000
  C   C2905     1.0  0.97579  0.16265  0.38575  1.0000
  S   S974      1.0  0.63384  0.37980  0.56823  1.0000
  C   C2906     1.0  0.64619  0.42403  0.57876  1.0000
  H   H2896     1.0  0.63156  0.37942  0.39588  1.0000
  C   C2907     1.0  0.64988  0.41250  0.57295  1.0000
  C   C2908     1.0  0.90826  0.16326  0.55770  1.0000
  S   S975      1.0  0.86116  0.14620  0.57690  1.0000
  H   H2897     1.0  0.72141  0.32759  0.57792  1.0000
  H   H2898     1.0  0.92702  0.16447  0.57918  1.0000
  N   N240      1.0  0.89739  0.18185  0.56920  1.0000
  H   H2899     1.0  0.84835  0.13837  0.38388  1.0000
  H   H2900     1.0  0.69926  0.32593  0.57465  1.0000
  H   H2901     1.0  0.74484  0.23481  0.38322  1.0000
  C   C2909     1.0  0.84545  0.18757  0.58001  1.0000
  H   H2902     1.0  0.98494  0.16498  0.38690  1.0000
  H   H2903     1.0  0.85020  0.20645  0.57985  1.0000
  C   C2910     1.0  0.68144  0.35564  0.57403  1.0000
  H   H2904     1.0  0.70032  0.36184  0.57159  1.0000
  H   H2905     1.0  0.64061  0.43358  0.57370  1.0000
  H   H2906     1.0  0.98277  0.14106  0.39218  1.0000
  C   C2911     1.0  0.68973  0.32790  0.38733  1.0000
  H   H2907     1.0  0.88879  0.17680  0.55540  1.0000
  H   H2908     1.0  0.67866  0.35088  0.40787  1.0000
  H   H2909     1.0  0.60862  0.41322  0.56647  1.0000
  C   C2912     1.0  0.59616  0.37027  0.56934  1.0000
  H   H2910     1.0  0.57646  0.38327  0.57573  1.0000
  H   H2911     1.0  0.83305  0.16901  0.38692  1.0000
  H   H2912     1.0  0.68508  0.34994  0.38332  1.0000
  H   H2913     1.0  0.62173  0.41632  0.58138  1.0000
  H   H2914     1.0  0.81839  0.08071  0.38290  1.0000
  H   H2915     1.0  0.50693  0.33962  0.38227  1.0000
  C   C2913     1.0  0.80378  0.11389  0.38393  1.0000
  H   H2916     1.0  0.95704  0.13005  0.38245  1.0000
  Fe  Fe489     1.0  0.57333  0.35213  0.62554  1.0000
  S   S976      1.0  0.55554  0.37018  0.62528  1.0000
  S   S977      1.0  0.58464  0.34046  0.60916  1.0000
  Fe  Fe490     1.0  0.57697  0.35256  0.65328  1.0000
  S   S978      1.0  0.55920  0.37058  0.65585  1.0000
  S   S979      1.0  0.59459  0.34183  0.66379  1.0000
  Fe  Fe491     1.0  0.54817  0.36014  0.64707  1.0000
  S   S980      1.0  0.52575  0.35901  0.65625  1.0000
  Fe  Fe492     1.0  0.56773  0.37924  0.63392  1.0000
  S   S981      1.0  0.57170  0.40037  0.62500  1.0000
  S   S982      1.0  0.56525  0.34127  0.64668  1.0000
  S   S983      1.0  0.58613  0.36218  0.63196  1.0000
  S   S984      1.0  0.66084  0.43306  0.63790  1.0000
  Fe  Fe493     1.0  0.62319  0.42760  0.64785  1.0000
  S   S985      1.0  0.64174  0.41058  0.64695  1.0000
  S   S986      1.0  0.60347  0.42014  0.65733  1.0000
  Fe  Fe494     1.0  0.64995  0.42146  0.65753  1.0000
  S   S987      1.0  0.65718  0.40671  0.67576  1.0000
  Fe  Fe495     1.0  0.65090  0.42333  0.62744  1.0000
  H   H2917     1.0  0.78253  0.38912  0.76437  1.0000
  S   S988      1.0  0.63072  0.43791  0.65978  1.0000
  S   S989      1.0  0.63160  0.43984  0.62741  1.0000
  Fe  Fe496     1.0  0.83056  0.15392  0.70476  1.0000
  S   S990      1.0  0.80870  0.15926  0.71578  1.0000
  S   S991      1.0  0.84378  0.16911  0.69446  1.0000
  Fe  Fe497     1.0  0.83033  0.12431  0.70855  1.0000
  S   S992      1.0  0.80820  0.12668  0.72018  1.0000
  S   S993      1.0  0.84576  0.10559  0.70297  1.0000
  Fe  Fe498     1.0  0.80477  0.14598  0.70439  1.0000
  S   S994      1.0  0.78558  0.15385  0.69631  1.0000
  Fe  Fe499     1.0  0.81365  0.13979  0.73086  1.0000
  S   S995      1.0  0.80484  0.14217  0.75256  1.0000
  S   S996      1.0  0.82624  0.14246  0.69172  1.0000
  S   S997      1.0  0.83616  0.13562  0.72085  1.0000
  H   H2918     1.0  0.64351  0.39536  0.72339  1.0000
  C   C2914     1.0  0.87626  0.30871  0.73583  1.0000
  H   H2919     1.0  0.75169  0.12796  0.75020  1.0000
  C   C2915     1.0  0.77759  0.37023  0.71052  1.0000
  S   S998      1.0  0.83285  0.39011  0.76248  1.0000
  H   H2920     1.0  0.77749  0.24618  0.65877  1.0000
  C   C2916     1.0  0.51779  0.36135  0.63226  1.0000
  C   C2917     1.0  0.89321  0.28843  0.73123  1.0000
  Fe  Fe500     1.0  0.64081  0.44898  0.63933  1.0000
  H   H2921     1.0  0.61505  0.26921  0.76958  1.0000
  H   H2922     1.0  0.89613  0.27881  0.72795  1.0000
  H   H2923     1.0  0.72072  0.29301  0.61091  1.0000
  C   C2918     1.0  0.74851  0.38070  0.76354  1.0000
  S   S999      1.0  0.88388  0.34002  0.75967  1.0000
  Fe  Fe501     1.0  0.87210  0.21159  0.72407  1.0000
  S   S1000     1.0  0.85981  0.23281  0.72476  1.0000
  S   S1001     1.0  0.86171  0.19384  0.73402  1.0000
  Fe  Fe502     1.0  0.89733  0.22147  0.70591  1.0000
  S   S1002     1.0  0.88695  0.24373  0.70474  1.0000
  S   S1003     1.0  0.91745  0.21327  0.69228  1.0000
  Fe  Fe503     1.0  0.87891  0.23717  0.72740  1.0000
  S   S1004     1.0  0.87303  0.25097  0.74264  1.0000
  Fe  Fe504     1.0  0.86862  0.23780  0.70239  1.0000
  S   S1005     1.0  0.85502  0.24951  0.68754  1.0000
  S   S1006     1.0  0.89056  0.21520  0.72877  1.0000
  S   S1007     1.0  0.87969  0.21646  0.70156  1.0000
  Fe  Fe505     1.0  0.63539  0.34456  0.73437  1.0000
  S   S1008     1.0  0.64655  0.32394  0.74356  1.0000
  S   S1009     1.0  0.64348  0.36373  0.72739  1.0000
  Fe  Fe506     1.0  0.61245  0.33374  0.73123  1.0000
  S   S1010     1.0  0.62155  0.31200  0.73985  1.0000
  S   S1011     1.0  0.59194  0.34076  0.72529  1.0000
  Fe  Fe507     1.0  0.62572  0.32048  0.75549  1.0000
  H   H2924     1.0  0.69292  0.39072  0.65924  1.0000
  Fe  Fe508     1.0  0.64166  0.31685  0.72745  1.0000
  S   S1012     1.0  0.65902  0.30207  0.71746  1.0000
  S   S1013     1.0  0.61489  0.34204  0.74792  1.0000
  S   S1014     1.0  0.63220  0.33780  0.71714  1.0000
  Fe  Fe509     1.0  0.71043  0.36971  0.73690  1.0000
  S   S1015     1.0  0.73218  0.35821  0.73755  1.0000
  S   S1016     1.0  0.69220  0.36366  0.75271  1.0000
  Fe  Fe510     1.0  0.71838  0.38847  0.70992  1.0000
  S   S1017     1.0  0.74082  0.37873  0.70807  1.0000
  S   S1018     1.0  0.71093  0.40597  0.69351  1.0000
  Fe  Fe511     1.0  0.73411  0.35889  0.71547  1.0000
  S   S1019     1.0  0.74286  0.34046  0.70608  1.0000
  Fe  Fe512     1.0  0.73732  0.37893  0.73035  1.0000
  S   S1020     1.0  0.75487  0.38468  0.73518  1.0000
  S   S1021     1.0  0.71210  0.36851  0.71544  1.0000
  S   S1022     1.0  0.71526  0.39049  0.73154  1.0000
  Fe  Fe513     1.0  0.79660  0.22084  0.65499  1.0000
  S   S1023     1.0  0.81546  0.20521  0.64923  1.0000
  S   S1024     1.0  0.78004  0.21720  0.67367  1.0000
  Fe  Fe514     1.0  0.80412  0.24201  0.62993  1.0000
  S   S1025     1.0  0.82404  0.22817  0.62164  1.0000
  S   S1026     1.0  0.79709  0.26443  0.62118  1.0000
  Fe  Fe515     1.0  0.81155  0.21208  0.62819  1.0000
  Fe  Fe516     1.0  0.82653  0.22218  0.64326  1.0000
  S   S1027     1.0  0.84666  0.21600  0.64971  1.0000
  S   S1028     1.0  0.79142  0.22638  0.63452  1.0000
  S   S1029     1.0  0.80795  0.23733  0.65104  1.0000
  Fe  Fe517     1.0  0.71192  0.33687  0.61718  1.0000
  S   S1030     1.0  0.70396  0.31803  0.62764  1.0000
  Fe  Fe518     1.0  0.72105  0.33794  0.64205  1.0000
  S   S1031     1.0  0.71388  0.31906  0.65477  1.0000
  S   S1032     1.0  0.72729  0.35357  0.64882  1.0000
  Fe  Fe519     1.0  0.72334  0.31074  0.63561  1.0000
  S   S1033     1.0  0.73283  0.28850  0.63549  1.0000
  Fe  Fe520     1.0  0.69527  0.32787  0.64561  1.0000
  S   S1034     1.0  0.67288  0.33087  0.65563  1.0000
  S   S1035     1.0  0.73214  0.32896  0.62360  1.0000
  S   S1036     1.0  0.70167  0.34732  0.63448  1.0000
  H   H2925     1.0  0.68680  0.33617  0.61014  1.0000
  S   S1037     1.0  0.93564  0.13663  0.65944  1.0000
  Fe  Fe521     1.0  0.91916  0.15174  0.62762  1.0000
  S   S1038     1.0  0.90711  0.14501  0.64858  1.0000
  H   H2926     1.0  0.77987  0.37632  0.71620  1.0000
  Fe  Fe522     1.0  0.91904  0.15545  0.65579  1.0000
  S   S1039     1.0  0.90557  0.16720  0.67173  1.0000
  Fe  Fe523     1.0  0.92445  0.12683  0.65032  1.0000
  S   S1040     1.0  0.91660  0.10764  0.66109  1.0000
  S   S1041     1.0  0.92978  0.16381  0.63464  1.0000
  S   S1042     1.0  0.93600  0.13282  0.62872  1.0000
  Fe  Fe524     1.0  0.85464  0.06923  0.64531  1.0000
  S   S1043     1.0  0.87327  0.05561  0.65275  1.0000
  S   S1044     1.0  0.83649  0.08191  0.65741  1.0000
  Fe  Fe525     1.0  0.86504  0.06266  0.61724  1.0000
  S   S1045     1.0  0.88442  0.04877  0.62233  1.0000
  C   C2919     1.0  0.75211  0.16417  0.75218  1.0000
  Fe  Fe526     1.0  0.87063  0.04074  0.64188  1.0000
  S   S1046     1.0  0.87325  0.01786  0.65023  1.0000
  Fe  Fe527     1.0  0.88508  0.06495  0.63239  1.0000
  S   S1047     1.0  0.90446  0.07304  0.62609  1.0000
  S   S1048     1.0  0.85110  0.05369  0.63608  1.0000
  S   S1049     1.0  0.86663  0.07952  0.62572  1.0000
  H   H2927     1.0  0.96873  0.17190  0.68053  1.0000
  C   C2920     1.0  0.86608  0.00735  0.64455  1.0000
  C   C2921     1.0  0.85544  0.01279  0.63750  1.0000
  C   C2922     1.0  0.85008  0.00410  0.63309  1.0000
  N   N241      1.0  0.58629  0.30373  0.76626  1.0000
  H   H2928     1.0  0.68698  0.20118  0.78062  1.0000
  N   N242      1.0  0.72233  0.31042  0.59459  1.0000
  H   H2929     1.0  0.85128  0.02367  0.63547  1.0000
  H   H2930     1.0  0.84185  0.00843  0.62765  1.0000
  N   N243      1.0  0.88567  0.21702  0.65773  1.0000
  H   H2931     1.0  0.66667  0.47784  0.62118  1.0000
  C   C2923     1.0  0.51451  0.35818  0.64652  1.0000
  H   H2932     1.0  0.96752  0.14018  0.65822  1.0000
  H   H2933     1.0  0.61755  0.40051  0.61830  1.0000
  H   H2934     1.0  0.87645  0.03600  0.60477  1.0000
  C   C2924     1.0  0.91250  0.09884  0.65103  1.0000
  C   C2925     1.0  0.90307  0.09035  0.65707  1.0000
  C   C2926     1.0  0.90009  0.08281  0.64938  1.0000
  C   C2927     1.0  0.90692  0.08333  0.63572  1.0000
  C   C2928     1.0  0.91631  0.09185  0.62968  1.0000
  C   C2929     1.0  0.91891  0.09977  0.63723  1.0000
  H   H2935     1.0  0.89818  0.08944  0.66776  1.0000
  H   H2936     1.0  0.89290  0.07620  0.65414  1.0000
  H   H2937     1.0  0.92177  0.09217  0.61918  1.0000
  H   H2938     1.0  0.92630  0.10614  0.63252  1.0000
  C   C2930     1.0  0.67974  0.38608  0.63484  1.0000
  H   H2939     1.0  0.69842  0.35869  0.67091  1.0000
  C   C2931     1.0  0.77920  0.27136  0.62388  1.0000
  C   C2932     1.0  0.77422  0.28544  0.62316  1.0000
  C   C2933     1.0  0.75996  0.29098  0.62631  1.0000
  C   C2934     1.0  0.75066  0.28244  0.63003  1.0000
  C   C2935     1.0  0.75563  0.26848  0.63021  1.0000
  C   C2936     1.0  0.76984  0.26295  0.62721  1.0000
  H   H2940     1.0  0.78142  0.29201  0.62050  1.0000
  H   H2941     1.0  0.75622  0.30177  0.62614  1.0000
  H   H2942     1.0  0.74848  0.26185  0.63294  1.0000
  H   H2943     1.0  0.77353  0.25217  0.62747  1.0000
  C   C2937     1.0  0.73820  0.34390  0.69035  1.0000
  C   C2938     1.0  0.73437  0.35740  0.68351  1.0000
  C   C2939     1.0  0.73104  0.36020  0.67078  1.0000
  C   C2940     1.0  0.73127  0.34954  0.66492  1.0000
  C   C2941     1.0  0.73473  0.33602  0.67190  1.0000
  C   C2942     1.0  0.73836  0.33320  0.68456  1.0000
  H   H2944     1.0  0.73422  0.36572  0.68790  1.0000
  H   H2945     1.0  0.72834  0.37067  0.66543  1.0000
  H   H2946     1.0  0.73495  0.32775  0.66740  1.0000
  H   H2947     1.0  0.74127  0.32275  0.68987  1.0000
  C   C2943     1.0  0.65728  0.36296  0.73438  1.0000
  C   C2944     1.0  0.65856  0.35497  0.74728  1.0000
  C   C2945     1.0  0.66935  0.35515  0.75290  1.0000
  C   C2946     1.0  0.67899  0.36308  0.74551  1.0000
  C   C2947     1.0  0.67780  0.37080  0.73251  1.0000
  C   C2948     1.0  0.66696  0.37077  0.72698  1.0000
  H   H2948     1.0  0.65104  0.34896  0.75309  1.0000
  H   H2949     1.0  0.67019  0.34919  0.76299  1.0000
  H   H2950     1.0  0.68487  0.37729  0.72692  1.0000
  H   H2951     1.0  0.66602  0.37690  0.71699  1.0000
  C   C2949     1.0  0.66274  0.30879  0.69992  1.0000
  C   C2950     1.0  0.67627  0.30608  0.69232  1.0000
  C   C2951     1.0  0.67944  0.31253  0.67853  1.0000
  C   C2952     1.0  0.66906  0.32164  0.67238  1.0000
  C   C2953     1.0  0.65548  0.32400  0.67988  1.0000
  C   C2954     1.0  0.65232  0.31756  0.69363  1.0000
  H   H2952     1.0  0.68432  0.29924  0.69716  1.0000
  H   H2953     1.0  0.68989  0.31051  0.67272  1.0000
  H   H2954     1.0  0.64741  0.33092  0.67510  1.0000
  H   H2955     1.0  0.64178  0.31926  0.69932  1.0000
  C   C2955     1.0  0.91110  0.17827  0.67805  1.0000
  C   C2956     1.0  0.90398  0.18106  0.69084  1.0000
  C   C2957     1.0  0.90683  0.19099  0.69570  1.0000
  C   C2958     1.0  0.91650  0.19859  0.68763  1.0000
  C   C2959     1.0  0.92411  0.19541  0.67503  1.0000
  C   C2960     1.0  0.92141  0.18524  0.67023  1.0000
  H   H2956     1.0  0.89604  0.17569  0.69698  1.0000
  H   H2957     1.0  0.90125  0.19301  0.70563  1.0000
  H   H2958     1.0  0.93157  0.20129  0.66871  1.0000
  H   H2959     1.0  0.92683  0.18324  0.66026  1.0000
  C   C2961     1.0  0.85141  0.24003  0.67787  1.0000
  C   C2962     1.0  0.84493  0.24685  0.66701  1.0000
  C   C2963     1.0  0.84270  0.23946  0.65870  1.0000
  C   C2964     1.0  0.84706  0.22525  0.66122  1.0000
  C   C2965     1.0  0.85292  0.21840  0.67242  1.0000
  C   C2966     1.0  0.85497  0.22577  0.68078  1.0000
  H   H2960     1.0  0.84196  0.25787  0.66479  1.0000
  H   H2961     1.0  0.83815  0.24480  0.65002  1.0000
  H   H2962     1.0  0.85599  0.20739  0.67460  1.0000
  H   H2963     1.0  0.85916  0.22033  0.68954  1.0000
  H   H2964     1.0  0.88289  0.17067  0.66033  1.0000
  H   H2965     1.0  0.76727  0.34120  0.71508  1.0000
  C   C2967     1.0  0.77087  0.35537  0.69594  1.0000
  C   C2968     1.0  0.89750  0.26774  0.76236  1.0000
  C   C2969     1.0  0.88320  0.27198  0.76423  1.0000
  C   C2970     1.0  0.87603  0.26689  0.75785  1.0000
  C   C2971     1.0  0.88299  0.25730  0.74970  1.0000
  C   C2972     1.0  0.89731  0.25295  0.74781  1.0000
  C   C2973     1.0  0.90455  0.25820  0.75411  1.0000
  S   S1050     1.0  0.71033  0.34837  0.59593  1.0000
  H   H2966     1.0  0.86495  0.27025  0.75942  1.0000
  H   H2967     1.0  0.90278  0.24551  0.74158  1.0000
  H   H2968     1.0  0.91562  0.25479  0.75264  1.0000
  C   C2974     1.0  0.84677  0.37594  0.76215  1.0000
  C   C2975     1.0  0.85789  0.37629  0.75091  1.0000
  C   C2976     1.0  0.86920  0.36521  0.75031  1.0000
  C   C2977     1.0  0.86945  0.35367  0.76093  1.0000
  C   C2978     1.0  0.87128  0.99316  0.64713  1.0000
  C   C2979     1.0  0.52477  0.39868  0.62113  1.0000
  H   H2969     1.0  0.85776  0.38516  0.74262  1.0000
  H   H2970     1.0  0.87776  0.36559  0.74158  1.0000
  C   C2980     1.0  0.85552  0.98995  0.63538  1.0000
  H   H2971     1.0  0.89282  0.00171  0.62198  1.0000
  H   H2972     1.0  0.85391  0.42872  0.77416  1.0000
  C   C2981     1.0  0.75793  0.38398  0.75130  1.0000
  C   C2982     1.0  0.77022  0.38693  0.75173  1.0000
  C   C2983     1.0  0.77307  0.38673  0.76423  1.0000
  H   H2973     1.0  0.87253  0.29305  0.72828  1.0000
  C   C2984     1.0  0.97034  0.17304  0.66960  1.0000
  H   H2974     1.0  0.77755  0.38953  0.74233  1.0000
  H   H2975     1.0  0.73716  0.30632  0.60678  1.0000
  C   C2985     1.0  0.84355  0.09998  0.68945  1.0000
  C   C2986     1.0  0.83118  0.10463  0.68502  1.0000
  C   C2987     1.0  0.82929  0.09937  0.67480  1.0000
  C   C2988     1.0  0.83984  0.08960  0.66883  1.0000
  C   C2989     1.0  0.85235  0.08525  0.67298  1.0000
  C   C2990     1.0  0.85415  0.09035  0.68337  1.0000
  H   H2976     1.0  0.82292  0.11197  0.68977  1.0000
  H   H2977     1.0  0.81954  0.10263  0.67173  1.0000
  H   H2978     1.0  0.86053  0.07773  0.66845  1.0000
  H   H2979     1.0  0.86376  0.08674  0.68674  1.0000
  C   C2991     1.0  0.78401  0.17144  0.69005  1.0000
  C   C2992     1.0  0.79573  0.17698  0.68586  1.0000
  C   C2993     1.0  0.79452  0.19103  0.68079  1.0000
  C   C2994     1.0  0.78158  0.19962  0.68012  1.0000
  C   C2995     1.0  0.76984  0.19410  0.68446  1.0000
  C   C2996     1.0  0.77108  0.17998  0.68924  1.0000
  H   H2980     1.0  0.80576  0.17044  0.68642  1.0000
  H   H2981     1.0  0.80360  0.19521  0.67766  1.0000
  H   H2982     1.0  0.75982  0.20070  0.68393  1.0000
  H   H2983     1.0  0.76201  0.17571  0.69246  1.0000
  C   C2997     1.0  0.84967  0.17467  0.70576  1.0000
  C   C2998     1.0  0.85978  0.18237  0.70055  1.0000
  C   C2999     1.0  0.86396  0.18774  0.70926  1.0000
  C   C3000     1.0  0.85788  0.18572  0.72319  1.0000
  C   C3001     1.0  0.84814  0.17754  0.72849  1.0000
  C   C3002     1.0  0.84407  0.17196  0.71980  1.0000
  H   H2984     1.0  0.86442  0.18419  0.68976  1.0000
  H   H2985     1.0  0.87203  0.19325  0.70517  1.0000
  H   H2986     1.0  0.84352  0.17576  0.73929  1.0000
  H   H2987     1.0  0.83631  0.16592  0.72393  1.0000
  C   C3003     1.0  0.78995  0.13592  0.76105  1.0000
  C   C3004     1.0  0.78005  0.14283  0.77049  1.0000
  H   H2988     1.0  0.82095  0.17309  0.60407  1.0000
  H   H2989     1.0  0.84678  0.19952  0.62339  1.0000
  N   N244      1.0  0.51171  0.39258  0.64395  1.0000
  H   H2990     1.0  0.66690  0.39010  0.59642  1.0000
  C   C3005     1.0  0.53330  0.39883  0.64034  1.0000
  H   H2991     1.0  0.52062  0.39267  0.66002  1.0000
  H   H2992     1.0  0.73900  0.37844  0.76336  1.0000
  H   H2993     1.0  0.77009  0.13945  0.73508  1.0000
  C   C3006     1.0  0.88120  0.17452  0.63943  1.0000
  Fe  Fe528     1.0  0.81630  0.38849  0.78152  1.0000
  C   C3007     1.0  0.67303  0.40599  0.67920  1.0000
  C   C3008     1.0  0.67807  0.39503  0.68900  1.0000
  C   C3009     1.0  0.68995  0.39470  0.69312  1.0000
  C   C3010     1.0  0.69695  0.40530  0.68738  1.0000
  C   C3011     1.0  0.69216  0.41605  0.67720  1.0000
  C   C3012     1.0  0.68022  0.41640  0.67309  1.0000
  H   H2994     1.0  0.67258  0.38691  0.69365  1.0000
  H   H2995     1.0  0.69339  0.38647  0.70103  1.0000
  H   H2996     1.0  0.69752  0.42430  0.67272  1.0000
  H   H2997     1.0  0.67636  0.42491  0.66550  1.0000
  H   H2998     1.0  0.78615  0.26711  0.65457  1.0000
  C   C3013     1.0  0.76582  0.27993  0.65863  1.0000
  H   H2999     1.0  0.75826  0.23763  0.65715  1.0000
  H   H3000     1.0  0.74091  0.24625  0.66294  1.0000
  H   H3001     1.0  0.52776  0.36347  0.62691  1.0000
  H   H3002     1.0  0.74434  0.29006  0.66232  1.0000
  H   H3003     1.0  0.75185  0.23773  0.67503  1.0000
  C   C3014     1.0  0.58101  0.40551  0.63380  1.0000
  C   C3015     1.0  0.58048  0.40003  0.64768  1.0000
  C   C3016     1.0  0.58737  0.40470  0.65473  1.0000
  C   C3017     1.0  0.59539  0.41437  0.64786  1.0000
  C   C3018     1.0  0.59629  0.41957  0.63388  1.0000
  C   C3019     1.0  0.58887  0.41535  0.62693  1.0000
  H   H3004     1.0  0.57434  0.39258  0.65310  1.0000
  H   H3005     1.0  0.58635  0.40092  0.66561  1.0000
  H   H3006     1.0  0.60225  0.42722  0.62856  1.0000
  H   H3007     1.0  0.58916  0.41977  0.61623  1.0000
  C   C3020     1.0  0.59324  0.34108  0.68111  1.0000
  C   C3021     1.0  0.60487  0.33467  0.68667  1.0000
  C   C3022     1.0  0.60448  0.33442  0.70026  1.0000
  C   C3023     1.0  0.59242  0.34053  0.70839  1.0000
  C   C3024     1.0  0.58074  0.34687  0.70289  1.0000
  C   C3025     1.0  0.58114  0.34718  0.68923  1.0000
  H   H3008     1.0  0.61425  0.32992  0.68041  1.0000
  H   H3009     1.0  0.61350  0.32941  0.70444  1.0000
  H   H3010     1.0  0.57138  0.35162  0.70916  1.0000
  H   H3011     1.0  0.57214  0.35215  0.68499  1.0000
  H   H3012     1.0  0.84535  0.41344  0.76545  1.0000
  C   C3026     1.0  0.57981  0.36438  0.59047  1.0000
  C   C3027     1.0  0.58868  0.35171  0.59357  1.0000
  H   H3013     1.0  0.69836  0.29125  0.60816  1.0000
  C   C3028     1.0  0.58703  0.29161  0.76133  1.0000
  H   H3014     1.0  0.57007  0.36701  0.59741  1.0000
  H   H3015     1.0  0.52604  0.39994  0.61022  1.0000
  C   C3029     1.0  0.89412  0.08814  0.59067  1.0000
  N   N245      1.0  0.77404  0.35801  0.71696  1.0000
  H   H3016     1.0  0.77819  0.34199  0.73394  1.0000
  H   H3017     1.0  0.79585  0.11841  0.75188  1.0000
  C   C3030     1.0  0.64966  0.42327  0.59108  1.0000
  C   C3031     1.0  0.50802  0.36208  0.62486  1.0000
  H   H3018     1.0  0.64686  0.43223  0.59543  1.0000
  H   H3019     1.0  0.97668  0.17631  0.63077  1.0000
  H   H3020     1.0  0.65098  0.26233  0.75364  1.0000
  C   C3032     1.0  0.87325  0.02736  0.60374  1.0000
  C   C3033     1.0  0.82583  0.19184  0.60413  1.0000
  C   C3034     1.0  0.65400  0.28076  0.75678  1.0000
  H   H3021     1.0  0.85841  0.34433  0.78038  1.0000
  C   C3035     1.0  0.95986  0.17238  0.66398  1.0000
  C   C3036     1.0  0.53481  0.40097  0.62628  1.0000
  C   C3037     1.0  0.64168  0.48303  0.64243  1.0000
  C   C3038     1.0  0.84482  0.08944  0.60096  1.0000
  C   C3039     1.0  0.69738  0.30838  0.59110  1.0000
  C   C3040     1.0  0.87602  0.17424  0.65331  1.0000
  N   N246      1.0  0.89876  0.30456  0.74032  1.0000
  C   C3041     1.0  0.50148  0.35542  0.65327  1.0000
  H   H3022     1.0  0.65499  0.28592  0.74612  1.0000
  H   H3023     1.0  0.99124  0.17513  0.66551  1.0000
  C   C3042     1.0  0.74155  0.15795  0.76079  1.0000
  C   C3043     1.0  0.76845  0.13765  0.77806  1.0000
  C   C3044     1.0  0.64993  0.47814  0.65206  1.0000
  H   H3024     1.0  0.91265  0.28608  0.73614  1.0000
  H   H3025     1.0  0.76995  0.17541  0.73213  1.0000
  H   H3026     1.0  0.83157  0.10859  0.60484  1.0000
  C   C3045     1.0  0.90252  0.29263  0.73583  1.0000
  C   C3046     1.0  0.99419  0.14522  0.63116  1.0000
  N   N247      1.0  0.61331  0.40250  0.59880  1.0000
  C   C3047     1.0  0.61290  0.36980  0.69545  1.0000
  H   H3027     1.0  0.65386  0.46729  0.65504  1.0000
  H   H3028     1.0  0.60799  0.36129  0.70064  1.0000
  N   N248      1.0  0.69174  0.38216  0.62584  1.0000
  H   H3029     1.0  0.73553  0.32253  0.59516  1.0000
  C   C3048     1.0  0.66099  0.39956  0.59161  1.0000
  H   H3030     1.0  0.73616  0.26906  0.66593  1.0000
  C   C3049     1.0  0.87875  0.24131  0.65029  1.0000
  C   C3050     1.0  0.87353  0.10606  0.59544  1.0000
  H   H3031     1.0  0.79164  0.18260  0.64233  1.0000
  C   C3051     1.0  0.86488  0.00553  0.60073  1.0000
  C   C3052     1.0  0.70477  0.38420  0.64070  1.0000
  H   H3032     1.0  0.77839  0.35861  0.73568  1.0000
  H   H3033     1.0  0.87433  0.22660  0.64214  1.0000
  H   H3034     1.0  0.78622  0.17501  0.66001  1.0000
  C   C3053     1.0  0.97491  0.17566  0.64165  1.0000
  H   H3035     1.0  0.74409  0.30710  0.58878  1.0000
  C   C3054     1.0  0.87995  0.29645  0.73142  1.0000
  C   C3055     1.0  0.65727  0.41109  0.59743  1.0000
  C   C3056     1.0  0.78815  0.12387  0.75907  1.0000
  H   H3036     1.0  0.68743  0.30791  0.58996  1.0000
  H   H3037     1.0  0.59714  0.28907  0.75426  1.0000
  C   C3057     1.0  0.69117  0.37959  0.61289  1.0000
  H   H3038     1.0  0.83288  0.21021  0.60112  1.0000
  C   C3058     1.0  0.83837  0.10317  0.59716  1.0000
  C   C3059     1.0  0.83717  0.17820  0.58691  1.0000
  C   C3060     1.0  0.70416  0.38122  0.62862  1.0000
  C   C3061     1.0  0.85831  0.35324  0.77220  1.0000
  C   C3062     1.0  0.85317  0.18308  0.64901  1.0000
  H   H3039     1.0  0.68261  0.48344  0.61346  1.0000
  H   H3040     1.0  0.68299  0.37399  0.61443  1.0000
  H   H3041     1.0  0.88403  0.25346  0.66100  1.0000
  C   C3063     1.0  0.91253  0.13843  0.60107  1.0000
  C   C3064     1.0  0.88597  0.20312  0.65697  1.0000
  C   C3065     1.0  0.77324  0.35299  0.73165  1.0000
  H   H3042     1.0  0.82447  0.12692  0.64314  1.0000
  C   C3066     1.0  0.81525  0.14734  0.63378  1.0000
  Fe  Fe529     1.0  0.88336  0.32170  0.77681  1.0000
  H   H3043     1.0  0.76228  0.35455  0.73720  1.0000
  H   H3044     1.0  0.80507  0.16819  0.62752  1.0000
  C   C3067     1.0  0.65332  0.28069  0.78010  1.0000
  N   N249      1.0  0.87974  0.01430  0.60859  1.0000
  H   H3045     1.0  0.81853  0.14549  0.62349  1.0000
  H   H3046     1.0  0.84290  0.08427  0.61156  1.0000
  C   C3068     1.0  0.60421  0.37152  0.67540  1.0000
  C   C3069     1.0  0.61921  0.28699  0.77298  1.0000
  C   C3070     1.0  0.83414  0.20122  0.59728  1.0000
  C   C3071     1.0  0.85800  0.01882  0.59604  1.0000
  C   C3072     1.0  0.86223  0.02982  0.59748  1.0000
  H   H3047     1.0  0.78211  0.16095  0.73928  1.0000
  C   C3073     1.0  0.59675  0.39199  0.59581  1.0000
  H   H3048     1.0  0.88090  0.99307  0.61088  1.0000
  C   C3074     1.0  0.58509  0.31619  0.75748  1.0000
  C   C3075     1.0  0.58510  0.32781  0.76168  1.0000
  C   C3076     1.0  0.89124  0.01197  0.61514  1.0000
  H   H3049     1.0  0.91343  0.30007  0.75253  1.0000
  H   H3050     1.0  0.57867  0.29349  0.75586  1.0000
  N   N250      1.0  0.98519  0.17612  0.64727  1.0000
  H   H3051     1.0  0.85786  0.17895  0.66880  1.0000
  H   H3052     1.0  0.89614  0.19863  0.65104  1.0000
  S   S1051     1.0  0.86270  0.06568  0.59591  1.0000
  H   H3053     1.0  0.70457  0.34067  0.67149  1.0000
  C   C3077     1.0  0.89169  0.23198  0.66793  1.0000
  Fe  Fe530     1.0  0.94587  0.14424  0.63763  1.0000
  C   C3078     1.0  0.90343  0.15087  0.60280  1.0000
  H   H3054     1.0  0.87768  0.20296  0.65221  1.0000
  H   H3055     1.0  0.61696  0.39246  0.66562  1.0000
  H   H3056     1.0  0.87319  0.25001  0.64406  1.0000
  C   C3079     1.0  0.51317  0.39454  0.63016  1.0000
  H   H3057     1.0  0.88536  0.16526  0.59745  1.0000
  C   C3080     1.0  0.84295  0.43034  0.77491  1.0000
  C   C3081     1.0  0.68540  0.34159  0.60007  1.0000
  S   S1052     1.0  0.81352  0.19403  0.61931  1.0000
  H   H3058     1.0  0.81693  0.13156  0.66656  1.0000
  N   N251      1.0  0.61175  0.37639  0.68243  1.0000
  C   C3082     1.0  0.87939  0.22803  0.64929  1.0000
  H   H3059     1.0  0.98494  0.14018  0.67047  1.0000
  C   C3083     1.0  0.87215  0.17893  0.63058  1.0000
  C   C3084     1.0  0.61606  0.27407  0.77707  1.0000
  C   C3085     1.0  0.76357  0.38367  0.77646  1.0000
  H   H3060     1.0  0.76785  0.34961  0.69045  1.0000
  N   N252      1.0  0.76202  0.15765  0.74288  1.0000
  H   H3061     1.0  0.68772  0.34910  0.66834  1.0000
  C   C3086     1.0  0.76196  0.14480  0.74213  1.0000
  S   S1053     1.0  0.62309  0.31018  0.77781  1.0000
  C   C3087     1.0  0.75156  0.13827  0.75058  1.0000
  C   C3088     1.0  0.74131  0.14491  0.75995  1.0000
  H   H3062     1.0  0.77677  0.16111  0.72414  1.0000
  H   H3063     1.0  0.87756  0.27894  0.77083  1.0000
  H   H3064     1.0  0.60289  0.37843  0.66546  1.0000
  H   H3065     1.0  0.85329  0.18426  0.61648  1.0000
  H   H3066     1.0  0.85576  0.12201  0.60015  1.0000
  C   C3089     1.0  0.82741  0.18032  0.59894  1.0000
  C   C3090     1.0  0.77058  0.35065  0.70989  1.0000
  H   H3067     1.0  0.68890  0.38944  0.60557  1.0000
  C   C3091     1.0  0.98762  0.14145  0.65949  1.0000
  N   N253      1.0  0.88639  0.09941  0.59749  1.0000
  C   C3092     1.0  0.89234  0.10364  0.60530  1.0000
  C   C3093     1.0  0.65481  0.28739  0.76638  1.0000
  C   C3094     1.0  0.88516  0.11445  0.61178  1.0000
  C   C3095     1.0  0.86601  0.11688  0.60178  1.0000
  C   C3096     1.0  0.87191  0.12112  0.60998  1.0000
  H   H3068     1.0  0.90085  0.01300  0.60729  1.0000
  H   H3069     1.0  0.90274  0.09868  0.60649  1.0000
  H   H3070     1.0  0.73367  0.16312  0.76817  1.0000
  H   H3071     1.0  0.89000  0.11772  0.61796  1.0000
  S   S1054     1.0  0.87585  0.30435  0.77498  1.0000
  H   H3072     1.0  0.86632  0.12966  0.61475  1.0000
  H   H3073     1.0  0.84934  0.02058  0.59139  1.0000
  H   H3074     1.0  0.49882  0.35297  0.66430  1.0000
  C   C3097     1.0  0.96214  0.17369  0.64991  1.0000
  H   H3075     1.0  0.66691  0.33479  0.60223  1.0000
  C   C3098     1.0  0.84698  0.36442  0.77285  1.0000
  H   H3076     1.0  0.89217  0.17134  0.63555  1.0000
  S   S1055     1.0  0.90639  0.16158  0.61166  1.0000
  C   C3099     1.0  0.77326  0.16411  0.73421  1.0000
  H   H3077     1.0  0.63243  0.39800  0.60449  1.0000
  H   H3078     1.0  0.67401  0.48428  0.63100  1.0000
  H   H3079     1.0  0.67043  0.39245  0.65398  1.0000
  C   C3100     1.0  0.82416  0.42371  0.77086  1.0000
  H   H3080     1.0  0.90765  0.18394  0.58342  1.0000
  C   C3101     1.0  0.71657  0.31937  0.58437  1.0000
  H   H3081     1.0  0.83899  0.18497  0.63073  1.0000
  H   H3082     1.0  0.54394  0.40407  0.61942  1.0000
  C   C3102     1.0  0.97771  0.14146  0.65257  1.0000
  H   H3083     1.0  0.59377  0.37079  0.68176  1.0000
  N   N254      1.0  0.68979  0.34571  0.68897  1.0000
  C   C3103     1.0  0.67832  0.34029  0.69412  1.0000
  C   C3104     1.0  0.69654  0.34775  0.69755  1.0000
  C   C3105     1.0  0.67323  0.33692  0.70821  1.0000
  C   C3106     1.0  0.69167  0.34458  0.71170  1.0000
  C   C3107     1.0  0.67993  0.33914  0.71703  1.0000
  C   C3108     1.0  0.69534  0.34871  0.67421  1.0000
  H   H3084     1.0  0.67304  0.33850  0.68737  1.0000
  H   H3085     1.0  0.70578  0.35182  0.69348  1.0000
  H   H3086     1.0  0.66420  0.33255  0.71224  1.0000
  H   H3087     1.0  0.69696  0.34629  0.71852  1.0000
  H   H3088     1.0  0.67602  0.33667  0.72798  1.0000
  C   C3109     1.0  0.77516  0.26752  0.65759  1.0000
  H   H3089     1.0  0.76950  0.28922  0.65651  1.0000
  N   N255      1.0  0.80330  0.16253  0.64908  1.0000
  C   C3110     1.0  0.80669  0.15246  0.65989  1.0000
  C   C3111     1.0  0.79537  0.17600  0.65149  1.0000
  H   H3090     1.0  0.80342  0.15438  0.67012  1.0000
  C   C3112     1.0  0.81435  0.13953  0.65792  1.0000
  C   C3113     1.0  0.81860  0.13695  0.64478  1.0000
  H   H3091     1.0  0.80192  0.18127  0.65411  1.0000
  N   N256      1.0  0.88432  0.12240  0.69015  1.0000
  C   C3114     1.0  0.89623  0.12672  0.68789  1.0000
  C   C3115     1.0  0.87216  0.12926  0.69689  1.0000
  C   C3116     1.0  0.89621  0.13808  0.69256  1.0000
  C   C3117     1.0  0.87180  0.14064  0.70172  1.0000
  C   C3118     1.0  0.88388  0.14513  0.69944  1.0000
  C   C3119     1.0  0.88457  0.11074  0.68476  1.0000
  H   H3092     1.0  0.90585  0.12141  0.68242  1.0000
  H   H3093     1.0  0.86268  0.12593  0.69858  1.0000
  H   H3094     1.0  0.90568  0.14148  0.69070  1.0000
  H   H3095     1.0  0.86219  0.14600  0.70715  1.0000
  H   H3096     1.0  0.88368  0.15410  0.70293  1.0000
  H   H3097     1.0  0.88511  0.11393  0.67360  1.0000
  H   H3098     1.0  0.89376  0.10248  0.68647  1.0000
  H   H3099     1.0  0.87530  0.10638  0.68976  1.0000
  C   C3120     1.0  0.67998  0.38920  0.64697  1.0000
  C   C3121     1.0  0.60453  0.39374  0.60396  1.0000
  C   C3122     1.0  0.98087  0.14365  0.63834  1.0000
  H   H3100     1.0  0.86598  0.31504  0.73604  1.0000
  S   S1056     1.0  0.96831  0.14562  0.62899  1.0000
  C   C3123     1.0  0.98302  0.17493  0.66104  1.0000
  H   H3101     1.0  0.84228  0.18676  0.65286  1.0000
  H   H3102     1.0  0.60327  0.38825  0.61450  1.0000
  H   H3103     1.0  0.60986  0.36129  0.67340  1.0000
  C   C3124     1.0  0.89243  0.15566  0.59619  1.0000
  C   C3125     1.0  0.75154  0.24392  0.66457  1.0000
  H   H3104     1.0  0.78035  0.38517  0.69166  1.0000
  H   H3105     1.0  0.58962  0.38522  0.60000  1.0000
  C   C3126     1.0  0.65029  0.26114  0.77482  1.0000
  C   C3127     1.0  0.61790  0.38715  0.67591  1.0000
  C   C3128     1.0  0.62547  0.39155  0.68244  1.0000
  C   C3129     1.0  0.62042  0.37391  0.70226  1.0000
  C   C3130     1.0  0.62683  0.38479  0.69565  1.0000
  C   C3131     1.0  0.88484  0.24326  0.65977  1.0000
  H   H3106     1.0  0.63022  0.40017  0.67728  1.0000
  H   H3107     1.0  0.62131  0.36868  0.71259  1.0000
  H   H3108     1.0  0.63284  0.38795  0.70077  1.0000
  H   H3109     1.0  0.88911  0.01941  0.62172  1.0000
  H   H3110     1.0  0.71466  0.38325  0.64293  1.0000
  C   C3132     1.0  0.70348  0.29910  0.60132  1.0000
  H   H3111     1.0  0.66989  0.38697  0.63258  1.0000
  C   C3133     1.0  0.90878  0.30866  0.74503  1.0000
  H   H3112     1.0  0.51061  0.36468  0.61383  1.0000
  C   C3134     1.0  0.84893  0.18819  0.62603  1.0000
  C   C3135     1.0  0.69259  0.38826  0.64989  1.0000
  H   H3113     1.0  0.78144  0.15214  0.77207  1.0000
  H   H3114     1.0  0.60784  0.33829  0.58655  1.0000
  H   H3115     1.0  0.92107  0.13465  0.60611  1.0000
  N   N257      1.0  0.85829  0.18303  0.63545  1.0000
  H   H3116     1.0  0.58433  0.31719  0.74707  1.0000
  H   H3117     1.0  0.91703  0.31173  0.73625  1.0000
  N   N258      1.0  0.61596  0.33283  0.62668  1.0000
  C   C3136     1.0  0.61856  0.33432  0.61284  1.0000
  C   C3137     1.0  0.62238  0.33903  0.63232  1.0000
  C   C3138     1.0  0.62800  0.34198  0.60424  1.0000
  C   C3139     1.0  0.63200  0.34664  0.62404  1.0000
  C   C3140     1.0  0.63481  0.34811  0.60990  1.0000
  C   C3141     1.0  0.60575  0.32504  0.63540  1.0000
  H   H3118     1.0  0.61328  0.32959  0.60840  1.0000
  H   H3119     1.0  0.62010  0.33808  0.64330  1.0000
  H   H3120     1.0  0.63006  0.34314  0.59325  1.0000
  H   H3121     1.0  0.63726  0.35133  0.62856  1.0000
  H   H3122     1.0  0.64226  0.35394  0.60329  1.0000
  H   H3123     1.0  0.60646  0.31591  0.63152  1.0000
  H   H3124     1.0  0.60713  0.32155  0.64608  1.0000
  H   H3125     1.0  0.59525  0.33152  0.63552  1.0000
  N   N259      1.0  0.83836  0.05531  0.68762  1.0000
  C   C3142     1.0  0.84991  0.05136  0.69288  1.0000
  C   C3143     1.0  0.83719  0.04894  0.67827  1.0000
  C   C3144     1.0  0.86063  0.04067  0.68889  1.0000
  C   C3145     1.0  0.84767  0.03815  0.67412  1.0000
  C   C3146     1.0  0.85941  0.03394  0.67956  1.0000
  C   C3147     1.0  0.82677  0.06575  0.69277  1.0000
  H   H3126     1.0  0.85091  0.05654  0.70015  1.0000
  H   H3127     1.0  0.82818  0.05230  0.67384  1.0000
  H   H3128     1.0  0.86986  0.03766  0.69292  1.0000
  H   H3129     1.0  0.84684  0.03316  0.66660  1.0000
  H   H3130     1.0  0.86768  0.02569  0.67628  1.0000
  H   H3131     1.0  0.81970  0.06090  0.70168  1.0000
  H   H3132     1.0  0.83041  0.07330  0.69586  1.0000
  H   H3133     1.0  0.82094  0.07161  0.68475  1.0000
  N   N260      1.0  0.65789  0.40794  0.71976  1.0000
  C   C3148     1.0  0.66497  0.41689  0.71023  1.0000
  C   C3149     1.0  0.66181  0.40179  0.73186  1.0000
  C   C3150     1.0  0.67674  0.41931  0.71240  1.0000
  C   C3151     1.0  0.67365  0.40383  0.73428  1.0000
  C   C3152     1.0  0.68120  0.41257  0.72440  1.0000
  C   C3153     1.0  0.64586  0.40523  0.71704  1.0000
  H   H3134     1.0  0.66181  0.42187  0.70068  1.0000
  H   H3135     1.0  0.65613  0.39480  0.73952  1.0000
  H   H3136     1.0  0.68270  0.42595  0.70457  1.0000
  H   H3137     1.0  0.67715  0.39834  0.74359  1.0000
  H   H3138     1.0  0.69061  0.41399  0.72593  1.0000
  H   H3139     1.0  0.63674  0.41357  0.71916  1.0000
  H   H3140     1.0  0.64782  0.40449  0.70621  1.0000
  C   C3154     1.0  0.65175  0.26753  0.76100  1.0000
  C   C3155     1.0  0.88591  0.31272  0.74012  1.0000
  C   C3156     1.0  0.86194  0.17871  0.65812  1.0000
  H   H3141     1.0  0.70101  0.37325  0.60825  1.0000
  C   C3157     1.0  0.52162  0.39458  0.64909  1.0000
  H   H3142     1.0  0.87634  0.17901  0.61981  1.0000
  H   H3143     1.0  0.71371  0.37801  0.62157  1.0000
  H   H3144     1.0  0.87948  0.98883  0.65262  1.0000
  H   H3145     1.0  0.73339  0.13980  0.76677  1.0000
  H   H3146     1.0  0.84159  0.45837  0.77703  1.0000
  C   C3158     1.0  0.75171  0.28041  0.66192  1.0000
  S   S1057     1.0  0.66287  0.41003  0.61223  1.0000
  H   H3147     1.0  0.62214  0.41488  0.60563  1.0000
  C   C3159     1.0  0.84110  0.11002  0.58350  1.0000
  C   C3160     1.0  0.90024  0.13628  0.58518  1.0000
  C   C3161     1.0  0.85371  0.08245  0.59105  1.0000
  C   C3162     1.0  0.71612  0.30017  0.60283  1.0000
  S   S1058     1.0  0.90669  0.27412  0.77031  1.0000
  H   H3148     1.0  0.90392  0.31738  0.75021  1.0000
  C   C3163     1.0  0.67247  0.48558  0.62056  1.0000
  C   C3164     1.0  0.69503  0.34895  0.59135  1.0000
  H   H3149     1.0  0.77437  0.37174  0.67858  1.0000
  H   H3150     1.0  0.75235  0.17422  0.75304  1.0000
  C   C3165     1.0  0.80759  0.16016  0.63613  1.0000
  C   C3166     1.0  0.67408  0.34086  0.59559  1.0000
  N   N261      1.0  0.82814  0.22061  0.70497  1.0000
  C   C3167     1.0  0.82734  0.20773  0.70509  1.0000
  C   C3168     1.0  0.82235  0.23158  0.69614  1.0000
  C   C3169     1.0  0.82105  0.20547  0.69590  1.0000
  C   C3170     1.0  0.81593  0.22972  0.68684  1.0000
  C   C3171     1.0  0.81532  0.21658  0.68671  1.0000
  C   C3172     1.0  0.83503  0.22258  0.71456  1.0000
  H   H3151     1.0  0.83167  0.19912  0.71229  1.0000
  H   H3152     1.0  0.82305  0.24181  0.69598  1.0000
  H   H3153     1.0  0.82072  0.19517  0.69588  1.0000
  H   H3154     1.0  0.81168  0.23840  0.67962  1.0000
  H   H3155     1.0  0.81043  0.21501  0.67949  1.0000
  H   H3156     1.0  0.83746  0.23285  0.71161  1.0000
  H   H3157     1.0  0.82846  0.22127  0.72502  1.0000
  H   H3158     1.0  0.84498  0.21501  0.71473  1.0000
  C   C3173     1.0  0.77787  0.37531  0.69661  1.0000
  C   C3174     1.0  0.77450  0.36780  0.68929  1.0000
  H   H3159     1.0  0.58425  0.33765  0.75464  1.0000
  H   H3160     1.0  0.77554  0.10895  0.76567  1.0000
  C   C3175     1.0  0.89196  0.21887  0.66677  1.0000
  H   H3161     1.0  0.89693  0.21017  0.67340  1.0000
  H   H3162     1.0  0.89651  0.23331  0.67534  1.0000
  H   H3163     1.0  0.88430  0.19653  0.66738  1.0000
  N   N262      1.0  0.75638  0.25638  0.66263  1.0000
  C   C3176     1.0  0.74714  0.26846  0.66390  1.0000
  C   C3177     1.0  0.77022  0.25575  0.65979  1.0000
  H   H3164     1.0  0.88294  0.32227  0.74354  1.0000
  C   C3178     1.0  0.76685  0.12534  0.77650  1.0000
  H   H3165     1.0  0.66004  0.48349  0.66476  1.0000
  H   H3166     1.0  0.62072  0.29189  0.76239  1.0000
  H   H3167     1.0  0.58595  0.28258  0.76984  1.0000
  C   C3179     1.0  0.62176  0.40400  0.60725  1.0000
  H   H3168     1.0  0.86904  0.10304  0.58883  1.0000
  H   H3169     1.0  0.82040  0.41712  0.76698  1.0000
  C   C3180     1.0  0.77669  0.11850  0.76692  1.0000
  H   H3170     1.0  0.65627  0.29777  0.76329  1.0000
  C   C3181     1.0  0.75131  0.38060  0.77605  1.0000
  C   C3182     1.0  0.91094  0.13116  0.59225  1.0000
  C   C3183     1.0  0.49917  0.38896  0.65330  1.0000
  S   S1059     1.0  0.63887  0.47217  0.63344  1.0000
  C   C3184     1.0  0.60110  0.34819  0.58438  1.0000
  C   C3185     1.0  0.87586  0.00345  0.60695  1.0000
  C   C3186     1.0  0.83823  0.42171  0.76994  1.0000
  C   C3187     1.0  0.73544  0.31162  0.59640  1.0000
  H   H3171     1.0  0.90116  0.08061  0.59689  1.0000
  C   C3188     1.0  0.61474  0.40946  0.58553  1.0000
  H   H3172     1.0  0.95007  0.17065  0.67053  1.0000
  H   H3173     1.0  0.89614  0.23609  0.77700  1.0000
  C   C3189     1.0  0.84394  0.19908  0.58523  1.0000
  H   H3174     1.0  0.64837  0.25091  0.77806  1.0000
  H   H3175     1.0  0.95423  0.17276  0.64545  1.0000
  H   H3176     1.0  0.86149  0.99686  0.59998  1.0000
  C   C3190     1.0  0.67211  0.34784  0.58253  1.0000
  C   C3191     1.0  0.58662  0.32659  0.77485  1.0000
  C   C3192     1.0  0.89092  0.14847  0.58734  1.0000
  H   H3177     1.0  0.50546  0.39265  0.62609  1.0000
  H   H3178     1.0  0.87182  0.24000  0.77976  1.0000
  H   H3179     1.0  0.91819  0.12172  0.59068  1.0000
  H   H3180     1.0  0.85700  0.04023  0.59386  1.0000
  H   H3181     1.0  0.88706  0.08253  0.58931  1.0000
  C   C3193     1.0  0.59811  0.39914  0.58229  1.0000
  H   H3182     1.0  0.58718  0.33544  0.77806  1.0000
  H   H3183     1.0  0.50178  0.38102  0.66231  1.0000
  H   H3184     1.0  0.54125  0.40029  0.64440  1.0000
  Fe  Fe531     1.0  0.89498  0.29126  0.78147  1.0000
  C   C3194     1.0  0.58750  0.30249  0.77929  1.0000
  C   C3195     1.0  0.81497  0.43415  0.77683  1.0000
  N   N263      1.0  0.83387  0.44057  0.78075  1.0000
  H   H3185     1.0  0.80397  0.43551  0.77797  1.0000
  H   H3186     1.0  0.83808  0.16943  0.58284  1.0000
  C   C3196     1.0  0.70404  0.31848  0.58245  1.0000
  H   H3187     1.0  0.83841  0.36412  0.78156  1.0000
  S   S1060     1.0  0.90337  0.30897  0.78180  1.0000
  C   C3197     1.0  0.82004  0.44260  0.78167  1.0000
  H   H3188     1.0  0.64572  0.26815  0.80542  1.0000
  S   S1061     1.0  0.65743  0.13029  0.94466  1.0000
  Fe  Fe532     1.0  0.62338  0.14448  0.93118  1.0000
  S   S1062     1.0  0.64426  0.14416  0.91755  1.0000
  S   S1063     1.0  0.60643  0.15529  0.91980  1.0000
  Fe  Fe533     1.0  0.64996  0.12307  0.92993  1.0000
  S   S1064     1.0  0.66170  0.10746  0.91698  1.0000
  Fe  Fe534     1.0  0.64948  0.15143  0.93336  1.0000
  S   S1065     1.0  0.65634  0.17123  0.92887  1.0000
  S   S1066     1.0  0.62804  0.15333  0.94620  1.0000
  Fe  Fe535     1.0  0.56140  0.15695  0.86284  1.0000
  S   S1067     1.0  0.54860  0.14972  0.88334  1.0000
  S   S1068     1.0  0.56246  0.17885  0.85381  1.0000
  Fe  Fe536     1.0  0.56881  0.12939  0.85549  1.0000
  S   S1069     1.0  0.55659  0.11955  0.87528  1.0000
  S   S1070     1.0  0.58024  0.12046  0.83722  1.0000
  Fe  Fe537     1.0  0.54023  0.13886  0.87256  1.0000
  S   S1071     1.0  0.51691  0.14219  0.87702  1.0000
  Fe  Fe538     1.0  0.56588  0.13119  0.88433  1.0000
  S   S1072     1.0  0.57420  0.12128  0.90326  1.0000
  S   S1073     1.0  0.55175  0.14769  0.85194  1.0000
  S   S1074     1.0  0.57948  0.13938  0.86467  1.0000
  Fe  Fe539     1.0  0.63819  0.06006  0.85956  1.0000
  S   S1075     1.0  0.63110  0.04618  0.87936  1.0000
  S   S1076     1.0  0.62791  0.06747  0.84188  1.0000
  Fe  Fe540     1.0  0.66604  0.05774  0.86523  1.0000
  S   S1077     1.0  0.66153  0.04312  0.88518  1.0000
  S   S1078     1.0  0.68674  0.06351  0.85819  1.0000
  Fe  Fe541     1.0  0.65230  0.03295  0.87447  1.0000
  S   S1079     1.0  0.65869  0.01016  0.87467  1.0000
  Fe  Fe542     1.0  0.64098  0.05770  0.88816  1.0000
  S   S1080     1.0  0.63268  0.06553  0.90775  1.0000
  S   S1081     1.0  0.65888  0.04637  0.85420  1.0000
  S   S1082     1.0  0.64590  0.07276  0.86866  1.0000
  S   S1083     1.0  0.80617  0.37079  0.79175  1.0000
  Fe  Fe543     1.0  0.62092  0.21398  0.83640  1.0000
  S   S1084     1.0  0.61435  0.21462  0.81749  1.0000
  S   S1085     1.0  0.61054  0.20326  0.85691  1.0000
  Fe  Fe544     1.0  0.64665  0.22429  0.82043  1.0000
  S   S1086     1.0  0.64243  0.22537  0.80025  1.0000
  S   S1087     1.0  0.66666  0.22901  0.81977  1.0000
  Fe  Fe545     1.0  0.62079  0.23469  0.80957  1.0000
  Fe  Fe546     1.0  0.63558  0.13184  0.95678  1.0000
  Fe  Fe547     1.0  0.63647  0.20536  0.80996  1.0000
  S   S1088     1.0  0.62927  0.12658  0.98000  1.0000
  S   S1089     1.0  0.62534  0.23511  0.82929  1.0000
  S   S1090     1.0  0.64275  0.20337  0.82930  1.0000
  Fe  Fe548     1.0  0.73630  0.13057  0.80031  1.0000
  S   S1091     1.0  0.72793  0.12217  0.82245  1.0000
  H   H3189     1.0  0.58879  0.29258  0.78619  1.0000
  Fe  Fe549     1.0  0.71568  0.15738  0.80021  1.0000
  S   S1092     1.0  0.70557  0.15173  0.82221  1.0000
  H   H3190     1.0  0.70451  0.09461  0.80586  1.0000
  Fe  Fe550     1.0  0.72702  0.14305  0.82524  1.0000
  S   S1093     1.0  0.73283  0.14579  0.84331  1.0000
  Fe  Fe551     1.0  0.70711  0.13153  0.81760  1.0000
  S   S1094     1.0  0.68772  0.12349  0.82470  1.0000
  S   S1095     1.0  0.73716  0.15065  0.80358  1.0000
  S   S1096     1.0  0.71550  0.13797  0.79518  1.0000
  Fe  Fe552     1.0  0.80855  0.37460  0.81103  1.0000
  S   S1097     1.0  0.82074  0.39050  0.80050  1.0000
  S   S1098     1.0  0.81601  0.36015  0.82895  1.0000
  Fe  Fe553     1.0  0.80050  0.40535  0.80273  1.0000
  S   S1099     1.0  0.79795  0.42418  0.81090  1.0000
  S   S1100     1.0  0.78838  0.38944  0.81451  1.0000
  Fe  Fe554     1.0  0.86678  0.30225  0.79731  1.0000
  S   S1101     1.0  0.84586  0.29758  0.80618  1.0000
  S   S1102     1.0  0.88543  0.28799  0.80392  1.0000
  S   S1103     1.0  0.87217  0.32111  0.79848  1.0000
  Fe  Fe555     1.0  0.78738  0.27593  0.89407  1.0000
  S   S1104     1.0  0.80647  0.27463  0.90104  1.0000
  S   S1105     1.0  0.78009  0.25607  0.89970  1.0000
  Fe  Fe556     1.0  0.78629  0.30544  0.87964  1.0000
  S   S1106     1.0  0.80530  0.30652  0.88522  1.0000
  S   S1107     1.0  0.77527  0.32283  0.86562  1.0000
  Fe  Fe557     1.0  0.81387  0.28598  0.88002  1.0000
  S   S1108     1.0  0.83633  0.28163  0.87019  1.0000
  Fe  Fe558     1.0  0.79656  0.29526  0.90588  1.0000
  S   S1109     1.0  0.80062  0.29801  0.92510  1.0000
  S   S1110     1.0  0.79571  0.28577  0.87247  1.0000
  S   S1111     1.0  0.77655  0.29567  0.90092  1.0000
  Fe  Fe559     1.0  0.72623  0.21111  0.86232  1.0000
  S   S1112     1.0  0.70913  0.20132  0.87516  1.0000
  S   S1113     1.0  0.73598  0.20584  0.84177  1.0000
  Fe  Fe560     1.0  0.72298  0.22904  0.88212  1.0000
  S   S1114     1.0  0.70530  0.22058  0.89687  1.0000
  S   S1115     1.0  0.72882  0.24843  0.88250  1.0000
  Fe  Fe561     1.0  0.71790  0.20020  0.89275  1.0000
  S   S1116     1.0  0.71753  0.17989  0.90739  1.0000
  Fe  Fe562     1.0  0.69767  0.22202  0.87833  1.0000
  S   S1117     1.0  0.67531  0.22625  0.87803  1.0000
  S   S1118     1.0  0.73644  0.20837  0.87953  1.0000
  S   S1119     1.0  0.71404  0.23219  0.86383  1.0000
  H   H3191     1.0  0.65792  0.17389  0.96712  1.0000
  Fe  Fe563     1.0  0.84994  0.44708  0.83810  1.0000
  S   S1120     1.0  0.85523  0.43165  0.85651  1.0000
  S   S1121     1.0  0.84994  0.43796  0.82070  1.0000
  Fe  Fe564     1.0  0.84749  0.47117  0.85092  1.0000
  S   S1122     1.0  0.85227  0.45739  0.87052  1.0000
  H   H3192     1.0  0.64795  0.08708  0.82020  1.0000
  Fe  Fe565     1.0  0.86866  0.44486  0.85688  1.0000
  S   S1123     1.0  0.88870  0.43378  0.86299  1.0000
  Fe  Fe566     1.0  0.83850  0.44521  0.86848  1.0000
  S   S1124     1.0  0.82369  0.43456  0.88516  1.0000
  S   S1125     1.0  0.86503  0.45942  0.83728  1.0000
  S   S1126     1.0  0.83208  0.45985  0.85008  1.0000
  Fe  Fe567     1.0  0.83255  0.35299  0.93797  1.0000
  S   S1127     1.0  0.84453  0.33596  0.95128  1.0000
  S   S1128     1.0  0.81700  0.35185  0.92686  1.0000
  Fe  Fe568     1.0  0.84898  0.37324  0.93816  1.0000
  S   S1129     1.0  0.86270  0.35759  0.95095  1.0000
  S   S1130     1.0  0.85273  0.39455  0.93159  1.0000
  Fe  Fe569     1.0  0.86304  0.34368  0.93765  1.0000
  S   S1131     1.0  0.88016  0.32948  0.92622  1.0000
  Fe  Fe570     1.0  0.84303  0.35148  0.96350  1.0000
  C   C3198     1.0  0.63162  0.00053  0.83603  1.0000
  S   S1132     1.0  0.85113  0.35997  0.92382  1.0000
  S   S1133     1.0  0.82926  0.36796  0.95121  1.0000
  Fe  Fe571     1.0  0.93487  0.36926  0.84227  1.0000
  S   S1134     1.0  0.94701  0.37034  0.85646  1.0000
  S   S1135     1.0  0.92083  0.38660  0.83131  1.0000
  Fe  Fe572     1.0  0.94653  0.33902  0.84336  1.0000
  S   S1136     1.0  0.95972  0.33727  0.85800  1.0000
  S   S1137     1.0  0.94825  0.32303  0.83167  1.0000
  Fe  Fe573     1.0  0.94081  0.35071  0.86845  1.0000
  S   S1138     1.0  0.93399  0.35001  0.89105  1.0000
  Fe  Fe574     1.0  0.96484  0.35700  0.84504  1.0000
  H   H3193     1.0  0.52712  0.12842  0.82859  1.0000
  S   S1139     1.0  0.92725  0.35072  0.85496  1.0000
  S   S1140     1.0  0.95312  0.35771  0.82965  1.0000
  C   C3199     1.0  0.50709  0.16544  0.84900  1.0000
  H   H3194     1.0  0.92353  0.30522  0.80889  1.0000
  C   C3200     1.0  0.95887  0.39280  0.81990  1.0000
  C   C3201     1.0  0.62743  0.16416  0.97711  1.0000
  H   H3195     1.0  0.60417  0.13269  0.82667  1.0000
  C   C3202     1.0  0.83856  0.38848  0.97108  1.0000
  H   H3196     1.0  0.97398  0.38941  0.83810  1.0000
  H   H3197     1.0  0.94297  0.33574  0.79890  1.0000
  C   C3203     1.0  0.58776  0.31388  0.78375  1.0000
  H   H3198     1.0  0.98522  0.35546  0.86480  1.0000
  C   C3204     1.0  0.89473  0.33575  0.91621  1.0000
  C   C3205     1.0  0.90045  0.33312  0.90307  1.0000
  C   C3206     1.0  0.91241  0.33759  0.89513  1.0000
  C   C3207     1.0  0.91890  0.34438  0.90048  1.0000
  C   C3208     1.0  0.91326  0.34686  0.91367  1.0000
  C   C3209     1.0  0.90112  0.34271  0.92145  1.0000
  H   H3199     1.0  0.89568  0.32753  0.89905  1.0000
  H   H3200     1.0  0.91679  0.33547  0.88505  1.0000
  H   H3201     1.0  0.91836  0.35193  0.91792  1.0000
  H   H3202     1.0  0.89696  0.34448  0.93170  1.0000
  C   C3210     1.0  0.69372  0.07865  0.81718  1.0000
  N   N264      1.0  0.60574  0.17012  0.82298  1.0000
  S   S1141     1.0  0.62868  0.12294  0.94287  1.0000
  C   C3211     1.0  0.69461  0.09175  0.80960  1.0000
  H   H3203     1.0  0.70292  0.07124  0.81940  1.0000
  H   H3204     1.0  0.86530  0.27026  0.81121  1.0000
  C   C3212     1.0  0.61564  0.27367  0.80044  1.0000
  H   H3205     1.0  0.50451  0.12670  0.82601  1.0000
  C   C3213     1.0  0.89730  0.42050  0.85436  1.0000
  C   C3214     1.0  0.89438  0.42046  0.84209  1.0000
  C   C3215     1.0  0.90153  0.40991  0.83515  1.0000
  C   C3216     1.0  0.91139  0.39921  0.84061  1.0000
  C   C3217     1.0  0.91397  0.39900  0.85313  1.0000
  C   C3218     1.0  0.90709  0.40975  0.85989  1.0000
  H   H3206     1.0  0.88681  0.42873  0.83778  1.0000
  H   H3207     1.0  0.89947  0.41012  0.82548  1.0000
  H   H3208     1.0  0.92142  0.39071  0.85751  1.0000
  H   H3209     1.0  0.90924  0.40966  0.86948  1.0000
  C   C3219     1.0  0.83176  0.42336  0.89802  1.0000
  C   C3220     1.0  0.84218  0.42671  0.90172  1.0000
  C   C3221     1.0  0.84825  0.41797  0.91230  1.0000
  C   C3222     1.0  0.84440  0.40554  0.91881  1.0000
  C   C3223     1.0  0.83416  0.40204  0.91495  1.0000
  C   C3224     1.0  0.82768  0.41105  0.90472  1.0000
  H   H3210     1.0  0.84531  0.43622  0.89668  1.0000
  H   H3211     1.0  0.85605  0.42082  0.91535  1.0000
  H   H3212     1.0  0.83109  0.39248  0.91997  1.0000
  H   H3213     1.0  0.81959  0.40843  0.90193  1.0000
  H   H3214     1.0  0.80964  0.48397  0.88526  1.0000
  C   C3225     1.0  0.85553  0.26320  0.79960  1.0000
  H   H3215     1.0  0.61663  0.99828  0.87214  1.0000
  C   C3226     1.0  0.92055  0.35788  0.81652  1.0000
  H   H3216     1.0  0.68015  0.06541  0.82903  1.0000
  S   S1142     1.0  0.76658  0.38371  0.79239  1.0000
  H   H3217     1.0  0.75938  0.15515  0.82100  1.0000
  H   H3218     1.0  0.62322  0.03620  0.84706  1.0000
  H   H3219     1.0  0.50481  0.17570  0.84236  1.0000
  C   C3227     1.0  0.80550  0.31292  0.92524  1.0000
  C   C3228     1.0  0.81279  0.31253  0.93491  1.0000
  C   C3229     1.0  0.81652  0.32433  0.93547  1.0000
  C   C3230     1.0  0.81272  0.33668  0.92654  1.0000
  C   C3231     1.0  0.80541  0.33706  0.91689  1.0000
  C   C3232     1.0  0.80193  0.32521  0.91614  1.0000
  H   H3220     1.0  0.81552  0.30309  0.94203  1.0000
  H   H3221     1.0  0.82207  0.32393  0.94299  1.0000
  H   H3222     1.0  0.80239  0.34659  0.90998  1.0000
  H   H3223     1.0  0.79620  0.32568  0.90874  1.0000
  C   C3233     1.0  0.76585  0.25407  0.89479  1.0000
  C   C3234     1.0  0.75685  0.26527  0.88877  1.0000
  C   C3235     1.0  0.74541  0.26333  0.88534  1.0000
  C   C3236     1.0  0.74296  0.25020  0.88773  1.0000
  C   C3237     1.0  0.75202  0.23899  0.89367  1.0000
  C   C3238     1.0  0.76337  0.24095  0.89726  1.0000
  H   H3224     1.0  0.75862  0.27542  0.88686  1.0000
  H   H3225     1.0  0.73844  0.27206  0.88076  1.0000
  H   H3226     1.0  0.75023  0.22884  0.89556  1.0000
  H   H3227     1.0  0.77026  0.23224  0.90197  1.0000
  C   C3239     1.0  0.90965  0.31485  0.82485  1.0000
  C   C3240     1.0  0.90860  0.32153  0.83521  1.0000
  C   C3241     1.0  0.92034  0.32415  0.83736  1.0000
  C   C3242     1.0  0.93331  0.31973  0.82940  1.0000
  C   C3243     1.0  0.93442  0.31277  0.81921  1.0000
  H   H3228     1.0  0.89862  0.32484  0.84153  1.0000
  H   H3229     1.0  0.91938  0.32936  0.84533  1.0000
  C   C3244     1.0  0.84372  0.29191  0.82389  1.0000
  C   C3245     1.0  0.85365  0.29237  0.83039  1.0000
  C   C3246     1.0  0.85169  0.28835  0.84460  1.0000
  C   C3247     1.0  0.83959  0.28429  0.85239  1.0000
  C   C3248     1.0  0.82978  0.28353  0.84588  1.0000
  C   C3249     1.0  0.83189  0.28727  0.83161  1.0000
  H   H3230     1.0  0.86265  0.29625  0.82458  1.0000
  H   H3231     1.0  0.85926  0.28903  0.84959  1.0000
  H   H3232     1.0  0.82053  0.28019  0.85184  1.0000
  H   H3233     1.0  0.82421  0.28685  0.82662  1.0000
  C   C3250     1.0  0.81237  0.42744  0.81439  1.0000
  C   C3251     1.0  0.81050  0.43773  0.82146  1.0000
  C   C3252     1.0  0.82188  0.44073  0.82402  1.0000
  C   C3253     1.0  0.83522  0.43356  0.81932  1.0000
  C   C3254     1.0  0.83706  0.42328  0.81229  1.0000
  C   C3255     1.0  0.82571  0.42021  0.80989  1.0000
  C   C3256     1.0  0.60466  0.14319  0.82566  1.0000
  H   H3234     1.0  0.82037  0.44886  0.82923  1.0000
  H   H3235     1.0  0.84735  0.41782  0.80847  1.0000
  H   H3236     1.0  0.82739  0.41257  0.80411  1.0000
  C   C3257     1.0  0.89509  0.23886  0.78686  1.0000
  H   H3237     1.0  0.63980  0.03906  0.83739  1.0000
  C   C3258     1.0  0.80388  0.35077  0.83926  1.0000
  C   C3259     1.0  0.79442  0.34793  0.83371  1.0000
  C   C3260     1.0  0.78564  0.33930  0.84184  1.0000
  C   C3261     1.0  0.78608  0.33382  0.85558  1.0000
  C   C3262     1.0  0.79512  0.33719  0.86123  1.0000
  C   C3263     1.0  0.80413  0.34552  0.85304  1.0000
  H   H3238     1.0  0.79421  0.35197  0.82305  1.0000
  H   H3239     1.0  0.77867  0.33670  0.83743  1.0000
  H   H3240     1.0  0.79513  0.33345  0.87193  1.0000
  H   H3241     1.0  0.81136  0.34782  0.85737  1.0000
  C   C3264     1.0  0.73312  0.16267  0.84282  1.0000
  C   C3265     1.0  0.73363  0.16615  0.85468  1.0000
  C   C3266     1.0  0.73437  0.17944  0.85441  1.0000
  C   C3267     1.0  0.73494  0.18921  0.84220  1.0000
  C   C3268     1.0  0.73454  0.18571  0.83030  1.0000
  C   C3269     1.0  0.73337  0.17252  0.83066  1.0000
  H   H3242     1.0  0.73348  0.15856  0.86411  1.0000
  H   H3243     1.0  0.73483  0.18201  0.86362  1.0000
  H   H3244     1.0  0.73496  0.19325  0.82084  1.0000
  H   H3245     1.0  0.73288  0.16996  0.82149  1.0000
  H   H3246     1.0  0.83509  0.33351  0.90099  1.0000
  C   C3270     1.0  0.66907  0.22767  0.83609  1.0000
  C   C3271     1.0  0.68201  0.22783  0.83764  1.0000
  C   C3272     1.0  0.68406  0.22701  0.85058  1.0000
  C   C3273     1.0  0.67306  0.22645  0.86194  1.0000
  C   C3274     1.0  0.66014  0.22617  0.86040  1.0000
  C   C3275     1.0  0.65819  0.22660  0.84751  1.0000
  H   H3247     1.0  0.69043  0.22873  0.82883  1.0000
  H   H3248     1.0  0.69405  0.22718  0.85170  1.0000
  H   H3249     1.0  0.65161  0.22577  0.86916  1.0000
  H   H3250     1.0  0.64817  0.22646  0.84637  1.0000
  H   H3251     1.0  0.84870  0.28318  0.91181  1.0000
  H   H3252     1.0  0.76276  0.14360  0.83659  1.0000
  C   C3276     1.0  0.85114  0.39210  0.96890  1.0000
  H   H3253     1.0  0.63755  0.03050  0.85515  1.0000
  N   N265      1.0  0.95522  0.39941  0.83152  1.0000
  C   C3277     1.0  0.69021  0.17981  0.79008  1.0000
  H   H3254     1.0  0.65491  0.13543  0.97562  1.0000
  C   C3278     1.0  0.62760  0.99494  0.87155  1.0000
  H   H3255     1.0  0.91971  0.33771  0.79671  1.0000
  H   H3256     1.0  0.89490  0.34318  0.80720  1.0000
  C   C3279     1.0  0.92261  0.31049  0.81680  1.0000
  Fe  Fe575     1.0  0.89167  0.30712  0.80368  1.0000
  H   H3257     1.0  0.58385  0.17387  0.82981  1.0000
  H   H3258     1.0  0.80022  0.44348  0.82488  1.0000
  H   H3259     1.0  0.84550  0.26963  0.80275  1.0000
  H   H3260     1.0  0.61917  0.29176  0.80390  1.0000
  H   H3261     1.0  0.61409  0.26860  0.81110  1.0000
  C   C3280     1.0  0.68694  0.08067  0.85037  1.0000
  C   C3281     1.0  0.69956  0.08469  0.84506  1.0000
  C   C3282     1.0  0.69996  0.09808  0.83768  1.0000
  C   C3283     1.0  0.68772  0.10742  0.83563  1.0000
  C   C3284     1.0  0.67512  0.10354  0.84142  1.0000
  C   C3285     1.0  0.67473  0.09022  0.84878  1.0000
  H   H3262     1.0  0.70906  0.07734  0.84628  1.0000
  H   H3263     1.0  0.70973  0.10101  0.83319  1.0000
  H   H3264     1.0  0.66563  0.11077  0.83989  1.0000
  H   H3265     1.0  0.66500  0.08732  0.85287  1.0000
  C   C3286     1.0  0.50731  0.13328  0.87229  1.0000
  H   H3266     1.0  0.94225  0.35372  0.79155  1.0000
  S   S1143     1.0  0.64343  0.18658  0.80125  1.0000
  H   H3267     1.0  0.82639  0.32006  0.89034  1.0000
  C   C3287     1.0  0.62822  0.01331  0.83945  1.0000
  C   C3288     1.0  0.51363  0.12216  0.86603  1.0000
  C   C3289     1.0  0.65521  0.99849  0.83663  1.0000
  H   H3268     1.0  0.52466  0.11836  0.86454  1.0000
  C   C3290     1.0  0.59353  0.10585  0.83922  1.0000
  C   C3291     1.0  0.59806  0.10040  0.85146  1.0000
  C   C3292     1.0  0.60885  0.08867  0.85246  1.0000
  C   C3293     1.0  0.61486  0.08240  0.84125  1.0000
  C   C3294     1.0  0.61034  0.08799  0.82908  1.0000
  C   C3295     1.0  0.59980  0.09970  0.82804  1.0000
  H   H3269     1.0  0.59313  0.10511  0.86014  1.0000
  H   H3270     1.0  0.61228  0.08432  0.86191  1.0000
  H   H3271     1.0  0.61491  0.08317  0.82043  1.0000
  H   H3272     1.0  0.59632  0.10387  0.81859  1.0000
  C   C3296     1.0  0.57655  0.18485  0.85416  1.0000
  C   C3297     1.0  0.57757  0.19812  0.84707  1.0000
  C   C3298     1.0  0.58828  0.20359  0.84757  1.0000
  C   C3299     1.0  0.59788  0.19591  0.85537  1.0000
  C   C3300     1.0  0.59701  0.18253  0.86234  1.0000
  C   C3301     1.0  0.58643  0.17692  0.86159  1.0000
  H   H3273     1.0  0.56994  0.20428  0.84132  1.0000
  H   H3274     1.0  0.58884  0.21395  0.84226  1.0000
  H   H3275     1.0  0.60442  0.17658  0.86842  1.0000
  H   H3276     1.0  0.58566  0.16668  0.86713  1.0000
  C   C3302     1.0  0.65231  0.09707  0.91420  1.0000
  C   C3303     1.0  0.64316  0.09069  0.92496  1.0000
  C   C3304     1.0  0.63718  0.08106  0.92287  1.0000
  C   C3305     1.0  0.64028  0.07776  0.91002  1.0000
  C   C3306     1.0  0.64922  0.08437  0.89921  1.0000
  C   C3307     1.0  0.65519  0.09397  0.90130  1.0000
  H   H3277     1.0  0.64099  0.09288  0.93500  1.0000
  H   H3278     1.0  0.63025  0.07604  0.93129  1.0000
  H   H3279     1.0  0.65169  0.08198  0.88927  1.0000
  H   H3280     1.0  0.66226  0.09886  0.89294  1.0000
  C   C3308     1.0  0.59860  0.14508  0.91482  1.0000
  C   C3309     1.0  0.59456  0.14960  0.90229  1.0000
  C   C3310     1.0  0.58700  0.14238  0.89869  1.0000
  C   C3311     1.0  0.58355  0.13055  0.90758  1.0000
  C   C3312     1.0  0.58775  0.12592  0.92001  1.0000
  C   C3313     1.0  0.59532  0.13315  0.92361  1.0000
  H   H3281     1.0  0.59717  0.15878  0.89540  1.0000
  H   H3282     1.0  0.58381  0.14601  0.88909  1.0000
  H   H3283     1.0  0.58507  0.11677  0.92691  1.0000
  H   H3284     1.0  0.59829  0.12969  0.93335  1.0000
  C   C3314     1.0  0.67355  0.17302  0.92351  1.0000
  C   C3315     1.0  0.68474  0.16180  0.92328  1.0000
  C   C3316     1.0  0.69829  0.16391  0.91860  1.0000
  C   C3317     1.0  0.70063  0.17719  0.91386  1.0000
  C   C3318     1.0  0.68940  0.18831  0.91409  1.0000
  C   C3319     1.0  0.67596  0.18624  0.91907  1.0000
  H   H3285     1.0  0.68297  0.15156  0.92676  1.0000
  H   H3286     1.0  0.70695  0.15526  0.91847  1.0000
  H   H3287     1.0  0.69106  0.19857  0.91055  1.0000
  H   H3288     1.0  0.66737  0.19496  0.91927  1.0000
  H   H3289     1.0  0.94445  0.30920  0.81312  1.0000
  C   C3320     1.0  0.87969  0.25565  0.79988  1.0000
  C   C3321     1.0  0.63475  0.00354  0.87379  1.0000
  C   C3322     1.0  0.64896  0.99941  0.87292  1.0000
  C   C3323     1.0  0.61766  0.16066  0.82004  1.0000
  N   N266      1.0  0.63808  0.01847  0.84152  1.0000
  H   H3290     1.0  0.62926  0.01334  0.87619  1.0000
  N   N267      1.0  0.74710  0.24552  0.84885  1.0000
  C   C3324     1.0  0.75567  0.24728  0.85581  1.0000
  C   C3325     1.0  0.74845  0.23304  0.84618  1.0000
  C   C3326     1.0  0.76586  0.23635  0.86037  1.0000
  C   C3327     1.0  0.75859  0.22191  0.85049  1.0000
  C   C3328     1.0  0.76727  0.22358  0.85772  1.0000
  C   C3329     1.0  0.73589  0.25690  0.84507  1.0000
  H   H3291     1.0  0.75430  0.25705  0.85834  1.0000
  H   H3292     1.0  0.74150  0.23154  0.84090  1.0000
  H   H3293     1.0  0.77230  0.23773  0.86629  1.0000
  H   H3294     1.0  0.75939  0.21197  0.84855  1.0000
  H   H3295     1.0  0.77490  0.21494  0.86147  1.0000
  H   H3296     1.0  0.72727  0.25788  0.85415  1.0000
  H   H3297     1.0  0.73944  0.26663  0.84130  1.0000
  H   H3298     1.0  0.73187  0.25531  0.83693  1.0000
  N   N268      1.0  0.66908  0.08491  0.82033  1.0000
  C   C3330     1.0  0.66985  0.09783  0.81302  1.0000
  C   C3331     1.0  0.68078  0.07542  0.82259  1.0000
  C   C3332     1.0  0.68262  0.10142  0.80750  1.0000
  C   C3333     1.0  0.65558  0.08156  0.82660  1.0000
  H   H3299     1.0  0.66056  0.10554  0.81174  1.0000
  C   C3334     1.0  0.59331  0.16640  0.82737  1.0000
  H   H3300     1.0  0.68318  0.11182  0.80220  1.0000
  S   S1144     1.0  0.79672  0.40470  0.78270  1.0000
  H   H3301     1.0  0.65164  0.08428  0.83677  1.0000
  H   H3302     1.0  0.89686  0.22939  0.79475  1.0000
  N   N269      1.0  0.66566  0.18531  0.89187  1.0000
  C   C3335     1.0  0.66242  0.17281  0.89523  1.0000
  C   C3336     1.0  0.67905  0.18650  0.88689  1.0000
  C   C3337     1.0  0.67278  0.16099  0.89417  1.0000
  C   C3338     1.0  0.68969  0.17488  0.88578  1.0000
  C   C3339     1.0  0.68650  0.16206  0.88952  1.0000
  C   C3340     1.0  0.65466  0.19748  0.89353  1.0000
  H   H3303     1.0  0.65180  0.17188  0.89934  1.0000
  H   H3304     1.0  0.68158  0.19642  0.88432  1.0000
  H   H3305     1.0  0.67021  0.15105  0.89736  1.0000
  H   H3306     1.0  0.70036  0.17573  0.88260  1.0000
  H   H3307     1.0  0.69469  0.15296  0.88913  1.0000
  H   H3308     1.0  0.65876  0.20618  0.89377  1.0000
  H   H3309     1.0  0.64929  0.20062  0.88496  1.0000
  H   H3310     1.0  0.64716  0.19542  0.90339  1.0000
  C   C3341     1.0  0.60651  0.18419  0.82179  1.0000
  H   H3311     1.0  0.62751  0.16368  0.81663  1.0000
  H   H3312     1.0  0.59627  0.19132  0.82209  1.0000
  H   H3313     1.0  0.61067  0.18481  0.83029  1.0000
  H   H3314     1.0  0.61341  0.18779  0.81195  1.0000
  N   N270      1.0  0.88457  0.38300  0.90109  1.0000
  C   C3342     1.0  0.87817  0.39642  0.89781  1.0000
  C   C3343     1.0  0.88967  0.37531  0.89133  1.0000
  C   C3344     1.0  0.87648  0.40244  0.88450  1.0000
  C   C3345     1.0  0.88831  0.38103  0.87787  1.0000
  C   C3346     1.0  0.88155  0.39465  0.87450  1.0000
  C   C3347     1.0  0.88620  0.37672  0.91508  1.0000
  H   H3315     1.0  0.87437  0.40256  0.90548  1.0000
  H   H3316     1.0  0.89491  0.36471  0.89393  1.0000
  H   H3317     1.0  0.87148  0.41314  0.88192  1.0000
  H   H3318     1.0  0.89262  0.37498  0.87010  1.0000
  H   H3319     1.0  0.88051  0.39929  0.86409  1.0000
  H   H3320     1.0  0.89729  0.37309  0.91525  1.0000
  H   H3321     1.0  0.88154  0.38397  0.92203  1.0000
  H   H3322     1.0  0.88103  0.36797  0.91918  1.0000
  N   N271      1.0  0.81971  0.41280  0.85075  1.0000
  C   C3348     1.0  0.83011  0.40327  0.84507  1.0000
  C   C3349     1.0  0.80640  0.41399  0.85012  1.0000
  C   C3350     1.0  0.82729  0.39447  0.83870  1.0000
  C   C3351     1.0  0.80323  0.40543  0.84373  1.0000
  C   C3352     1.0  0.81375  0.39557  0.83805  1.0000
  C   C3353     1.0  0.82304  0.42183  0.85735  1.0000
  H   H3323     1.0  0.84069  0.40259  0.84530  1.0000
  H   H3324     1.0  0.79818  0.42175  0.85430  1.0000
  H   H3325     1.0  0.83553  0.38699  0.83409  1.0000
  H   H3326     1.0  0.79275  0.40669  0.84281  1.0000
  H   H3327     1.0  0.81145  0.38896  0.83295  1.0000
  H   H3328     1.0  0.82797  0.41577  0.86597  1.0000
  H   H3329     1.0  0.83021  0.42791  0.84989  1.0000
  H   H3330     1.0  0.81378  0.42912  0.86158  1.0000
  N   N272      1.0  0.77163  0.13567  0.81852  1.0000
  C   C3354     1.0  0.78308  0.13500  0.80809  1.0000
  C   C3355     1.0  0.76370  0.12624  0.82186  1.0000
  C   C3356     1.0  0.78708  0.12444  0.80098  1.0000
  H   H3331     1.0  0.79601  0.12406  0.79253  1.0000
  C   C3357     1.0  0.76730  0.11564  0.81486  1.0000
  C   C3358     1.0  0.68388  0.16886  0.79693  1.0000
  H   H3332     1.0  0.78913  0.14273  0.80510  1.0000
  H   H3333     1.0  0.75443  0.12696  0.82990  1.0000
  C   C3359     1.0  0.89724  0.35598  0.81917  1.0000
  C   C3360     1.0  0.66141  0.18382  0.79618  1.0000
  H   H3334     1.0  0.83326  0.29470  0.89571  1.0000
  H   H3335     1.0  0.86553  0.39534  0.97852  1.0000
  N   N273      1.0  0.88144  0.24733  0.79113  1.0000
  C   C3361     1.0  0.50519  0.13491  0.83015  1.0000
  N   N274      1.0  0.56617  0.17478  0.90522  1.0000
  C   C3362     1.0  0.57566  0.17693  0.91083  1.0000
  C   C3363     1.0  0.56346  0.18287  0.89313  1.0000
  C   C3364     1.0  0.58335  0.18682  0.90388  1.0000
  C   C3365     1.0  0.57060  0.19321  0.88617  1.0000
  C   C3366     1.0  0.58083  0.19497  0.89144  1.0000
  C   C3367     1.0  0.55857  0.16400  0.91235  1.0000
  H   H3336     1.0  0.57779  0.17058  0.92046  1.0000
  H   H3337     1.0  0.55592  0.18123  0.88865  1.0000
  H   H3338     1.0  0.59142  0.18790  0.90802  1.0000
  H   H3339     1.0  0.56857  0.19950  0.87649  1.0000
  H   H3340     1.0  0.58693  0.20249  0.88575  1.0000
  H   H3341     1.0  0.56414  0.15606  0.91966  1.0000
  H   H3342     1.0  0.54822  0.16843  0.91799  1.0000
  H   H3343     1.0  0.55741  0.15865  0.90500  1.0000
  C   C3368     1.0  0.96085  0.40299  0.85093  1.0000
  H   H3344     1.0  0.86126  0.32714  0.91117  1.0000
  C   C3369     1.0  0.51784  0.13583  0.83168  1.0000
  C   C3370     1.0  0.61429  0.26737  0.79079  1.0000
  H   H3345     1.0  0.62372  0.99618  0.83494  1.0000
  C   C3371     1.0  0.99529  0.35720  0.85924  1.0000
  C   C3372     1.0  0.76731  0.14703  0.82559  1.0000
  C   C3373     1.0  0.64521  0.99309  0.83463  1.0000
  H   H3346     1.0  0.92770  0.36199  0.81924  1.0000
  H   H3347     1.0  0.85457  0.31839  0.92813  1.0000
  C   C3374     1.0  0.96421  0.39667  0.83986  1.0000
  C   C3375     1.0  0.51834  0.14598  0.83784  1.0000
  H   H3348     1.0  0.96789  0.40053  0.85769  1.0000
  H   H3349     1.0  0.84426  0.47661  0.89051  1.0000
  C   C3376     1.0  0.77911  0.11471  0.80442  1.0000
  N   N275      1.0  0.68604  0.07276  0.89644  1.0000
  C   C3377     1.0  0.68017  0.06223  0.89732  1.0000
  C   C3378     1.0  0.68479  0.07750  0.90783  1.0000
  C   C3379     1.0  0.67282  0.05616  0.90986  1.0000
  C   C3380     1.0  0.67761  0.07159  0.92054  1.0000
  C   C3381     1.0  0.67151  0.06092  0.92151  1.0000
  C   C3382     1.0  0.69274  0.07961  0.88302  1.0000
  H   H3350     1.0  0.68086  0.05873  0.88822  1.0000
  H   H3351     1.0  0.68878  0.08631  0.90708  1.0000
  H   H3352     1.0  0.66774  0.04815  0.91045  1.0000
  H   H3353     1.0  0.67614  0.07580  0.92940  1.0000
  H   H3354     1.0  0.66539  0.05666  0.93118  1.0000
  H   H3355     1.0  0.69905  0.07203  0.87675  1.0000
  H   H3356     1.0  0.68479  0.08660  0.87757  1.0000
  H   H3357     1.0  0.69967  0.08563  0.88385  1.0000
  N   N276      1.0  0.83073  0.32709  0.82220  1.0000
  C   C3383     1.0  0.82056  0.32092  0.83083  1.0000
  C   C3384     1.0  0.84099  0.32876  0.82705  1.0000
  C   C3385     1.0  0.82063  0.31604  0.84467  1.0000
  C   C3386     1.0  0.84147  0.32387  0.84082  1.0000
  C   C3387     1.0  0.83118  0.31750  0.84967  1.0000
  C   C3388     1.0  0.83017  0.33260  0.80783  1.0000
  H   H3358     1.0  0.81233  0.31973  0.82704  1.0000
  H   H3359     1.0  0.84890  0.33388  0.82027  1.0000
  H   H3360     1.0  0.81264  0.31101  0.85146  1.0000
  H   H3361     1.0  0.84984  0.32487  0.84454  1.0000
  H   H3362     1.0  0.83154  0.31338  0.86031  1.0000
  H   H3363     1.0  0.84065  0.33259  0.80129  1.0000
  H   H3364     1.0  0.82564  0.32622  0.80407  1.0000
  H   H3365     1.0  0.82391  0.34321  0.80661  1.0000
  N   N277      1.0  0.78118  0.26863  0.93602  1.0000
  C   C3389     1.0  0.77451  0.28087  0.93959  1.0000
  C   C3390     1.0  0.77479  0.26215  0.93067  1.0000
  C   C3391     1.0  0.76131  0.28719  0.93728  1.0000
  C   C3392     1.0  0.76160  0.26816  0.92823  1.0000
  C   C3393     1.0  0.75486  0.28080  0.93150  1.0000
  C   C3394     1.0  0.79498  0.26210  0.93853  1.0000
  H   H3366     1.0  0.77948  0.28594  0.94403  1.0000
  H   H3367     1.0  0.78001  0.25238  0.92794  1.0000
  H   H3368     1.0  0.75625  0.29707  0.93978  1.0000
  H   H3369     1.0  0.75682  0.26314  0.92352  1.0000
  H   H3370     1.0  0.74474  0.28567  0.92941  1.0000
  H   H3371     1.0  0.80116  0.25619  0.93062  1.0000
  H   H3372     1.0  0.80074  0.26982  0.93805  1.0000
  H   H3373     1.0  0.79421  0.25516  0.94874  1.0000
  N   N278      1.0  0.69223  0.19744  0.82066  1.0000
  C   C3395     1.0  0.69959  0.19689  0.82990  1.0000
  C   C3396     1.0  0.68325  0.18906  0.82363  1.0000
  C   C3397     1.0  0.69796  0.18788  0.84258  1.0000
  C   C3398     1.0  0.68137  0.17990  0.83621  1.0000
  C   C3399     1.0  0.68882  0.17930  0.84571  1.0000
  C   C3400     1.0  0.69461  0.20645  0.80717  1.0000
  H   H3374     1.0  0.70679  0.20346  0.82752  1.0000
  H   H3375     1.0  0.67751  0.18939  0.81625  1.0000
  H   H3376     1.0  0.70388  0.18748  0.84983  1.0000
  H   H3377     1.0  0.67428  0.17325  0.83845  1.0000
  H   H3378     1.0  0.68759  0.17213  0.85543  1.0000
  H   H3379     1.0  0.68524  0.20960  0.80287  1.0000
  H   H3380     1.0  0.69695  0.21598  0.80780  1.0000
  H   H3381     1.0  0.70323  0.20108  0.80012  1.0000
  N   N279      1.0  0.75132  0.36230  0.82984  1.0000
  C   C3401     1.0  0.75835  0.37145  0.83024  1.0000
  C   C3402     1.0  0.74818  0.35237  0.84109  1.0000
  C   C3403     1.0  0.76225  0.37093  0.84220  1.0000
  C   C3404     1.0  0.75181  0.35164  0.85325  1.0000
  C   C3405     1.0  0.75891  0.36098  0.85378  1.0000
  C   C3406     1.0  0.74774  0.36283  0.81704  1.0000
  H   H3382     1.0  0.76108  0.37914  0.82124  1.0000
  H   H3383     1.0  0.74300  0.34483  0.84069  1.0000
  H   H3384     1.0  0.76808  0.37802  0.84239  1.0000
  H   H3385     1.0  0.74962  0.34356  0.86207  1.0000
  H   H3386     1.0  0.76223  0.36016  0.86302  1.0000
  H   H3387     1.0  0.74345  0.37355  0.81230  1.0000
  H   H3388     1.0  0.75713  0.35885  0.80972  1.0000
  H   H3389     1.0  0.73991  0.35683  0.81859  1.0000
  H   H3390     1.0  0.93592  0.41097  0.82699  1.0000
  H   H3391     1.0  0.94968  0.39021  0.81856  1.0000
  C   C3407     1.0  0.61846  0.28678  0.79636  1.0000
  H   H3392     1.0  0.88638  0.35827  0.82396  1.0000
  H   H3393     1.0  0.94556  0.41733  0.86185  1.0000
  C   C3408     1.0  0.94304  0.40876  0.83361  1.0000
  H   H3394     1.0  0.51061  0.10753  0.85656  1.0000
  H   H3395     1.0  0.65992  0.25458  0.80032  1.0000
  H   H3396     1.0  0.64142  0.16827  0.95761  1.0000
  C   C3409     1.0  0.66951  0.17083  0.79985  1.0000
  H   H3397     1.0  0.94627  0.34601  0.80815  1.0000
  C   C3410     1.0  0.90199  0.34761  0.80969  1.0000
  Fe  Fe576     1.0  0.78672  0.38711  0.79418  1.0000
  C   C3411     1.0  0.86671  0.26364  0.80429  1.0000
  C   C3412     1.0  0.84572  0.29422  0.90936  1.0000
  H   H3398     1.0  0.66153  0.20475  0.78618  1.0000
  N   N280      1.0  0.84655  0.31602  0.91229  1.0000
  H   H3399     1.0  0.84407  0.33351  0.92031  1.0000
  H   H3400     1.0  0.74387  0.37826  0.78543  1.0000
  H   H3401     1.0  0.82452  0.47084  0.88813  1.0000
  C   C3413     1.0  0.50564  0.11603  0.86154  1.0000
  N   N281      1.0  0.92517  0.34941  0.80746  1.0000
  S   S1145     1.0  0.98592  0.36198  0.83560  1.0000
  H   H3402     1.0  0.78177  0.10676  0.79864  1.0000
  C   C3414     1.0  0.63926  0.16806  0.96844  1.0000
  N   N282      1.0  0.60708  0.10124  0.89553  1.0000
  C   C3415     1.0  0.61214  0.10130  0.90628  1.0000
  C   C3416     1.0  0.60812  0.11141  0.88407  1.0000
  C   C3417     1.0  0.61885  0.11148  0.90557  1.0000
  C   C3418     1.0  0.61478  0.12176  0.88301  1.0000
  C   C3419     1.0  0.62022  0.12172  0.89384  1.0000
  C   C3420     1.0  0.59983  0.09062  0.89671  1.0000
  H   H3403     1.0  0.61091  0.09348  0.91552  1.0000
  H   H3404     1.0  0.60354  0.11172  0.87581  1.0000
  H   H3405     1.0  0.62265  0.11163  0.91420  1.0000
  H   H3406     1.0  0.61537  0.12993  0.87403  1.0000
  H   H3407     1.0  0.62512  0.12983  0.89335  1.0000
  H   H3408     1.0  0.58924  0.09305  0.90302  1.0000
  H   H3409     1.0  0.59905  0.08978  0.88658  1.0000
  H   H3410     1.0  0.60536  0.08050  0.90158  1.0000
  C   C3421     1.0  0.63446  0.03169  0.84545  1.0000
  H   H3411     1.0  0.65616  0.07049  0.82793  1.0000
  H   H3412     1.0  0.62676  0.13960  0.81892  1.0000
  H   H3413     1.0  0.85725  0.29700  0.92224  1.0000
  C   C3422     1.0  0.61731  0.14706  0.82132  1.0000
  C   C3423     1.0  0.91607  0.34448  0.80384  1.0000
  H   H3414     1.0  0.92968  0.42273  0.84618  1.0000
  C   C3424     1.0  0.83331  0.31492  0.89718  1.0000
  S   S1146     1.0  0.89442  0.31257  0.82220  1.0000
  H   H3415     1.0  0.66468  0.16237  0.80532  1.0000
  C   C3425     1.0  0.59258  0.15291  0.82871  1.0000
  H   H3416     1.0  0.64237  0.25396  0.80155  1.0000
  C   C3426     1.0  0.85046  0.30209  0.91525  1.0000
  H   H3417     1.0  0.77609  0.15144  0.82505  1.0000
  H   H3418     1.0  0.58270  0.14998  0.83210  1.0000
  H   H3419     1.0  0.83512  0.38803  0.96234  1.0000
  C   C3427     1.0  0.93988  0.34613  0.80113  1.0000
  S   S1147     1.0  0.60932  0.25171  0.79563  1.0000
  N   N283      1.0  0.50655  0.15494  0.84237  1.0000
  H   H3420     1.0  0.76103  0.14297  0.78540  1.0000
  C   C3428     1.0  0.85188  0.32414  0.91824  1.0000
  H   H3421     1.0  0.96670  0.38310  0.82143  1.0000
  C   C3429     1.0  0.65144  0.01126  0.84013  1.0000
  H   H3422     1.0  0.65914  0.01514  0.84227  1.0000
  C   C3430     1.0  0.85567  0.39281  0.98003  1.0000
  C   C3431     1.0  0.93944  0.41543  0.84447  1.0000
  C   C3432     1.0  0.83707  0.30070  0.90029  1.0000
  H   H3423     1.0  0.85734  0.39422  0.95862  1.0000
  H   H3424     1.0  0.49951  0.16507  0.85894  1.0000
  C   C3433     1.0  0.83823  0.32246  0.90326  1.0000
  C   C3434     1.0  0.64973  0.26079  0.79854  1.0000
  C   C3435     1.0  0.94835  0.41240  0.85326  1.0000
  H   H3425     1.0  0.90303  0.36783  0.82986  1.0000
  H   H3426     1.0  0.96309  0.39970  0.81046  1.0000
  H   H3427     1.0  0.76080  0.10838  0.81726  1.0000
  C   C3436     1.0  0.90655  0.36124  0.82256  1.0000
  H   H3428     1.0  0.61758  0.01888  0.84078  1.0000
  H   H3429     1.0  0.52814  0.14632  0.83942  1.0000
  N   N284      1.0  0.65095  0.26779  0.78418  1.0000
  H   H3430     1.0  0.58938  0.31273  0.79387  1.0000
  C   C3437     1.0  0.66774  0.19474  0.78922  1.0000
  H   H3431     1.0  0.69000  0.15885  0.80008  1.0000
  H   H3432     1.0  0.66571  0.99259  0.83604  1.0000
  H   H3433     1.0  0.81278  0.45054  0.78651  1.0000
  H   H3434     1.0  0.51733  0.16377  0.85137  1.0000
  H   H3435     1.0  0.82361  0.48029  0.87105  1.0000
  H   H3436     1.0  0.65371  0.28605  0.78750  1.0000
  C   C3438     1.0  0.82101  0.48109  0.88190  1.0000
  H   H3437     1.0  0.88840  0.25628  0.80336  1.0000
  S   S1148     1.0  0.70810  0.17758  0.78743  1.0000
  H   H3438     1.0  0.98953  0.32220  0.86748  1.0000
  H   H3439     1.0  0.81795  0.37622  0.97819  1.0000
  C   C3439     1.0  0.85736  0.25457  0.79081  1.0000
  H   H3440     1.0  0.62041  0.16105  0.97315  1.0000
  H   H3441     1.0  0.83131  0.45393  0.79402  1.0000
  C   C3440     1.0  0.64855  0.17129  0.97389  1.0000
  S   S1149     1.0  0.75299  0.11804  0.78673  1.0000
  H   H3442     1.0  0.84877  0.25422  0.78699  1.0000
  C   C3441     1.0  0.62016  0.29352  0.78261  1.0000
  C   C3442     1.0  0.87044  0.24653  0.78678  1.0000
  C   C3443     1.0  0.68213  0.19271  0.78601  1.0000
  H   H3443     1.0  0.90328  0.24450  0.78522  1.0000
  C   C3444     1.0  0.83904  0.44977  0.78552  1.0000
  H   H3444     1.0  0.84839  0.44429  0.78965  1.0000
  Fe  Fe577     1.0  0.64617  0.91403  0.16132  1.0000
  S   S1150     1.0  0.62863  0.93242  0.16108  1.0000
  H   H3445     1.0  0.66058  0.86170  0.99576  1.0000
  Fe  Fe578     1.0  0.64738  0.91232  0.13226  1.0000
  S   S1151     1.0  0.65791  0.89747  0.11828  1.0000
  Fe  Fe579     1.0  0.61985  0.92159  0.15078  1.0000
  S   S1152     1.0  0.59809  0.91873  0.15868  1.0000
  S   S1153     1.0  0.65877  0.92225  0.14095  1.0000
  S   S1154     1.0  0.63636  0.90268  0.15272  1.0000
  Fe  Fe580     1.0  0.53556  0.86899  0.14342  1.0000
  S   S1155     1.0  0.54557  0.84863  0.15447  1.0000
  C   C3445     1.0  0.88320  0.53193  0.11632  1.0000
  Fe  Fe581     1.0  0.56241  0.87900  0.13420  1.0000
  S   S1156     1.0  0.57456  0.85935  0.14408  1.0000
  S   S1157     1.0  0.57333  0.89594  0.12249  1.0000
  Fe  Fe582     1.0  0.56286  0.84961  0.13591  1.0000
  S   S1158     1.0  0.57387  0.83028  0.12879  1.0000
  C   C3446     1.0  0.93623  0.65019  0.07029  1.0000
  H   H3446     1.0  0.78387  0.81860  0.10818  1.0000
  S   S1159     1.0  0.55221  0.86917  0.12421  1.0000
  N   N285      1.0  0.60634  0.97204  0.15181  1.0000
  Fe  Fe583     1.0  0.63633  0.86644  0.03844  1.0000
  S   S1160     1.0  0.64776  0.84549  0.04672  1.0000
  S   S1161     1.0  0.63056  0.87348  0.01766  1.0000
  Fe  Fe584     1.0  0.63492  0.87685  0.06379  1.0000
  S   S1162     1.0  0.64581  0.85662  0.07403  1.0000
  S   S1163     1.0  0.62836  0.89528  0.07349  1.0000
  Fe  Fe585     1.0  0.65987  0.85618  0.05351  1.0000
  S   S1164     1.0  0.68276  0.84874  0.05150  1.0000
  Fe  Fe586     1.0  0.63272  0.84783  0.06656  1.0000
  S   S1165     1.0  0.62634  0.82896  0.08015  1.0000
  S   S1166     1.0  0.64991  0.87706  0.04356  1.0000
  S   S1167     1.0  0.62028  0.86810  0.05800  1.0000
  H   H3447     1.0  0.64497  0.82642  0.09856  1.0000
  Fe  Fe587     1.0  0.92099  0.65554  0.15474  1.0000
  S   S1168     1.0  0.93362  0.63468  0.15223  1.0000
  S   S1169     1.0  0.63002  0.93060  0.12960  1.0000
  Fe  Fe588     1.0  0.92711  0.66710  0.12435  1.0000
  S   S1170     1.0  0.94063  0.64746  0.11954  1.0000
  S   S1171     1.0  0.92230  0.68505  0.10747  1.0000
  Fe  Fe589     1.0  0.92384  0.63804  0.13453  1.0000
  S   S1172     1.0  0.91407  0.62573  0.12668  1.0000
  Fe  Fe590     1.0  0.94925  0.64613  0.13756  1.0000
  S   S1173     1.0  0.90990  0.65792  0.13835  1.0000
  S   S1174     1.0  0.93708  0.66680  0.14114  1.0000
  Fe  Fe591     1.0  0.87736  0.56673  0.15480  1.0000
  S   S1175     1.0  0.64144  0.96232  0.13085  1.0000
  S   S1176     1.0  0.89401  0.57197  0.16121  1.0000
  Fe  Fe592     1.0  0.86371  0.54388  0.15537  1.0000
  S   S1177     1.0  0.84511  0.55877  0.14927  1.0000
  S   S1178     1.0  0.86626  0.52085  0.16015  1.0000
  Fe  Fe593     1.0  0.86054  0.56992  0.13421  1.0000
  S   S1179     1.0  0.85682  0.57785  0.11306  1.0000
  H   H3448     1.0  0.68450  0.82610  0.10468  1.0000
  C   C3447     1.0  0.50319  0.86695  0.13900  1.0000
  S   S1180     1.0  0.87923  0.55438  0.13948  1.0000
  C   C3448     1.0  0.71608  0.87710  0.16221  1.0000
  Fe  Fe594     1.0  0.86332  0.65741  0.06931  1.0000
  S   S1181     1.0  0.87195  0.67188  0.05091  1.0000
  S   S1182     1.0  0.84455  0.66387  0.08513  1.0000
  Fe  Fe595     1.0  0.88746  0.63406  0.06389  1.0000
  S   S1183     1.0  0.89824  0.64668  0.04503  1.0000
  S   S1184     1.0  0.89822  0.61308  0.07298  1.0000
  Fe  Fe596     1.0  0.89195  0.66275  0.05749  1.0000
  S   S1185     1.0  0.90543  0.67663  0.05687  1.0000
  Fe  Fe597     1.0  0.87724  0.65449  0.04008  1.0000
  S   S1186     1.0  0.87432  0.66029  0.01822  1.0000
  S   S1187     1.0  0.88298  0.64954  0.07664  1.0000
  S   S1188     1.0  0.86684  0.64063  0.05818  1.0000
  C   C3449     1.0  0.90030  0.66240  0.98832  1.0000
  H   H3449     1.0  0.91124  0.58686  0.16581  1.0000
  H   H3450     1.0  0.86944  0.49232  0.16177  1.0000
  N   N286      1.0  0.52633  0.90575  0.12299  1.0000
  Fe  Fe598     1.0  0.82769  0.72514  0.11600  1.0000
  S   S1189     1.0  0.80575  0.72430  0.12653  1.0000
  S   S1190     1.0  0.83562  0.72351  0.09398  1.0000
  Fe  Fe599     1.0  0.83550  0.72570  0.14178  1.0000
  S   S1191     1.0  0.81438  0.72452  0.15442  1.0000
  S   S1192     1.0  0.85342  0.72415  0.15073  1.0000
  Fe  Fe600     1.0  0.81524  0.70905  0.14290  1.0000
  S   S1193     1.0  0.80870  0.68938  0.15350  1.0000
  Fe  Fe601     1.0  0.80690  0.74003  0.13694  1.0000
  S   S1194     1.0  0.78958  0.75689  0.14412  1.0000
  S   S1195     1.0  0.83706  0.70882  0.13174  1.0000
  S   S1196     1.0  0.82815  0.74236  0.12494  1.0000
  Fe  Fe602     1.0  0.71604  0.84274  0.11004  1.0000
  S   S1197     1.0  0.71260  0.82183  0.11308  1.0000
  S   S1198     1.0  0.70593  0.86055  0.09584  1.0000
  Fe  Fe603     1.0  0.72935  0.83493  0.13457  1.0000
  S   S1199     1.0  0.72657  0.81344  0.14005  1.0000
  S   S1200     1.0  0.73907  0.84407  0.14564  1.0000
  Fe  Fe604     1.0  0.73384  0.81436  0.11748  1.0000
  S   S1201     1.0  0.74991  0.79817  0.10767  1.0000
  Fe  Fe605     1.0  0.70572  0.82289  0.13513  1.0000
  S   S1202     1.0  0.68448  0.82029  0.14615  1.0000
  S   S1203     1.0  0.73797  0.83544  0.11225  1.0000
  S   S1204     1.0  0.70791  0.84425  0.13185  1.0000
  Fe  Fe606     1.0  0.64041  0.94005  0.14002  1.0000
  C   C3450     1.0  0.73533  0.83973  0.16355  1.0000
  C   C3451     1.0  0.86749  0.54593  0.10214  1.0000
  C   C3452     1.0  0.83127  0.64369  0.99179  1.0000
  C   C3453     1.0  0.64246  0.98144  0.15981  1.0000
  Fe  Fe607     1.0  0.55645  0.86022  0.16173  1.0000
  H   H3451     1.0  0.66331  0.84565  0.15378  1.0000
  H   H3452     1.0  0.72527  0.82360  0.16541  1.0000
  C   C3454     1.0  0.97923  0.65988  0.14159  1.0000
  C   C3455     1.0  0.66398  0.82672  0.10315  1.0000
  H   H3453     1.0  0.74479  0.85503  0.16511  1.0000
  H   H3454     1.0  0.78204  0.80202  0.10753  1.0000
  H   H3455     1.0  0.50810  0.91482  0.15272  1.0000
  H   H3456     1.0  0.66323  0.85072  0.98437  1.0000
  C   C3456     1.0  0.53846  0.90909  0.12211  1.0000
  H   H3457     1.0  0.57526  0.86821  0.98279  1.0000
  H   H3458     1.0  0.90228  0.72995  0.16606  1.0000
  H   H3459     1.0  0.67672  0.91148  0.16368  1.0000
  C   C3457     1.0  0.82779  0.53421  0.17477  1.0000
  N   N287      1.0  0.59799  0.83780  0.98333  1.0000
  H   H3460     1.0  0.57195  0.82376  0.15784  1.0000
  C   C3458     1.0  0.67824  0.82477  0.09855  1.0000
  H   H3461     1.0  0.59621  0.96593  0.14007  1.0000
  S   S1205     1.0  0.97200  0.63758  0.13792  1.0000
  H   H3462     1.0  0.67655  0.88300  0.13666  1.0000
  C   C3459     1.0  0.82799  0.68772  0.16744  1.0000
  H   H3463     1.0  0.92105  0.61264  0.10361  1.0000
  H   H3464     1.0  0.58337  0.86336  0.16508  1.0000
  C   C3460     1.0  0.61404  0.87670  0.13554  1.0000
  H   H3465     1.0  0.83071  0.69646  0.15990  1.0000
  C   C3461     1.0  0.98849  0.66617  0.14399  1.0000
  C   C3462     1.0  0.83464  0.68248  0.17832  1.0000
  H   H3466     1.0  0.60755  0.85760  0.14219  1.0000
  H   H3467     1.0  0.67765  0.84986  0.13062  1.0000
  C   C3463     1.0  0.65609  0.82495  0.09515  1.0000
  C   C3464     1.0  0.58917  0.85957  0.99649  1.0000
  C   C3465     1.0  0.97388  0.65178  0.17551  1.0000
  H   H3468     1.0  0.66403  0.86439  0.12645  1.0000
  H   H3469     1.0  0.65909  0.82953  0.11292  1.0000
  C   C3466     1.0  0.77780  0.76663  0.13396  1.0000
  C   C3467     1.0  0.78103  0.76779  0.11983  1.0000
  C   C3468     1.0  0.77214  0.77715  0.11185  1.0000
  C   C3469     1.0  0.76007  0.78542  0.11798  1.0000
  C   C3470     1.0  0.75668  0.78390  0.13214  1.0000
  C   C3471     1.0  0.76548  0.77450  0.14010  1.0000
  H   H3470     1.0  0.79055  0.76177  0.11501  1.0000
  H   H3471     1.0  0.77479  0.77823  0.10089  1.0000
  H   H3472     1.0  0.74734  0.78999  0.13700  1.0000
  H   H3473     1.0  0.76289  0.77358  0.15104  1.0000
  C   C3472     1.0  0.87006  0.65031  0.00940  1.0000
  C   C3473     1.0  0.86785  0.65628  0.99620  1.0000
  C   C3474     1.0  0.58011  0.82293  0.16286  1.0000
  H   H3474     1.0  0.94167  0.67190  0.17644  1.0000
  C   C3475     1.0  0.86732  0.62884  0.00671  1.0000
  C   C3476     1.0  0.86970  0.63655  0.01469  1.0000
  C   C3477     1.0  0.58609  0.85752  0.17454  1.0000
  H   H3475     1.0  0.61936  0.89619  0.12607  1.0000
  H   H3476     1.0  0.86711  0.61818  0.01084  1.0000
  H   H3477     1.0  0.87140  0.63182  0.02485  1.0000
  C   C3478     1.0  0.84313  0.68028  0.08740  1.0000
  C   C3479     1.0  0.83926  0.68271  0.10060  1.0000
  C   C3480     1.0  0.83693  0.69594  0.10264  1.0000
  C   C3481     1.0  0.83877  0.70681  0.09152  1.0000
  C   C3482     1.0  0.84299  0.70433  0.07829  1.0000
  C   C3483     1.0  0.84512  0.69108  0.07622  1.0000
  H   H3478     1.0  0.83782  0.67437  0.10928  1.0000
  H   H3479     1.0  0.83335  0.69772  0.11283  1.0000
  H   H3480     1.0  0.84436  0.71270  0.06962  1.0000
  H   H3481     1.0  0.84794  0.68931  0.06597  1.0000
  C   C3484     1.0  0.86061  0.51220  0.15103  1.0000
  C   C3485     1.0  0.86386  0.49787  0.15386  1.0000
  C   C3486     1.0  0.69733  0.84928  0.16859  1.0000
  H   H3482     1.0  0.64218  0.97892  0.17062  1.0000
  C   C3487     1.0  0.84966  0.51197  0.13332  1.0000
  C   C3488     1.0  0.85333  0.51924  0.14084  1.0000
  H   H3483     1.0  0.69960  0.90921  0.16841  1.0000
  H   H3484     1.0  0.84416  0.51749  0.12535  1.0000
  H   H3485     1.0  0.85070  0.53028  0.13860  1.0000
  C   C3489     1.0  0.86824  0.58791  0.10230  1.0000
  C   C3490     1.0  0.88089  0.58695  0.10525  1.0000
  C   C3491     1.0  0.89015  0.59463  0.09616  1.0000
  C   C3492     1.0  0.88658  0.60357  0.08435  1.0000
  C   C3493     1.0  0.87383  0.60469  0.08156  1.0000
  C   C3494     1.0  0.86476  0.59672  0.09043  1.0000
  H   H3486     1.0  0.88362  0.58017  0.11442  1.0000
  H   H3487     1.0  0.89999  0.59375  0.09837  1.0000
  H   H3488     1.0  0.87109  0.61144  0.07240  1.0000
  H   H3489     1.0  0.85499  0.59747  0.08813  1.0000
  H   H3490     1.0  0.69652  0.89921  0.08578  1.0000
  H   H3491     1.0  0.90210  0.64160  0.99919  1.0000
  H   H3492     1.0  0.59531  0.82481  0.14393  1.0000
  C   C3495     1.0  0.91765  0.68192  0.09377  1.0000
  C   C3496     1.0  0.91855  0.69162  0.08152  1.0000
  C   C3497     1.0  0.91480  0.68973  0.07039  1.0000
  C   C3498     1.0  0.90964  0.67836  0.07148  1.0000
  C   C3499     1.0  0.90840  0.66871  0.08384  1.0000
  C   C3500     1.0  0.91269  0.67035  0.09491  1.0000
  H   H3493     1.0  0.92237  0.70057  0.08056  1.0000
  H   H3494     1.0  0.91584  0.69720  0.06089  1.0000
  H   H3495     1.0  0.90445  0.65987  0.08478  1.0000
  H   H3496     1.0  0.91191  0.66281  0.10437  1.0000
  C   C3501     1.0  0.90815  0.61114  0.13684  1.0000
  C   C3502     1.0  0.89959  0.60596  0.13216  1.0000
  C   C3503     1.0  0.89511  0.59402  0.13964  1.0000
  C   C3504     1.0  0.89933  0.58708  0.15176  1.0000
  C   C3505     1.0  0.64265  0.97442  0.13934  1.0000
  C   C3506     1.0  0.96316  0.66333  0.17664  1.0000
  H   H3497     1.0  0.89642  0.61116  0.12269  1.0000
  H   H3498     1.0  0.88863  0.59006  0.13585  1.0000
  H   H3499     1.0  0.64246  0.96092  0.15902  1.0000
  C   C3507     1.0  0.91339  0.68401  0.17196  1.0000
  H   H3500     1.0  0.58592  0.86816  0.00148  1.0000
  C   C3508     1.0  0.63109  0.86250  0.00714  1.0000
  C   C3509     1.0  0.62603  0.86814  0.99518  1.0000
  C   C3510     1.0  0.51665  0.91343  0.14408  1.0000
  H   H3501     1.0  0.87912  0.55400  0.11098  1.0000
  C   C3511     1.0  0.63878  0.84056  0.00043  1.0000
  C   C3512     1.0  0.63727  0.84860  0.00985  1.0000
  H   H3502     1.0  0.52078  0.90863  0.10416  1.0000
  H   H3503     1.0  0.86812  0.66692  0.99203  1.0000
  H   H3504     1.0  0.64373  0.82985  0.00252  1.0000
  H   H3505     1.0  0.64115  0.84411  0.01905  1.0000
  C   C3513     1.0  0.68883  0.85085  0.06474  1.0000
  C   C3514     1.0  0.70251  0.84497  0.06578  1.0000
  C   C3515     1.0  0.70764  0.84715  0.07595  1.0000
  C   C3516     1.0  0.69914  0.85542  0.08492  1.0000
  C   C3517     1.0  0.68540  0.86095  0.08410  1.0000
  C   C3518     1.0  0.68024  0.85867  0.07406  1.0000
  H   H3506     1.0  0.70923  0.83895  0.05855  1.0000
  H   H3507     1.0  0.71833  0.84294  0.07646  1.0000
  H   H3508     1.0  0.67891  0.86751  0.09086  1.0000
  H   H3509     1.0  0.66986  0.86363  0.07308  1.0000
  C   C3519     1.0  0.58838  0.83069  0.11523  1.0000
  C   C3520     1.0  0.59194  0.84295  0.10739  1.0000
  C   C3521     1.0  0.60365  0.84268  0.09651  1.0000
  C   C3522     1.0  0.61171  0.83014  0.09360  1.0000
  C   C3523     1.0  0.60818  0.81800  0.10160  1.0000
  C   C3524     1.0  0.59656  0.81828  0.11233  1.0000
  H   H3510     1.0  0.58548  0.85256  0.10949  1.0000
  H   H3511     1.0  0.60628  0.85208  0.09023  1.0000
  H   H3512     1.0  0.61433  0.80831  0.09937  1.0000
  H   H3513     1.0  0.59382  0.80880  0.11830  1.0000
  C   C3525     1.0  0.61544  0.88803  0.12493  1.0000
  H   H3514     1.0  0.60421  0.84834  0.00852  1.0000
  H   H3515     1.0  0.67920  0.88530  0.04334  1.0000
  C   C3526     1.0  0.98353  0.64647  0.13966  1.0000
  H   H3516     1.0  0.70214  0.87799  0.04931  1.0000
  C   C3527     1.0  0.64922  0.89700  0.10618  1.0000
  C   C3528     1.0  0.63998  0.90845  0.10086  1.0000
  C   C3529     1.0  0.63386  0.90791  0.09061  1.0000
  C   C3530     1.0  0.63673  0.89586  0.08583  1.0000
  C   C3531     1.0  0.64589  0.88441  0.09126  1.0000
  C   C3532     1.0  0.65215  0.88502  0.10132  1.0000
  H   H3517     1.0  0.63775  0.91781  0.10442  1.0000
  H   H3518     1.0  0.62677  0.91684  0.08646  1.0000
  H   H3519     1.0  0.64818  0.87508  0.08774  1.0000
  H   H3520     1.0  0.65924  0.87614  0.10539  1.0000
  C   C3533     1.0  0.59167  0.91213  0.14846  1.0000
  C   C3534     1.0  0.58385  0.90217  0.15462  1.0000
  C   C3535     1.0  0.57828  0.89707  0.14670  1.0000
  C   C3536     1.0  0.58018  0.90220  0.13262  1.0000
  C   C3537     1.0  0.58777  0.91235  0.12650  1.0000
  C   C3538     1.0  0.59373  0.91713  0.13436  1.0000
  C   C3539     1.0  0.92222  0.63428  0.07287  1.0000
  H   H3521     1.0  0.57240  0.88928  0.15153  1.0000
  H   H3522     1.0  0.58918  0.91644  0.11563  1.0000
  H   H3523     1.0  0.59960  0.92494  0.12956  1.0000
  H   H3524     1.0  0.93794  0.65098  0.17239  1.0000
  C   C3540     1.0  0.52907  0.91661  0.14340  1.0000
  C   C3541     1.0  0.77341  0.79905  0.15541  1.0000
  H   H3525     1.0  0.60845  0.98636  0.13282  1.0000
  N   N288      1.0  0.88035  0.52041  0.11492  1.0000
  H   H3526     1.0  0.58211  0.89835  0.16554  1.0000
  C   C3542     1.0  0.86578  0.64853  0.98817  1.0000
  H   H3527     1.0  0.81307  0.68048  0.08356  1.0000
  C   C3543     1.0  0.50903  0.85392  0.13627  1.0000
  H   H3528     1.0  0.82046  0.52741  0.17972  1.0000
  H   H3529     1.0  0.51969  0.84933  0.13665  1.0000
  H   H3530     1.0  0.91599  0.70444  0.16922  1.0000
  N   N289      1.0  0.80699  0.67980  0.11727  1.0000
  C   C3544     1.0  0.80337  0.69351  0.11693  1.0000
  C   C3545     1.0  0.81023  0.67511  0.10547  1.0000
  C   C3546     1.0  0.80296  0.70294  0.10455  1.0000
  C   C3547     1.0  0.80984  0.68425  0.09293  1.0000
  C   C3548     1.0  0.80630  0.69825  0.09248  1.0000
  C   C3549     1.0  0.80839  0.67022  0.13024  1.0000
  H   H3531     1.0  0.80117  0.69719  0.12626  1.0000
  H   H3532     1.0  0.81380  0.66428  0.10557  1.0000
  H   H3533     1.0  0.80058  0.71380  0.10424  1.0000
  H   H3534     1.0  0.68465  0.88845  0.09537  1.0000
  H   H3535     1.0  0.80659  0.70545  0.08276  1.0000
  H   H3536     1.0  0.81810  0.67025  0.13281  1.0000
  H   H3537     1.0  0.79968  0.67331  0.13863  1.0000
  H   H3538     1.0  0.80852  0.65967  0.12984  1.0000
  H   H3539     1.0  0.82256  0.54371  0.16865  1.0000
  C   C3550     1.0  0.60837  0.97922  0.17105  1.0000
  H   H3540     1.0  0.66031  0.82294  0.16744  1.0000
  H   H3541     1.0  0.83498  0.63540  0.99967  1.0000
  H   H3542     1.0  0.96873  0.66534  0.14141  1.0000
  Fe  Fe608     1.0  0.84648  0.57067  0.16366  1.0000
  C   C3551     1.0  0.95895  0.64001  0.17207  1.0000
  C   C3552     1.0  0.84851  0.72513  0.16797  1.0000
  C   C3553     1.0  0.87145  0.52136  0.10699  1.0000
  C   C3554     1.0  0.88728  0.50702  0.12161  1.0000
  H   H3543     1.0  0.91913  0.60957  0.08823  1.0000
  S   S1206     1.0  0.54493  0.88067  0.15242  1.0000
  H   H3544     1.0  0.53479  0.89414  0.10743  1.0000
  N   N290      1.0  0.67656  0.81962  0.07806  1.0000
  C   C3555     1.0  0.68441  0.82107  0.08596  1.0000
  C   C3556     1.0  0.66259  0.82137  0.08256  1.0000
  S   S1207     1.0  0.90932  0.65803  0.17599  1.0000
  H   H3545     1.0  0.65961  0.89900  0.05749  1.0000
  C   C3557     1.0  0.73923  0.84711  0.17066  1.0000
  C   C3558     1.0  0.68317  0.81545  0.06502  1.0000
  H   H3546     1.0  0.69551  0.81953  0.08248  1.0000
  H   H3547     1.0  0.65635  0.82008  0.07638  1.0000
  C   C3559     1.0  0.59938  0.84843  0.00049  1.0000
  H   H3548     1.0  0.67668  0.82058  0.05740  1.0000
  H   H3549     1.0  0.69319  0.81857  0.06059  1.0000
  H   H3550     1.0  0.68487  0.80423  0.06646  1.0000
  C   C3560     1.0  0.60501  0.86763  0.12174  1.0000
  H   H3551     1.0  0.67842  0.90655  0.09013  1.0000
  C   C3561     1.0  0.60195  0.88015  0.09885  1.0000
  H   H3552     1.0  0.60099  0.85960  0.12053  1.0000
  H   H3553     1.0  0.84908  0.61007  0.15965  1.0000
  H   H3554     1.0  0.61064  0.87486  0.09181  1.0000
  H   H3555     1.0  0.59277  0.87578  0.10089  1.0000
  H   H3556     1.0  0.59908  0.89101  0.09363  1.0000
  N   N291      1.0  0.87871  0.69241  0.09050  1.0000
  C   C3562     1.0  0.88262  0.69396  0.10137  1.0000
  C   C3563     1.0  0.87456  0.68087  0.09112  1.0000
  C   C3564     1.0  0.88279  0.68362  0.11315  1.0000
  C   C3565     1.0  0.87441  0.67041  0.10280  1.0000
  C   C3566     1.0  0.87867  0.67176  0.11383  1.0000
  C   C3567     1.0  0.87844  0.70343  0.07832  1.0000
  H   H3557     1.0  0.88598  0.70307  0.10087  1.0000
  H   H3558     1.0  0.87154  0.67962  0.08248  1.0000
  H   H3559     1.0  0.88640  0.68469  0.12153  1.0000
  H   H3560     1.0  0.87112  0.66128  0.10319  1.0000
  H   H3561     1.0  0.87896  0.66357  0.12281  1.0000
  H   H3562     1.0  0.86848  0.71099  0.07974  1.0000
  H   H3563     1.0  0.88704  0.70861  0.07631  1.0000
  H   H3564     1.0  0.87974  0.69940  0.06909  1.0000
  N   N292      1.0  0.77599  0.80677  0.12730  1.0000
  C   C3568     1.0  0.76583  0.81422  0.13563  1.0000
  C   C3569     1.0  0.78515  0.79580  0.13269  1.0000
  C   C3570     1.0  0.81432  0.67058  0.17649  1.0000
  C   C3571     1.0  0.78395  0.79172  0.14682  1.0000
  H   H3565     1.0  0.85736  0.53486  0.09472  1.0000
  C   C3572     1.0  0.77740  0.81093  0.11248  1.0000
  H   H3566     1.0  0.75874  0.82309  0.13137  1.0000
  H   H3567     1.0  0.79312  0.78976  0.12614  1.0000
  H   H3568     1.0  0.60901  0.97694  0.18166  1.0000
  C   C3573     1.0  0.62774  0.86016  0.98567  1.0000
  H   H3569     1.0  0.72093  0.87951  0.16930  1.0000
  H   H3570     1.0  0.89270  0.71876  0.16433  1.0000
  H   H3571     1.0  0.84226  0.68733  0.17910  1.0000
  H   H3572     1.0  0.76715  0.81533  0.10985  1.0000
  H   H3573     1.0  0.89027  0.53120  0.12257  1.0000
  C   C3574     1.0  0.76434  0.81043  0.14980  1.0000
  C   C3575     1.0  0.85822  0.71971  0.17614  1.0000
  N   N293      1.0  0.88177  0.73921  0.16344  1.0000
  C   C3576     1.0  0.87349  0.74370  0.15422  1.0000
  C   C3577     1.0  0.86065  0.75254  0.15708  1.0000
  C   C3578     1.0  0.51540  0.90814  0.13363  1.0000
  H   H3574     1.0  0.87650  0.73998  0.14483  1.0000
  C   C3579     1.0  0.60391  0.82249  0.16127  1.0000
  N   N294      1.0  0.57749  0.82136  0.17671  1.0000
  H   H3575     1.0  0.50567  0.83668  0.13100  1.0000
  H   H3576     1.0  0.61420  0.82303  0.15525  1.0000
  H   H3577     1.0  0.50574  0.90556  0.13430  1.0000
  H   H3578     1.0  0.90077  0.66602  0.99696  1.0000
  H   H3579     1.0  0.98504  0.67652  0.14556  1.0000
  H   H3580     1.0  0.60744  0.85859  0.16745  1.0000
  C   C3580     1.0  0.63426  0.84636  0.98818  1.0000
  C   C3581     1.0  0.60672  0.96928  0.16531  1.0000
  H   H3581     1.0  0.75614  0.81626  0.15636  1.0000
  S   S1208     1.0  0.65226  0.90197  0.18105  1.0000
  H   H3582     1.0  0.61184  0.82906  0.99675  1.0000
  H   H3583     1.0  0.70940  0.88666  0.15779  1.0000
  H   H3584     1.0  0.68149  0.86633  0.12307  1.0000
  H   H3585     1.0  0.96498  0.67245  0.17826  1.0000
  C   C3582     1.0  0.89472  0.72920  0.16068  1.0000
  C   C3583     1.0  0.67360  0.86096  0.13036  1.0000
  C   C3584     1.0  0.66139  0.85782  0.16810  1.0000
  H   H3586     1.0  0.77220  0.79585  0.16639  1.0000
  H   H3587     1.0  0.61424  0.95801  0.13871  1.0000
  C   C3585     1.0  0.70505  0.85924  0.16200  1.0000
  H   H3588     1.0  0.61163  0.89822  0.10510  1.0000
  C   C3586     1.0  0.59969  0.85493  0.17594  1.0000
  H   H3589     1.0  0.91588  0.63052  0.06868  1.0000
  C   C3587     1.0  0.85212  0.61108  0.16841  1.0000
  C   C3588     1.0  0.58322  0.85961  0.98601  1.0000
  H   H3590     1.0  0.70924  0.86053  0.15110  1.0000
  H   H3591     1.0  0.94053  0.65892  0.06437  1.0000
  C   C3589     1.0  0.64259  0.97122  0.15326  1.0000
  C   C3590     1.0  0.68246  0.81783  0.16378  1.0000
  C   C3591     1.0  0.86030  0.49061  0.14625  1.0000
  C   C3592     1.0  0.60367  0.83755  0.99378  1.0000
  C   C3593     1.0  0.66436  0.86085  0.98488  1.0000
  C   C3594     1.0  0.72831  0.82937  0.17080  1.0000
  H   H3592     1.0  0.88737  0.50712  0.13222  1.0000
  H   H3593     1.0  0.82786  0.73652  0.16708  1.0000
  C   C3595     1.0  0.66910  0.87889  0.15839  1.0000
  C   C3596     1.0  0.85340  0.49765  0.13577  1.0000
  H   H3594     1.0  0.67051  0.88842  0.15952  1.0000
  N   N295      1.0  0.92408  0.62866  0.08586  1.0000
  C   C3597     1.0  0.67870  0.90646  0.17368  1.0000
  N   N296      1.0  0.67065  0.86382  0.14399  1.0000
  C   C3598     1.0  0.67255  0.87574  0.14549  1.0000
  C   C3599     1.0  0.66506  0.85496  0.15505  1.0000
  H   H3595     1.0  0.85391  0.75558  0.14997  1.0000
  H   H3596     1.0  0.89953  0.73075  0.14961  1.0000
  H   H3597     1.0  0.66052  0.87238  0.17976  1.0000
  C   C3600     1.0  0.84414  0.62086  0.17593  1.0000
  C   C3601     1.0  0.98285  0.62815  0.17243  1.0000
  H   H3598     1.0  0.83579  0.65895  0.99928  1.0000
  H   H3599     1.0  0.89803  0.50428  0.11581  1.0000
  H   H3600     1.0  0.53028  0.92053  0.15151  1.0000
  H   H3601     1.0  0.72460  0.87336  0.15399  1.0000
  H   H3602     1.0  0.86229  0.55595  0.09741  1.0000
  C   C3602     1.0  0.86551  0.63476  0.99334  1.0000
  C   C3603     1.0  0.87752  0.74317  0.17568  1.0000
  H   H3603     1.0  0.54711  0.90733  0.11362  1.0000
  C   C3604     1.0  0.86474  0.53412  0.10064  1.0000
  C   C3605     1.0  0.60882  0.86639  0.13396  1.0000
  H   H3604     1.0  0.91887  0.60822  0.15270  1.0000
  C   C3606     1.0  0.59334  0.82354  0.15492  1.0000
  N   N297      1.0  0.68447  0.89514  0.07437  1.0000
  C   C3607     1.0  0.67187  0.89937  0.07104  1.0000
  C   C3608     1.0  0.69532  0.88774  0.06658  1.0000
  C   C3609     1.0  0.66978  0.89600  0.05979  1.0000
  C   C3610     1.0  0.69366  0.88433  0.05514  1.0000
  C   C3611     1.0  0.68076  0.88839  0.05183  1.0000
  C   C3612     1.0  0.68610  0.89750  0.08700  1.0000
  H   H3605     1.0  0.66325  0.90516  0.07725  1.0000
  H   H3606     1.0  0.70517  0.88388  0.06955  1.0000
  C   C3613     1.0  0.87689  0.54484  0.10988  1.0000
  S   S1209     1.0  0.51275  0.87628  0.14327  1.0000
  N   N298      1.0  0.60600  0.87900  0.11157  1.0000
  H   H3607     1.0  0.86912  0.51222  0.10593  1.0000
  H   H3608     1.0  0.62111  0.87885  0.99307  1.0000
  C   C3614     1.0  0.61119  0.88908  0.11302  1.0000
  H   H3609     1.0  0.87007  0.59478  0.16657  1.0000
  C   C3615     1.0  0.52480  0.90020  0.11214  1.0000
  C   C3616     1.0  0.91217  0.60435  0.14910  1.0000
  C   C3617     1.0  0.60120  0.82064  0.17542  1.0000
  H   H3610     1.0  0.70416  0.81221  0.16347  1.0000
  C   C3618     1.0  0.66345  0.86989  0.16974  1.0000
  N   N299      1.0  0.70791  0.86679  0.16929  1.0000
  C   C3619     1.0  0.81773  0.68191  0.16656  1.0000
  C   C3620     1.0  0.86392  0.60238  0.17244  1.0000
  H   H3611     1.0  0.69555  0.84290  0.16290  1.0000
  H   H3612     1.0  0.99312  0.63077  0.16951  1.0000
  S   S1210     1.0  0.86012  0.58326  0.14794  1.0000
  H   H3613     1.0  0.94379  0.64864  0.08804  1.0000
  H   H3614     1.0  0.90597  0.62164  0.09695  1.0000
  H   H3615     1.0  0.61683  0.87603  0.14501  1.0000
  H   H3616     1.0  0.86853  0.71464  0.17189  1.0000
  C   C3621     1.0  0.83176  0.65700  0.99161  1.0000
  C   C3622     1.0  0.93800  0.64446  0.08358  1.0000
  S   S1211     1.0  0.86364  0.55469  0.17136  1.0000
  C   C3623     1.0  0.69389  0.81412  0.16970  1.0000
  C   C3624     1.0  0.90785  0.59227  0.15649  1.0000
  H   H3617     1.0  0.88370  0.67919  0.17027  1.0000
  H   H3618     1.0  0.93306  0.62941  0.10166  1.0000
  C   C3625     1.0  0.93179  0.63365  0.09128  1.0000
  C   C3626     1.0  0.91726  0.61759  0.09409  1.0000
  C   C3627     1.0  0.54002  0.91455  0.13230  1.0000
  C   C3628     1.0  0.50105  0.84677  0.13307  1.0000
  H   H3619     1.0  0.60829  0.89723  0.17968  1.0000
  H   H3620     1.0  0.54977  0.91690  0.13170  1.0000
  C   C3629     1.0  0.66919  0.82016  0.17194  1.0000
  C   C3630     1.0  0.92828  0.64509  0.06488  1.0000
  S   S1212     1.0  0.82816  0.58190  0.17697  1.0000
  H   H3621     1.0  0.92643  0.64980  0.05474  1.0000
  H   H3622     1.0  0.79086  0.78262  0.15105  1.0000
  H   H3623     1.0  0.59790  0.81765  0.98289  1.0000
  H   H3624     1.0  0.91840  0.68321  0.16156  1.0000
  H   H3625     1.0  0.51759  0.89315  0.11626  1.0000
  H   H3626     1.0  0.83641  0.52913  0.16748  1.0000
  H   H3627     1.0  0.88186  0.49892  0.12240  1.0000
  C   C3631     1.0  0.91189  0.69608  0.17629  1.0000
  C   C3632     1.0  0.90826  0.67310  0.18110  1.0000
  S   S1213     1.0  0.86309  0.62473  0.98330  1.0000
  H   H3628     1.0  0.81854  0.62338  0.99127  1.0000
  C   C3633     1.0  0.95012  0.66305  0.17556  1.0000
  N   N300      1.0  0.97169  0.64036  0.17316  1.0000
  H   H3629     1.0  0.86838  0.67433  0.16987  1.0000
  C   C3634     1.0  0.86471  0.75198  0.17889  1.0000
  S   S1214     1.0  0.85054  0.48905  0.12468  1.0000
  H   H3630     1.0  0.60594  0.95929  0.17167  1.0000
  H   H3631     1.0  0.89661  0.62460  0.99127  1.0000
  H   H3632     1.0  0.80634  0.66608  0.17588  1.0000
  C   C3635     1.0  0.90100  0.64855  0.98953  1.0000
  H   H3633     1.0  0.95725  0.63103  0.17002  1.0000
  C   C3636     1.0  0.60454  0.96163  0.14583  1.0000
  H   H3634     1.0  0.65007  0.88522  0.99001  1.0000
  C   C3637     1.0  0.94800  0.65132  0.17328  1.0000
  H   H3635     1.0  0.60175  0.95265  0.15369  1.0000
  C   C3638     1.0  0.69162  0.90520  0.17638  1.0000
  H   H3636     1.0  0.60930  0.81994  0.18049  1.0000
  H   H3637     1.0  0.83482  0.62750  0.17308  1.0000
  H   H3638     1.0  0.98402  0.65213  0.17622  1.0000
  C   C3639     1.0  0.85622  0.75662  0.16954  1.0000
  H   H3639     1.0  0.86694  0.69019  0.17420  1.0000
  H   H3640     1.0  0.55568  0.82737  0.17927  1.0000
  C   C3640     1.0  0.83525  0.73188  0.17345  1.0000
  H   H3641     1.0  0.98246  0.62305  0.16450  1.0000
  H   H3642     1.0  0.84607  0.76304  0.17212  1.0000
  C   C3641     1.0  0.60798  0.98444  0.14367  1.0000
  H   H3643     1.0  0.65684  0.85079  0.17683  1.0000
  C   C3642     1.0  0.87270  0.67939  0.17529  1.0000
  C   C3643     1.0  0.82638  0.62699  0.98232  1.0000
  H   H3644     1.0  0.83664  0.62019  0.98310  1.0000
  Fe  Fe609     1.0  0.56565  0.65179  0.34948  1.0000
  S   S1215     1.0  0.58260  0.65888  0.33249  1.0000
  H   H3645     1.0  0.85125  0.82653  0.31115  1.0000
  H   H3646     1.0  0.86225  0.71682  0.19597  1.0000
  S   S1216     1.0  0.55042  0.64243  0.34574  1.0000
  H   H3647     1.0  0.99367  0.88074  0.35889  1.0000
  S   S1217     1.0  0.68005  0.57493  0.33832  1.0000
  S   S1218     1.0  0.64972  0.55617  0.34306  1.0000
  H   H3648     1.0  0.84629  0.54484  0.21277  1.0000
  C   C3644     1.0  0.66993  0.67283  0.37665  1.0000
  S   S1219     1.0  0.63067  0.48873  0.34475  1.0000
  C   C3645     1.0  0.60520  0.87078  0.20691  1.0000
  Fe  Fe610     1.0  0.87004  0.78689  0.31276  1.0000
  S   S1220     1.0  0.87528  0.80527  0.31548  1.0000
  S   S1221     1.0  0.85098  0.77897  0.32347  1.0000
  Fe  Fe611     1.0  0.89388  0.78229  0.28883  1.0000
  S   S1222     1.0  0.90148  0.80043  0.28918  1.0000
  S   S1223     1.0  0.90433  0.76681  0.27538  1.0000
  Fe  Fe612     1.0  0.89714  0.79344  0.31198  1.0000
  S   S1224     1.0  0.91243  0.79301  0.32410  1.0000
  Fe  Fe613     1.0  0.87918  0.81116  0.29266  1.0000
  S   S1225     1.0  0.87242  0.83334  0.28336  1.0000
  S   S1226     1.0  0.89152  0.77424  0.31142  1.0000
  S   S1227     1.0  0.87201  0.79377  0.29021  1.0000
  Fe  Fe614     1.0  0.77435  0.89378  0.28876  1.0000
  S   S1228     1.0  0.79713  0.89111  0.28021  1.0000
  S   S1229     1.0  0.75901  0.90193  0.27499  1.0000
  Fe  Fe615     1.0  0.77838  0.88171  0.31790  1.0000
  S   S1230     1.0  0.80140  0.87732  0.31153  1.0000
  S   S1231     1.0  0.76969  0.87668  0.34046  1.0000
  Fe  Fe616     1.0  0.79805  0.89835  0.29837  1.0000
  S   S1232     1.0  0.81041  0.91380  0.29682  1.0000
  Fe  Fe617     1.0  0.79824  0.87052  0.29423  1.0000
  S   S1233     1.0  0.80829  0.85064  0.28772  1.0000
  S   S1234     1.0  0.77503  0.90316  0.30559  1.0000
  S   S1235     1.0  0.77548  0.87285  0.30192  1.0000
  Fe  Fe618     1.0  0.71512  0.88008  0.21095  1.0000
  S   S1236     1.0  0.71325  0.88271  0.23217  1.0000
  H   H3649     1.0  0.53118  0.62286  0.35219  1.0000
  Fe  Fe619     1.0  0.72241  0.84930  0.21852  1.0000
  S   S1237     1.0  0.72085  0.84897  0.24046  1.0000
  Fe  Fe620     1.0  0.70208  0.86560  0.23874  1.0000
  S   S1238     1.0  0.68321  0.86591  0.25566  1.0000
  Fe  Fe621     1.0  0.73234  0.86591  0.23245  1.0000
  S   S1239     1.0  0.74958  0.86230  0.24337  1.0000
  S   S1240     1.0  0.70247  0.86432  0.21774  1.0000
  S   S1241     1.0  0.73541  0.86489  0.21046  1.0000
  Fe  Fe622     1.0  0.87104  0.70446  0.24219  1.0000
  S   S1242     1.0  0.86996  0.70317  0.22149  1.0000
  S   S1243     1.0  0.87115  0.68694  0.26026  1.0000
  Fe  Fe623     1.0  0.87168  0.73448  0.23428  1.0000
  S   S1244     1.0  0.87071  0.73583  0.21272  1.0000
  S   S1245     1.0  0.86875  0.75391  0.24160  1.0000
  Fe  Fe624     1.0  0.85493  0.72318  0.22170  1.0000
  S   S1246     1.0  0.83640  0.72802  0.21269  1.0000
  Fe  Fe625     1.0  0.88596  0.71575  0.21383  1.0000
  Fe  Fe626     1.0  0.78404  0.80455  0.38007  1.0000
  S   S1247     1.0  0.85440  0.72340  0.24322  1.0000
  S   S1248     1.0  0.88851  0.71546  0.23470  1.0000
  Fe  Fe627     1.0  0.63275  0.83971  0.23382  1.0000
  S   S1249     1.0  0.64439  0.81839  0.24034  1.0000
  S   S1250     1.0  0.62981  0.85634  0.24485  1.0000
  Fe  Fe628     1.0  0.62675  0.83381  0.20937  1.0000
  S   S1251     1.0  0.63771  0.81184  0.21393  1.0000
  H   H3650     1.0  0.70085  0.80950  0.18843  1.0000
  Fe  Fe629     1.0  0.62732  0.81215  0.23586  1.0000
  S   S1252     1.0  0.61823  0.79402  0.24830  1.0000
  Fe  Fe630     1.0  0.65368  0.81996  0.21804  1.0000
  C   C3646     1.0  0.57393  0.59733  0.35163  1.0000
  S   S1253     1.0  0.61474  0.83360  0.23093  1.0000
  S   S1254     1.0  0.64358  0.84185  0.21195  1.0000
  Fe  Fe631     1.0  0.61560  0.71784  0.32449  1.0000
  S   S1255     1.0  0.62363  0.72733  0.30257  1.0000
  S   S1256     1.0  0.59382  0.71508  0.33340  1.0000
  Fe  Fe632     1.0  0.64236  0.71395  0.33277  1.0000
  S   S1257     1.0  0.65286  0.72277  0.31173  1.0000
  S   S1258     1.0  0.65292  0.70587  0.35038  1.0000
  Fe  Fe633     1.0  0.63337  0.73882  0.31122  1.0000
  S   S1259     1.0  0.63682  0.76025  0.30299  1.0000
  Fe  Fe634     1.0  0.64244  0.71067  0.30479  1.0000
  S   S1260     1.0  0.65553  0.70077  0.28763  1.0000
  S   S1261     1.0  0.62361  0.73095  0.33305  1.0000
  S   S1262     1.0  0.63374  0.70016  0.32594  1.0000
  S   S1263     1.0  0.74872  0.69878  0.36689  1.0000
  C   C3647     1.0  0.83119  0.55149  0.20039  1.0000
  C   C3648     1.0  0.60738  0.54476  0.35009  1.0000
  Fe  Fe635     1.0  0.83531  0.63683  0.24787  1.0000
  S   S1264     1.0  0.82058  0.65515  0.23960  1.0000
  S   S1265     1.0  0.84577  0.63704  0.26390  1.0000
  Fe  Fe636     1.0  0.83177  0.61972  0.23019  1.0000
  S   S1266     1.0  0.81656  0.63680  0.22036  1.0000
  S   S1267     1.0  0.84207  0.59945  0.22424  1.0000
  Fe  Fe637     1.0  0.83094  0.64978  0.21935  1.0000
  S   S1268     1.0  0.83888  0.66592  0.20236  1.0000
  Fe  Fe638     1.0  0.80743  0.64059  0.24168  1.0000
  S   S1269     1.0  0.78487  0.64906  0.24963  1.0000
  S   S1270     1.0  0.84685  0.63255  0.22747  1.0000
  S   S1271     1.0  0.82149  0.62240  0.25166  1.0000
  Fe  Fe639     1.0  0.70548  0.63982  0.33120  1.0000
  S   S1272     1.0  0.71759  0.64515  0.30985  1.0000
  S   S1273     1.0  0.68491  0.63403  0.33815  1.0000
  Fe  Fe640     1.0  0.72374  0.64935  0.34326  1.0000
  S   S1274     1.0  0.73766  0.65555  0.32303  1.0000
  S   S1275     1.0  0.72226  0.65215  0.36421  1.0000
  Fe  Fe641     1.0  0.71813  0.66414  0.31544  1.0000
  S   S1276     1.0  0.71449  0.68408  0.30068  1.0000
  Fe  Fe642     1.0  0.73615  0.63604  0.31892  1.0000
  S   S1277     1.0  0.75457  0.62229  0.30845  1.0000
  S   S1278     1.0  0.70441  0.65976  0.33593  1.0000
  S   S1279     1.0  0.72394  0.62892  0.34001  1.0000
  Fe  Fe643     1.0  0.84070  0.93242  0.34970  1.0000
  S   S1280     1.0  0.84715  0.95073  0.33480  1.0000
  S   S1281     1.0  0.82816  0.91818  0.34861  1.0000
  C   C3649     1.0  0.79081  0.92121  0.35031  1.0000
  S   S1282     1.0  0.86558  0.95101  0.35607  1.0000
  Fe  Fe644     1.0  0.84400  0.95976  0.35309  1.0000
  Fe  Fe645     1.0  0.86818  0.94085  0.33895  1.0000
  S   S1283     1.0  0.88634  0.94125  0.32128  1.0000
  S   S1284     1.0  0.83350  0.98220  0.35197  1.0000
  S   S1285     1.0  0.86211  0.92187  0.35230  1.0000
  Fe  Fe646     1.0  0.92889  0.85253  0.34857  1.0000
  S   S1286     1.0  0.94880  0.85865  0.33683  1.0000
  S   S1287     1.0  0.91405  0.84775  0.33897  1.0000
  C   C3650     1.0  0.69238  0.84726  0.18269  1.0000
  S   S1288     1.0  0.94719  0.87249  0.36229  1.0000
  Fe  Fe647     1.0  0.93917  0.87859  0.34326  1.0000
  S   S1289     1.0  0.94177  0.89799  0.32805  1.0000
  Fe  Fe648     1.0  0.95532  0.85200  0.35694  1.0000
  S   S1290     1.0  0.97702  0.84071  0.35933  1.0000
  S   S1291     1.0  0.91897  0.87314  0.35367  1.0000
  S   S1292     1.0  0.93612  0.84397  0.36837  1.0000
  C   C3651     1.0  0.63164  0.88396  0.21462  1.0000
  H   H3651     1.0  0.88092  0.90215  0.37090  1.0000
  H   H3652     1.0  0.61080  0.55220  0.32829  1.0000
  H   H3653     1.0  0.89774  0.96551  0.31907  1.0000
  C   C3652     1.0  0.50947  0.64583  0.32426  1.0000
  C   C3653     1.0  0.87976  0.59386  0.18797  1.0000
  H   H3654     1.0  0.61019  0.54206  0.37497  1.0000
  H   H3655     1.0  0.97594  0.86917  0.35865  1.0000
  H   H3656     1.0  0.63603  0.73489  0.36434  1.0000
  H   H3657     1.0  0.88392  0.73926  0.18315  1.0000
  H   H3658     1.0  0.69893  0.81562  0.22644  1.0000
  C   C3654     1.0  0.90173  0.92963  0.32404  1.0000
  C   C3655     1.0  0.90227  0.91977  0.33615  1.0000
  C   C3656     1.0  0.91459  0.91006  0.33759  1.0000
  C   C3657     1.0  0.92636  0.91030  0.32697  1.0000
  C   C3658     1.0  0.92583  0.92039  0.31505  1.0000
  C   C3659     1.0  0.91354  0.92994  0.31355  1.0000
  H   H3659     1.0  0.89323  0.91956  0.34436  1.0000
  H   H3660     1.0  0.91502  0.90254  0.34698  1.0000
  H   H3661     1.0  0.93488  0.92065  0.30684  1.0000
  H   H3662     1.0  0.91317  0.93752  0.30417  1.0000
  H   H3663     1.0  0.90185  0.97259  0.33101  1.0000
  H   H3664     1.0  0.60741  0.52527  0.38122  1.0000
  C   C3660     1.0  0.77639  0.64121  0.26577  1.0000
  C   C3661     1.0  0.76356  0.64822  0.27206  1.0000
  C   C3662     1.0  0.75674  0.64246  0.28513  1.0000
  C   C3663     1.0  0.76265  0.62955  0.29188  1.0000
  C   C3664     1.0  0.77538  0.62244  0.28553  1.0000
  C   C3665     1.0  0.78230  0.62830  0.27255  1.0000
  H   H3665     1.0  0.75895  0.65823  0.26688  1.0000
  H   H3666     1.0  0.74696  0.64806  0.28997  1.0000
  H   H3667     1.0  0.77998  0.61243  0.29069  1.0000
  H   H3668     1.0  0.79213  0.62277  0.26775  1.0000
  C   C3666     1.0  0.74249  0.68490  0.36652  1.0000
  H   H3669     1.0  0.78397  0.94843  0.33175  1.0000
  S   S1293     1.0  0.65199  0.56412  0.37095  1.0000
  C   C3667     1.0  0.73054  0.66441  0.36500  1.0000
  C   C3668     1.0  0.74078  0.66898  0.35414  1.0000
  C   C3669     1.0  0.74692  0.67907  0.35499  1.0000
  H   H3670     1.0  0.99287  0.85517  0.31355  1.0000
  C   C3670     1.0  0.60332  0.84763  0.18829  1.0000
  H   H3671     1.0  0.74404  0.66469  0.34513  1.0000
  H   H3672     1.0  0.75478  0.68267  0.34656  1.0000
  C   C3671     1.0  0.66463  0.71556  0.34939  1.0000
  C   C3672     1.0  0.67304  0.71131  0.35880  1.0000
  C   C3673     1.0  0.68201  0.71922  0.35858  1.0000
  C   C3674     1.0  0.68273  0.73139  0.34892  1.0000
  C   C3675     1.0  0.67444  0.73556  0.33935  1.0000
  C   C3676     1.0  0.66531  0.72771  0.33965  1.0000
  H   H3673     1.0  0.67251  0.70198  0.36638  1.0000
  H   H3674     1.0  0.68824  0.71589  0.36598  1.0000
  C   C3677     1.0  0.72390  0.79645  0.37975  1.0000
  H   H3675     1.0  0.65856  0.73129  0.33260  1.0000
  C   C3678     1.0  0.67205  0.69525  0.29093  1.0000
  C   C3679     1.0  0.68326  0.69917  0.28101  1.0000
  C   C3680     1.0  0.69631  0.69570  0.28406  1.0000
  C   C3681     1.0  0.69826  0.68786  0.29684  1.0000
  C   C3682     1.0  0.68712  0.68358  0.30662  1.0000
  C   C3683     1.0  0.67396  0.68755  0.30377  1.0000
  H   H3676     1.0  0.68177  0.70525  0.27112  1.0000
  H   H3677     1.0  0.70490  0.69905  0.27649  1.0000
  H   H3678     1.0  0.68852  0.67757  0.31651  1.0000
  H   H3679     1.0  0.66527  0.68462  0.31150  1.0000
  C   C3684     1.0  0.62229  0.78562  0.26426  1.0000
  C   C3685     1.0  0.63123  0.78975  0.26938  1.0000
  C   C3686     1.0  0.63530  0.78210  0.28149  1.0000
  C   C3687     1.0  0.63060  0.77015  0.28846  1.0000
  C   C3688     1.0  0.62143  0.76616  0.28351  1.0000
  C   C3689     1.0  0.61718  0.77396  0.27152  1.0000
  H   H3680     1.0  0.63508  0.79879  0.26400  1.0000
  H   H3681     1.0  0.64228  0.78530  0.28536  1.0000
  H   H3682     1.0  0.61757  0.75711  0.28894  1.0000
  H   H3683     1.0  0.61009  0.77081  0.26774  1.0000
  C   C3690     1.0  0.86378  0.67347  0.26072  1.0000
  C   C3691     1.0  0.86573  0.66169  0.27089  1.0000
  C   C3692     1.0  0.86014  0.65067  0.27168  1.0000
  C   C3693     1.0  0.85255  0.65127  0.26228  1.0000
  C   C3694     1.0  0.85044  0.66310  0.25208  1.0000
  C   C3695     1.0  0.85601  0.67424  0.25135  1.0000
  H   H3684     1.0  0.87165  0.66105  0.27819  1.0000
  H   H3685     1.0  0.86178  0.64160  0.27958  1.0000
  H   H3686     1.0  0.84447  0.66368  0.24487  1.0000
  H   H3687     1.0  0.85417  0.68349  0.24374  1.0000
  C   C3696     1.0  0.66855  0.86402  0.25155  1.0000
  C   C3697     1.0  0.66962  0.85749  0.24107  1.0000
  C   C3698     1.0  0.65780  0.85495  0.23896  1.0000
  C   C3699     1.0  0.64485  0.85928  0.24708  1.0000
  C   C3700     1.0  0.64379  0.86608  0.25729  1.0000
  C   C3701     1.0  0.65559  0.86827  0.25964  1.0000
  H   H3688     1.0  0.67957  0.85395  0.23491  1.0000
  H   H3689     1.0  0.65871  0.84967  0.23105  1.0000
  H   H3690     1.0  0.63380  0.86946  0.26359  1.0000
  H   H3691     1.0  0.65466  0.87327  0.26778  1.0000
  C   C3702     1.0  0.81697  0.91388  0.31071  1.0000
  C   C3703     1.0  0.82362  0.92427  0.30975  1.0000
  C   C3704     1.0  0.82773  0.92539  0.32111  1.0000
  C   C3705     1.0  0.82523  0.91608  0.33349  1.0000
  C   C3706     1.0  0.81925  0.90530  0.33423  1.0000
  C   C3707     1.0  0.81507  0.90423  0.32292  1.0000
  H   H3692     1.0  0.82518  0.93173  0.30030  1.0000
  H   H3693     1.0  0.83232  0.93375  0.32041  1.0000
  H   H3694     1.0  0.81739  0.89799  0.34375  1.0000
  H   H3695     1.0  0.81006  0.89614  0.32378  1.0000
  C   C3708     1.0  0.75658  0.89095  0.26603  1.0000
  C   C3709     1.0  0.74830  0.89621  0.25635  1.0000
  C   C3710     1.0  0.74582  0.88756  0.24944  1.0000
  C   C3711     1.0  0.75171  0.87360  0.25213  1.0000
  C   C3712     1.0  0.75995  0.86836  0.26181  1.0000
  C   C3713     1.0  0.76239  0.87698  0.26872  1.0000
  H   H3696     1.0  0.74379  0.90703  0.25421  1.0000
  H   H3697     1.0  0.73954  0.89173  0.24193  1.0000
  H   H3698     1.0  0.76447  0.85755  0.26401  1.0000
  H   H3699     1.0  0.76865  0.87277  0.27622  1.0000
  C   C3714     1.0  0.91300  0.80828  0.32805  1.0000
  C   C3715     1.0  0.92282  0.80812  0.33510  1.0000
  C   C3716     1.0  0.92345  0.82014  0.33841  1.0000
  C   C3717     1.0  0.91420  0.83238  0.33472  1.0000
  C   C3718     1.0  0.90449  0.83253  0.32757  1.0000
  C   C3719     1.0  0.90392  0.82057  0.32419  1.0000
  H   H3700     1.0  0.92987  0.79865  0.33815  1.0000
  H   H3701     1.0  0.93094  0.81988  0.34397  1.0000
  H   H3702     1.0  0.89731  0.84195  0.32464  1.0000
  H   H3703     1.0  0.89637  0.82085  0.31869  1.0000
  C   C3720     1.0  0.85476  0.83838  0.28354  1.0000
  C   C3721     1.0  0.84792  0.85201  0.28348  1.0000
  C   C3722     1.0  0.83359  0.85592  0.28471  1.0000
  C   C3723     1.0  0.82619  0.84623  0.28570  1.0000
  C   C3724     1.0  0.83305  0.83268  0.28550  1.0000
  C   C3725     1.0  0.84729  0.82874  0.28454  1.0000
  H   H3704     1.0  0.85367  0.85948  0.28275  1.0000
  H   H3705     1.0  0.82832  0.86641  0.28487  1.0000
  H   H3706     1.0  0.82732  0.82516  0.28632  1.0000
  H   H3707     1.0  0.85247  0.81826  0.28451  1.0000
  C   C3726     1.0  0.89486  0.76359  0.26530  1.0000
  C   C3727     1.0  0.88258  0.77253  0.26279  1.0000
  C   C3728     1.0  0.87498  0.76957  0.25515  1.0000
  C   C3729     1.0  0.87948  0.75759  0.25003  1.0000
  C   C3730     1.0  0.89190  0.74871  0.25230  1.0000
  C   C3731     1.0  0.89959  0.75175  0.25988  1.0000
  H   H3708     1.0  0.87896  0.78181  0.26663  1.0000
  H   H3709     1.0  0.86545  0.77654  0.25334  1.0000
  H   H3710     1.0  0.89554  0.73952  0.24827  1.0000
  H   H3711     1.0  0.90916  0.74484  0.26165  1.0000
  C   C3732     1.0  0.83749  0.77899  0.36886  1.0000
  C   C3733     1.0  0.85042  0.78153  0.36163  1.0000
  C   C3734     1.0  0.85475  0.78144  0.34765  1.0000
  C   C3735     1.0  0.84624  0.77851  0.34101  1.0000
  C   C3736     1.0  0.83349  0.77563  0.34832  1.0000
  C   C3737     1.0  0.82905  0.77603  0.36218  1.0000
  H   H3712     1.0  0.85700  0.78377  0.36678  1.0000
  H   H3713     1.0  0.86466  0.78359  0.34205  1.0000
  H   H3714     1.0  0.82695  0.77327  0.34321  1.0000
  H   H3715     1.0  0.81921  0.77380  0.36774  1.0000
  C   C3738     1.0  0.77363  0.83078  0.35577  1.0000
  C   C3739     1.0  0.77081  0.83708  0.34289  1.0000
  C   C3740     1.0  0.76966  0.85117  0.33816  1.0000
  C   C3741     1.0  0.77096  0.85906  0.34643  1.0000
  C   C3742     1.0  0.77339  0.85280  0.35948  1.0000
  C   C3743     1.0  0.84433  0.83246  0.31874  1.0000
  H   H3716     1.0  0.76972  0.83106  0.33646  1.0000
  H   H3717     1.0  0.76750  0.85597  0.32821  1.0000
  H   H3718     1.0  0.77436  0.85887  0.36593  1.0000
  C   C3744     1.0  0.82182  0.69010  0.22606  1.0000
  H   H3719     1.0  0.53954  0.61356  0.33878  1.0000
  C   C3745     1.0  0.51932  0.63800  0.33177  1.0000
  H   H3720     1.0  0.60114  0.64006  0.34899  1.0000
  C   C3746     1.0  0.82574  0.60153  0.20651  1.0000
  C   C3747     1.0  0.83780  0.59483  0.21120  1.0000
  C   C3748     1.0  0.84694  0.58429  0.20523  1.0000
  H   H3721     1.0  0.59571  0.87845  0.18959  1.0000
  H   H3722     1.0  0.81859  0.60961  0.21113  1.0000
  H   H3723     1.0  0.85625  0.57906  0.20885  1.0000
  H   H3724     1.0  0.56327  0.68637  0.36621  1.0000
  N   N301      1.0  0.51911  0.62470  0.33801  1.0000
  S   S1294     1.0  0.55003  0.66341  0.36437  1.0000
  C   C3749     1.0  0.79868  0.68918  0.20452  1.0000
  H   H3725     1.0  0.49698  0.61974  0.37078  1.0000
  H   H3726     1.0  0.97000  0.90046  0.32708  1.0000
  C   C3750     1.0  0.69294  0.61979  0.37177  1.0000
  C   C3751     1.0  0.89349  0.96959  0.32855  1.0000
  H   H3727     1.0  0.69768  0.61656  0.36215  1.0000
  N   N302      1.0  0.99075  0.86923  0.32572  1.0000
  C   C3752     1.0  0.59321  0.84325  0.19939  1.0000
  C   C3753     1.0  0.64635  0.75159  0.35821  1.0000
  H   H3728     1.0  0.85920  0.98016  0.35967  1.0000
  H   H3729     1.0  0.84334  0.84344  0.31378  1.0000
  N   N303      1.0  0.83295  0.53720  0.18514  1.0000
  C   C3754     1.0  0.68383  0.89385  0.19966  1.0000
  H   H3730     1.0  0.56449  0.68291  0.34158  1.0000
  H   H3731     1.0  0.68549  0.88945  0.20983  1.0000
  C   C3755     1.0  0.63768  0.51752  0.36738  1.0000
  C   C3756     1.0  0.63927  0.52081  0.35320  1.0000
  C   C3757     1.0  0.63753  0.51168  0.34639  1.0000
  H   H3732     1.0  0.60447  0.51124  0.34335  1.0000
  H   H3733     1.0  0.89510  0.88911  0.37527  1.0000
  C   C3758     1.0  0.97933  0.89245  0.32687  1.0000
  H   H3734     1.0  0.63868  0.51442  0.33543  1.0000
  H   H3735     1.0  0.88136  0.58376  0.18545  1.0000
  H   H3736     1.0  0.74663  0.81631  0.36142  1.0000
  C   C3759     1.0  0.68182  0.59101  0.33904  1.0000
  C   C3760     1.0  0.67091  0.59972  0.34594  1.0000
  C   C3761     1.0  0.67204  0.61287  0.34566  1.0000
  C   C3762     1.0  0.68423  0.61725  0.33882  1.0000
  C   C3763     1.0  0.69541  0.60839  0.33241  1.0000
  C   C3764     1.0  0.69414  0.59531  0.33240  1.0000
  H   H3737     1.0  0.66159  0.59634  0.35153  1.0000
  H   H3738     1.0  0.66342  0.61963  0.35077  1.0000
  H   H3739     1.0  0.70494  0.61164  0.32730  1.0000
  H   H3740     1.0  0.70268  0.58852  0.32723  1.0000
  C   C3765     1.0  0.72516  0.82650  0.18515  1.0000
  C   C3766     1.0  0.57515  0.59007  0.34173  1.0000
  C   C3767     1.0  0.58820  0.58430  0.33469  1.0000
  H   H3741     1.0  0.81649  0.64822  0.26958  1.0000
  H   H3742     1.0  0.58910  0.57879  0.32696  1.0000
  C   C3768     1.0  0.58534  0.67491  0.33191  1.0000
  C   C3769     1.0  0.59842  0.67772  0.32595  1.0000
  C   C3770     1.0  0.60101  0.69023  0.32593  1.0000
  C   C3771     1.0  0.59047  0.70005  0.33172  1.0000
  C   C3772     1.0  0.57722  0.69748  0.33708  1.0000
  C   C3773     1.0  0.57470  0.68486  0.33736  1.0000
  H   H3743     1.0  0.60663  0.67013  0.32152  1.0000
  H   H3744     1.0  0.61116  0.69222  0.32149  1.0000
  H   H3745     1.0  0.56896  0.70517  0.34130  1.0000
  S   S1295     1.0  0.90216  0.71305  0.19451  1.0000
  H   H3746     1.0  0.86317  0.69053  0.19737  1.0000
  H   H3747     1.0  0.59982  0.86251  0.21129  1.0000
  H   H3748     1.0  0.62477  0.89983  0.19144  1.0000
  C   C3774     1.0  0.85986  0.61295  0.19109  1.0000
  H   H3749     1.0  0.80280  0.67823  0.22407  1.0000
  C   C3775     1.0  0.60292  0.87970  0.19472  1.0000
  H   H3750     1.0  0.50904  0.60830  0.34188  1.0000
  H   H3751     1.0  0.62673  0.88459  0.22542  1.0000
  C   C3776     1.0  0.78127  0.63152  0.31514  1.0000
  C   C3777     1.0  0.66262  0.75007  0.37151  1.0000
  C   C3778     1.0  0.77489  0.83862  0.36410  1.0000
  H   H3752     1.0  0.89816  0.66572  0.20177  1.0000
  H   H3753     1.0  0.75945  0.71827  0.38105  1.0000
  C   C3779     1.0  0.82096  0.66533  0.18746  1.0000
  C   C3780     1.0  0.80522  0.68631  0.21536  1.0000
  N   N304      1.0  0.87154  0.67231  0.18962  1.0000
  C   C3781     1.0  0.87596  0.65843  0.19271  1.0000
  C   C3782     1.0  0.86649  0.67953  0.19978  1.0000
  C   C3783     1.0  0.87514  0.65138  0.20628  1.0000
  C   C3784     1.0  0.86550  0.67279  0.21346  1.0000
  C   C3785     1.0  0.86982  0.65863  0.21671  1.0000
  C   C3786     1.0  0.56361  0.82054  0.18485  1.0000
  H   H3754     1.0  0.59827  0.70655  0.36719  1.0000
  C   C3787     1.0  0.99153  0.89497  0.32785  1.0000
  C   C3788     1.0  0.64318  0.73945  0.36655  1.0000
  H   H3755     1.0  0.86140  0.67848  0.22148  1.0000
  H   H3756     1.0  0.86908  0.65330  0.22730  1.0000
  C   C3789     1.0  0.70290  0.86501  0.18307  1.0000
  S   S1296     1.0  0.55933  0.85432  0.18338  1.0000
  C   C3790     1.0  0.83164  0.73297  0.18715  1.0000
  H   H3757     1.0  0.78121  0.92516  0.32100  1.0000
  H   H3758     1.0  0.80155  0.94106  0.33352  1.0000
  C   C3791     1.0  0.87570  0.74073  0.28802  1.0000
  C   C3792     1.0  0.87139  0.75193  0.29430  1.0000
  H   H3759     1.0  0.88531  0.73359  0.28935  1.0000
  H   H3760     1.0  0.87760  0.75349  0.30035  1.0000
  N   N305      1.0  0.70907  0.63547  0.28694  1.0000
  C   C3793     1.0  0.70679  0.64914  0.28121  1.0000
  C   C3794     1.0  0.69936  0.63027  0.29743  1.0000
  C   C3795     1.0  0.69445  0.65794  0.28589  1.0000
  C   C3796     1.0  0.68694  0.63880  0.30238  1.0000
  C   C3797     1.0  0.68450  0.65273  0.29656  1.0000
  H   H3761     1.0  0.70129  0.61952  0.30227  1.0000
  H   H3762     1.0  0.69273  0.66880  0.28148  1.0000
  H   H3763     1.0  0.67941  0.63469  0.31091  1.0000
  H   H3764     1.0  0.67502  0.65951  0.30046  1.0000
  H   H3765     1.0  0.80057  0.88254  0.25166  1.0000
  C   C3798     1.0  0.60372  0.53529  0.37472  1.0000
  H   H3766     1.0  0.77066  0.63795  0.31566  1.0000
  C   C3799     1.0  0.81165  0.70649  0.19269  1.0000
  H   H3767     1.0  0.75068  0.77668  0.37336  1.0000
  C   C3800     1.0  0.52957  0.61674  0.34579  1.0000
  C   C3801     1.0  0.64983  0.73286  0.37732  1.0000
  C   C3802     1.0  0.83043  0.81550  0.33047  1.0000
  C   C3803     1.0  0.81788  0.81141  0.33500  1.0000
  C   C3804     1.0  0.80596  0.82061  0.33193  1.0000
  H   H3768     1.0  0.83971  0.80821  0.33271  1.0000
  H   H3769     1.0  0.81738  0.80118  0.34081  1.0000
  H   H3770     1.0  0.79619  0.81750  0.33533  1.0000
  N   N306      1.0  0.70657  0.88943  0.26854  1.0000
  C   C3805     1.0  0.71210  0.89603  0.27466  1.0000
  C   C3806     1.0  0.71164  0.87583  0.26862  1.0000
  C   C3807     1.0  0.72268  0.88890  0.28148  1.0000
  C   C3808     1.0  0.72233  0.86842  0.27522  1.0000
  C   C3809     1.0  0.72776  0.87499  0.28179  1.0000
  C   C3810     1.0  0.69563  0.89721  0.26128  1.0000
  H   H3771     1.0  0.70845  0.90692  0.27416  1.0000
  H   H3772     1.0  0.70755  0.87065  0.26344  1.0000
  H   H3773     1.0  0.72730  0.89420  0.28605  1.0000
  H   H3774     1.0  0.72664  0.85775  0.27487  1.0000
  H   H3775     1.0  0.73627  0.86946  0.28669  1.0000
  H   H3776     1.0  0.69002  0.89041  0.25947  1.0000
  H   H3777     1.0  0.68790  0.90435  0.26729  1.0000
  H   H3778     1.0  0.70013  0.90312  0.25123  1.0000
  N   N307      1.0  0.70031  0.70975  0.32464  1.0000
  C   C3811     1.0  0.70086  0.69680  0.33233  1.0000
  C   C3812     1.0  0.70759  0.71797  0.32647  1.0000
  C   C3813     1.0  0.70847  0.69193  0.34251  1.0000
  C   C3814     1.0  0.71527  0.71345  0.33658  1.0000
  C   C3815     1.0  0.71559  0.70039  0.34469  1.0000
  C   C3816     1.0  0.69239  0.71465  0.31394  1.0000
  H   H3779     1.0  0.69537  0.69020  0.33060  1.0000
  H   H3780     1.0  0.70719  0.72824  0.32039  1.0000
  H   H3781     1.0  0.70890  0.68167  0.34867  1.0000
  H   H3782     1.0  0.72068  0.72015  0.33831  1.0000
  H   H3783     1.0  0.72132  0.69688  0.35268  1.0000
  H   H3784     1.0  0.68379  0.70936  0.31633  1.0000
  H   H3785     1.0  0.68771  0.72572  0.31292  1.0000
  H   H3786     1.0  0.69925  0.71273  0.30406  1.0000
  N   N308      1.0  0.67825  0.82803  0.25953  1.0000
  C   C3817     1.0  0.67252  0.82148  0.25357  1.0000
  C   C3818     1.0  0.69142  0.82983  0.25411  1.0000
  C   C3819     1.0  0.67990  0.81684  0.24167  1.0000
  C   C3820     1.0  0.69906  0.82533  0.24218  1.0000
  C   C3821     1.0  0.69319  0.81893  0.23585  1.0000
  C   C3822     1.0  0.67027  0.83273  0.27203  1.0000
  H   H3787     1.0  0.66211  0.82000  0.25792  1.0000
  H   H3788     1.0  0.69598  0.83504  0.25879  1.0000
  H   H3789     1.0  0.67533  0.81170  0.23692  1.0000
  C   C3823     1.0  0.63257  0.49583  0.36783  1.0000
  H   H3790     1.0  0.60730  0.62306  0.35840  1.0000
  H   H3791     1.0  0.67020  0.82397  0.28089  1.0000
  H   H3792     1.0  0.67456  0.84049  0.27399  1.0000
  H   H3793     1.0  0.65949  0.83772  0.27109  1.0000
  N   N309      1.0  0.93657  0.78738  0.29292  1.0000
  C   C3824     1.0  0.93515  0.78781  0.28016  1.0000
  C   C3825     1.0  0.93598  0.77576  0.30285  1.0000
  C   C3826     1.0  0.93300  0.77642  0.27710  1.0000
  C   C3827     1.0  0.93379  0.76421  0.30016  1.0000
  C   C3828     1.0  0.93229  0.76458  0.28719  1.0000
  C   C3829     1.0  0.93779  0.79979  0.29609  1.0000
  H   H3794     1.0  0.93515  0.79714  0.27241  1.0000
  H   H3795     1.0  0.93677  0.77549  0.31307  1.0000
  H   H3796     1.0  0.93130  0.77692  0.26715  1.0000
  H   H3797     1.0  0.93287  0.75519  0.30819  1.0000
  H   H3798     1.0  0.93016  0.75585  0.28505  1.0000
  H   H3799     1.0  0.92763  0.80712  0.29701  1.0000
  H   H3800     1.0  0.94088  0.79762  0.30599  1.0000
  H   H3801     1.0  0.94555  0.80465  0.28802  1.0000
  N   N310      1.0  0.64124  0.75213  0.25595  1.0000
  C   C3830     1.0  0.64839  0.76201  0.25387  1.0000
  C   C3831     1.0  0.64343  0.74043  0.26566  1.0000
  C   C3832     1.0  0.65749  0.76061  0.26211  1.0000
  C   C3833     1.0  0.65253  0.73867  0.27399  1.0000
  C   C3834     1.0  0.65943  0.74892  0.27233  1.0000
  C   C3835     1.0  0.63150  0.75391  0.24744  1.0000
  H   H3802     1.0  0.64664  0.77131  0.24619  1.0000
  H   H3803     1.0  0.63797  0.73245  0.26722  1.0000
  H   H3804     1.0  0.66262  0.76875  0.26086  1.0000
  H   H3805     1.0  0.65406  0.72949  0.28182  1.0000
  H   H3806     1.0  0.66607  0.74788  0.27913  1.0000
  H   H3807     1.0  0.62719  0.76492  0.24370  1.0000
  H   H3808     1.0  0.63673  0.74908  0.23856  1.0000
  H   H3809     1.0  0.62258  0.74932  0.25342  1.0000
  N   N311      1.0  0.78885  0.92685  0.33734  1.0000
  C   C3836     1.0  0.90491  0.69744  0.18962  1.0000
  C   C3837     1.0  0.84871  0.53074  0.20005  1.0000
  H   H3810     1.0  0.71725  0.79071  0.37845  1.0000
  C   C3838     1.0  0.80191  0.69937  0.19313  1.0000
  C   C3839     1.0  0.90182  0.67425  0.19456  1.0000
  H   H3811     1.0  0.71974  0.81850  0.19077  1.0000
  C   C3840     1.0  0.78266  0.92078  0.33133  1.0000
  H   H3812     1.0  0.71466  0.65337  0.27324  1.0000
  H   H3813     1.0  0.68223  0.64869  0.35752  1.0000
  H   H3814     1.0  0.64032  0.87488  0.21455  1.0000
  H   H3815     1.0  0.81507  0.68661  0.23601  1.0000
  N   N312      1.0  0.86747  0.60320  0.18382  1.0000
  C   C3841     1.0  0.99039  0.85569  0.32446  1.0000
  C   C3842     1.0  0.69965  0.62649  0.37701  1.0000
  C   C3843     1.0  0.78688  0.90896  0.35745  1.0000
  H   H3816     1.0  0.56161  0.82412  0.19448  1.0000
  H   H3817     1.0  0.81450  0.71420  0.18378  1.0000
  H   H3818     1.0  0.68664  0.83941  0.18804  1.0000
  C   C3844     1.0  0.80436  0.62945  0.30049  1.0000
  H   H3819     1.0  0.70521  0.87099  0.18880  1.0000
  H   H3820     1.0  0.77469  0.74792  0.36158  1.0000
  C   C3845     1.0  0.98953  0.84935  0.35935  1.0000
  H   H3821     1.0  0.60665  0.68969  0.37491  1.0000
  C   C3846     1.0  0.56746  0.68757  0.37413  1.0000
  C   C3847     1.0  0.73143  0.80393  0.36840  1.0000
  H   H3822     1.0  0.86998  0.96858  0.32382  1.0000
  C   C3848     1.0  0.82281  0.59752  0.19598  1.0000
  H   H3823     1.0  0.85752  0.52373  0.20361  1.0000
  C   C3849     1.0  0.61937  0.89159  0.19584  1.0000
  H   H3824     1.0  0.70944  0.82685  0.23779  1.0000
  S   S1297     1.0  0.62240  0.59862  0.37861  1.0000
  H   H3825     1.0  0.73049  0.80423  0.35823  1.0000
  H   H3826     1.0  0.65721  0.65025  0.36120  1.0000
  N   N313      1.0  0.79085  0.63624  0.30257  1.0000
  H   H3827     1.0  0.69048  0.66333  0.36730  1.0000
  H   H3828     1.0  0.67066  0.75397  0.37298  1.0000
  C   C3850     1.0  0.49936  0.62631  0.32937  1.0000
  H   H3829     1.0  0.81813  0.65678  0.19524  1.0000
  H   H3830     1.0  0.79177  0.66004  0.27311  1.0000
  H   H3831     1.0  0.76552  0.72748  0.36434  1.0000
  C   C3851     1.0  0.61464  0.87243  0.21332  1.0000
  H   H3832     1.0  0.84924  0.83042  0.32750  1.0000
  S   S1298     1.0  0.77569  0.81304  0.36112  1.0000
  C   C3852     1.0  0.74048  0.81067  0.37018  1.0000
  C   C3853     1.0  0.66083  0.65652  0.36562  1.0000
  H   H3833     1.0  0.73882  0.85026  0.19027  1.0000
  C   C3854     1.0  0.81378  0.63370  0.28862  1.0000
  H   H3834     1.0  0.89518  0.68711  0.20922  1.0000
  H   H3835     1.0  0.77361  0.90379  0.33350  1.0000
  H   H3836     1.0  0.64054  0.66622  0.37502  1.0000
  S   S1299     1.0  0.62064  0.84404  0.18926  1.0000
  H   H3837     1.0  0.87872  0.59200  0.19917  1.0000
  C   C3855     1.0  0.61002  0.89020  0.18914  1.0000
  C   C3856     1.0  0.78067  0.90265  0.35134  1.0000
  N   N314      1.0  0.65614  0.67342  0.37895  1.0000
  C   C3857     1.0  0.60379  0.52220  0.35843  1.0000
  C   C3858     1.0  0.57943  0.69261  0.37073  1.0000
  H   H3838     1.0  0.67359  0.67911  0.38100  1.0000
  N   N315      1.0  0.79609  0.86428  0.24993  1.0000
  C   C3859     1.0  0.79794  0.85041  0.25409  1.0000
  C   C3860     1.0  0.78910  0.87116  0.23984  1.0000
  C   C3861     1.0  0.79284  0.84304  0.24799  1.0000
  C   C3862     1.0  0.78392  0.86410  0.23350  1.0000
  C   C3863     1.0  0.78573  0.84996  0.23767  1.0000
  C   C3864     1.0  0.80079  0.87176  0.25709  1.0000
  H   H3839     1.0  0.80319  0.84506  0.26235  1.0000
  H   H3840     1.0  0.78709  0.88221  0.23697  1.0000
  H   H3841     1.0  0.79414  0.83207  0.25145  1.0000
  H   H3842     1.0  0.77793  0.86960  0.22586  1.0000
  H   H3843     1.0  0.78126  0.84448  0.23317  1.0000
  N   N316      1.0  0.88167  0.98101  0.32678  1.0000
  H   H3844     1.0  0.79400  0.87167  0.26740  1.0000
  H   H3845     1.0  0.81151  0.86685  0.25828  1.0000
  N   N317      1.0  0.87730  0.90289  0.32177  1.0000
  C   C3865     1.0  0.88961  0.90659  0.31565  1.0000
  C   C3866     1.0  0.87698  0.88972  0.32854  1.0000
  C   C3867     1.0  0.90205  0.89711  0.31661  1.0000
  C   C3868     1.0  0.88924  0.87996  0.32965  1.0000
  C   C3869     1.0  0.90183  0.88373  0.32369  1.0000
  C   C3870     1.0  0.86437  0.91289  0.32043  1.0000
  H   H3846     1.0  0.88989  0.91695  0.31006  1.0000
  H   H3847     1.0  0.86722  0.88670  0.33308  1.0000
  H   H3848     1.0  0.91180  0.90013  0.31195  1.0000
  H   H3849     1.0  0.88905  0.86949  0.33499  1.0000
  H   H3850     1.0  0.91141  0.87626  0.32448  1.0000
  H   H3851     1.0  0.86105  0.91241  0.31135  1.0000
  H   H3852     1.0  0.85604  0.91092  0.32961  1.0000
  H   H3853     1.0  0.86554  0.92344  0.31935  1.0000
  H   H3854     1.0  0.56600  0.58900  0.33942  1.0000
  H   H3855     1.0  0.84184  0.62933  0.19333  1.0000
  C   C3871     1.0  0.65150  0.66557  0.37339  1.0000
  C   C3872     1.0  0.88554  0.89111  0.37149  1.0000
  Fe  Fe649     1.0  0.73083  0.71455  0.37473  1.0000
  C   C3873     1.0  0.59791  0.69848  0.37672  1.0000
  C   C3874     1.0  0.77846  0.90864  0.33826  1.0000
  C   C3875     1.0  0.80927  0.64488  0.27882  1.0000
  C   C3876     1.0  0.73228  0.68029  0.37736  1.0000
  H   H3856     1.0  0.82134  0.73811  0.19140  1.0000
  Fe  Fe650     1.0  0.85742  0.93280  0.36934  1.0000
  C   C3877     1.0  0.57955  0.84587  0.19798  1.0000
  Fe  Fe651     1.0  0.53515  0.65228  0.36209  1.0000
  H   H3857     1.0  0.86257  0.61352  0.20021  1.0000
  H   H3858     1.0  0.59593  0.83768  0.20899  1.0000
  C   C3878     1.0  0.72874  0.83418  0.19224  1.0000
  C   C3879     1.0  0.69427  0.89875  0.18935  1.0000
  S   S1300     1.0  0.72419  0.83099  0.21017  1.0000
  C   C3880     1.0  0.79286  0.93977  0.33004  1.0000
  H   H3859     1.0  0.63596  0.89319  0.20960  1.0000
  N   N318      1.0  0.81466  0.69346  0.21488  1.0000
  H   H3860     1.0  0.60827  0.55421  0.35188  1.0000
  H   H3861     1.0  0.52688  0.64277  0.33293  1.0000
  H   H3862     1.0  0.52651  0.60748  0.35289  1.0000
  C   C3881     1.0  0.60502  0.52082  0.34516  1.0000
  H   H3863     1.0  0.56228  0.80990  0.18728  1.0000
  H   H3864     1.0  0.89024  0.96122  0.33700  1.0000
  H   H3865     1.0  0.65916  0.76604  0.35389  1.0000
  C   C3882     1.0  0.83210  0.58711  0.18987  1.0000
  C   C3883     1.0  0.67491  0.65567  0.36348  1.0000
  C   C3884     1.0  0.67954  0.66389  0.36897  1.0000
  H   H3866     1.0  0.87867  0.64040  0.20868  1.0000
  C   C3885     1.0  0.83103  0.67140  0.18842  1.0000
  N   N319      1.0  0.60518  0.53399  0.36073  1.0000
  C   C3886     1.0  0.81806  0.70326  0.20365  1.0000
  N   N320      1.0  0.61102  0.62497  0.33704  1.0000
  C   C3887     1.0  0.59955  0.62524  0.33282  1.0000
  C   C3888     1.0  0.62372  0.61845  0.33097  1.0000
  C   C3889     1.0  0.60065  0.61901  0.32218  1.0000
  C   C3890     1.0  0.62518  0.61196  0.32040  1.0000
  C   C3891     1.0  0.61355  0.61223  0.31601  1.0000
  C   C3892     1.0  0.60956  0.63075  0.34883  1.0000
  H   H3867     1.0  0.58944  0.63008  0.33782  1.0000
  H   H3868     1.0  0.63278  0.61793  0.33453  1.0000
  H   H3869     1.0  0.59148  0.61901  0.31910  1.0000
  H   H3870     1.0  0.63519  0.60635  0.31595  1.0000
  H   H3871     1.0  0.61448  0.60680  0.30818  1.0000
  Fe  Fe652     1.0  0.92771  0.86515  0.37231  1.0000
  H   H3872     1.0  0.61911  0.63381  0.34850  1.0000
  H   H3873     1.0  0.60891  0.53057  0.32387  1.0000
  H   H3874     1.0  0.88033  0.65278  0.18462  1.0000
  H   H3875     1.0  0.85144  0.57257  0.18986  1.0000
  S   S1301     1.0  0.61630  0.57768  0.32941  1.0000
  C   C3893     1.0  0.60003  0.58539  0.33787  1.0000
  H   H3876     1.0  0.85578  0.77009  0.29723  1.0000
  C   C3894     1.0  0.63446  0.50492  0.37463  1.0000
  S   S1302     1.0  0.67629  0.81392  0.20946  1.0000
  H   H3877     1.0  0.64176  0.53043  0.34746  1.0000
  H   H3878     1.0  0.72145  0.61598  0.28378  1.0000
  N   N321      1.0  0.83103  0.82848  0.32329  1.0000
  C   C3895     1.0  0.80669  0.83376  0.32444  1.0000
  H   H3879     1.0  0.82497  0.69917  0.22688  1.0000
  H   H3880     1.0  0.61638  0.86542  0.22277  1.0000
  H   H3881     1.0  0.67485  0.74502  0.33189  1.0000
  Fe  Fe653     1.0  0.65886  0.57085  0.34825  1.0000
  C   C3896     1.0  0.59882  0.59250  0.34791  1.0000
  C   C3897     1.0  0.72248  0.62657  0.28265  1.0000
  H   H3882     1.0  0.72720  0.63024  0.27177  1.0000
  H   H3883     1.0  0.79752  0.84097  0.32183  1.0000
  Fe  Fe654     1.0  0.63072  0.57290  0.34335  1.0000
  H   H3884     1.0  0.86122  0.75488  0.18872  1.0000
  C   C3898     1.0  0.58577  0.59865  0.35464  1.0000
  C   C3899     1.0  0.85917  0.76133  0.29247  1.0000
  C   C3900     1.0  0.81938  0.83756  0.32020  1.0000
  H   H3885     1.0  0.85025  0.74699  0.27157  1.0000
  H   H3886     1.0  0.78879  0.90433  0.36758  1.0000
  H   H3887     1.0  0.60795  0.59347  0.35033  1.0000
  S   S1303     1.0  0.57272  0.63373  0.36530  1.0000
  C   C3901     1.0  0.79546  0.65163  0.28091  1.0000
  H   H3888     1.0  0.66306  0.89102  0.20500  1.0000
  H   H3889     1.0  0.81807  0.55593  0.18637  1.0000
  C   C3902     1.0  0.85466  0.72095  0.18978  1.0000
  H   H3890     1.0  0.58488  0.60410  0.36240  1.0000
  H   H3891     1.0  0.72964  0.62631  0.28898  1.0000
  Fe  Fe655     1.0  0.70583  0.73416  0.36522  1.0000
  H   H3892     1.0  0.83118  0.68192  0.22419  1.0000
  S   S1304     1.0  0.62171  0.56681  0.36555  1.0000
  C   C3903     1.0  0.50939  0.61878  0.33678  1.0000
  S   S1305     1.0  0.71085  0.89617  0.19229  1.0000
  H   H3893     1.0  0.50943  0.65649  0.31971  1.0000
  H   H3894     1.0  0.88395  0.72347  0.27168  1.0000
  S   S1306     1.0  0.70943  0.71260  0.37679  1.0000
  S   S1307     1.0  0.55752  0.60446  0.36028  1.0000
  H   H3895     1.0  0.81985  0.84777  0.31428  1.0000
  C   C3904     1.0  0.84132  0.72745  0.19535  1.0000
  N   N322      1.0  0.86811  0.73903  0.28001  1.0000
  N   N323      1.0  0.62161  0.88272  0.20776  1.0000
  Fe  Fe656     1.0  0.63318  0.58081  0.36834  1.0000
  Fe  Fe657     1.0  0.64126  0.55071  0.36559  1.0000
  S   S1308     1.0  0.64062  0.58809  0.34597  1.0000
  H   H3896     1.0  0.79141  0.68332  0.20480  1.0000
  C   C3905     1.0  0.85147  0.75948  0.28433  1.0000
  C   C3906     1.0  0.87257  0.72704  0.27378  1.0000
  H   H3897     1.0  0.86960  0.72952  0.26379  1.0000
  H   H3898     1.0  0.64159  0.75656  0.34956  1.0000
  C   C3907     1.0  0.67102  0.89493  0.19694  1.0000
  H   H3899     1.0  0.79644  0.94004  0.31890  1.0000
  S   S1309     1.0  0.72782  0.73538  0.36138  1.0000
  H   H3900     1.0  0.77764  0.89307  0.35664  1.0000
  H   H3901     1.0  0.82587  0.70854  0.20310  1.0000
  S   S1310     1.0  0.69365  0.74168  0.34877  1.0000
  H   H3902     1.0  0.58270  0.65473  0.37762  1.0000
  H   H3903     1.0  0.96960  0.87764  0.32497  1.0000
  H   H3904     1.0  0.84861  0.51891  0.18619  1.0000
  C   C3908     1.0  0.90006  0.68640  0.19879  1.0000
  C   C3909     1.0  0.78633  0.64720  0.29296  1.0000
  C   C3910     1.0  0.85610  0.74819  0.27817  1.0000
  C   C3911     1.0  0.50230  0.65204  0.35887  1.0000
  C   C3912     1.0  0.67872  0.81511  0.19194  1.0000
  C   C3913     1.0  0.50432  0.63831  0.36550  1.0000
  H   H3905     1.0  0.99177  0.90493  0.32895  1.0000
  C   C3914     1.0  0.65616  0.75693  0.36066  1.0000
  Fe  Fe658     1.0  0.55599  0.62544  0.36296  1.0000
  C   C3915     1.0  0.63397  0.49926  0.35368  1.0000
  H   H3906     1.0  0.84211  0.76689  0.28260  1.0000
  H   H3907     1.0  0.86778  0.71861  0.28059  1.0000
  H   H3908     1.0  0.80792  0.62068  0.30802  1.0000
  C   C3916     1.0  0.84423  0.58060  0.19445  1.0000
  H   H3909     1.0  0.65709  0.82145  0.19200  1.0000
  C   C3917     1.0  0.69509  0.85521  0.18997  1.0000
  H   H3910     1.0  0.78059  0.62095  0.31562  1.0000
  C   C3918     1.0  0.98625  0.86335  0.35900  1.0000
  H   H3911     1.0  0.57177  0.84228  0.20651  1.0000
  C   C3919     1.0  0.66840  0.90124  0.18397  1.0000
  H   H3912     1.0  0.58449  0.69528  0.36012  1.0000
  C   C3920     1.0  0.87030  0.97873  0.32430  1.0000
  H   H3913     1.0  0.78476  0.63173  0.32420  1.0000
  S   S1311     1.0  0.51368  0.66219  0.35818  1.0000
  C   C3921     1.0  0.82659  0.54868  0.19027  1.0000
  S   S1312     1.0  0.73039  0.76115  0.37881  1.0000
  H   H3914     1.0  0.77557  0.65240  0.29442  1.0000
  H   H3915     1.0  0.82452  0.62834  0.28695  1.0000
  C   C3922     1.0  0.73578  0.84447  0.18493  1.0000
  H   H3916     1.0  0.79587  0.92593  0.35503  1.0000
  H   H3917     1.0  0.51285  0.63380  0.37052  1.0000
  H   H3918     1.0  0.69146  0.85353  0.20096  1.0000
  N   N324      1.0  0.58491  0.69393  0.38065  1.0000
  C   C3923     1.0  0.60874  0.54371  0.33669  1.0000
  H   H3919     1.0  0.78870  0.75786  0.37045  1.0000
  C   C3924     1.0  0.60761  0.53163  0.33423  1.0000
  S   S1313     1.0  0.53985  0.63462  0.37925  1.0000
  C   C3925     1.0  0.84370  0.52813  0.19009  1.0000
  S   S1314     1.0  0.83548  0.94223  0.36780  1.0000
  C   C3926     1.0  0.66735  0.81913  0.18592  1.0000
  S   S1315     1.0  0.63902  0.52909  0.37640  1.0000
  H   H3920     1.0  0.79720  0.70148  0.18447  1.0000
  C   C3927     1.0  0.68004  0.61732  0.37898  1.0000
  H   H3921     1.0  0.67476  0.61206  0.37506  1.0000
  H   H3922     1.0  0.70967  0.62842  0.37133  1.0000
  H   H3923     1.0  0.75052  0.73557  0.37538  1.0000
  H   H3924     1.0  0.81336  0.60253  0.19254  1.0000
  H   H3925     1.0  0.77699  0.83381  0.37409  1.0000
  C   C3928     1.0  0.58788  0.81992  0.18304  1.0000
  H   H3926     1.0  0.88828  0.88889  0.36114  1.0000
  C   C3929     1.0  0.84242  0.54254  0.20519  1.0000
  H   H3927     1.0  0.82625  0.56075  0.20423  1.0000
  C   C3930     1.0  0.84808  0.62191  0.18728  1.0000
  C   C3931     1.0  0.86215  0.88744  0.38183  1.0000
  H   H3928     1.0  0.60219  0.51360  0.36682  1.0000
  C   C3932     1.0  0.49940  0.63993  0.32311  1.0000
  H   H3929     1.0  0.60257  0.66353  0.37787  1.0000
  C   C3933     1.0  0.97915  0.87947  0.32572  1.0000
  Fe  Fe659     1.0  0.55624  0.64468  0.38003  1.0000
  C   C3934     1.0  0.76081  0.72857  0.37505  1.0000
  H   H3930     1.0  0.58585  0.81851  0.19404  1.0000
  C   C3935     1.0  0.69202  0.81258  0.18382  1.0000
  N   N325      1.0  0.76942  0.73401  0.38034  1.0000
  C   C3936     1.0  0.72651  0.66990  0.37669  1.0000
  H   H3931     1.0  0.98008  0.85336  0.32939  1.0000
  H   H3932     1.0  0.59280  0.53950  0.37916  1.0000
  C   C3937     1.0  0.57604  0.85270  0.18543  1.0000
  H   H3933     1.0  0.64408  0.69322  0.38007  1.0000
  H   H3934     1.0  0.85806  0.89739  0.37610  1.0000
  C   C3938     1.0  0.78378  0.74973  0.37698  1.0000
  C   C3939     1.0  0.77585  0.74407  0.37204  1.0000
  Fe  Fe660     1.0  0.72189  0.74270  0.38098  1.0000
  N   N326      1.0  0.65927  0.73829  0.37979  1.0000
  N   N327      1.0  0.87604  0.88279  0.38075  1.0000
  H   H3935     1.0  0.88897  0.59815  0.18255  1.0000
  H   H3936     1.0  0.98190  0.62090  0.18244  1.0000
  S   S1316     1.0  0.86527  0.92080  0.38818  1.0000
  C   C3940     1.0  0.87227  0.86237  0.39734  1.0000
  H   H3937     1.0  0.65044  0.68382  0.39531  1.0000
  H   H3938     1.0  0.94974  0.83754  0.40572  1.0000
  S   S1317     1.0  0.56101  0.64498  0.39982  1.0000
  H   H3939     1.0  0.73377  0.74696  0.40639  1.0000
  N   N328      1.0  0.73437  0.80256  0.39445  1.0000
  H   H3940     1.0  0.74794  0.74986  0.42073  1.0000
  C   C3941     1.0  0.60321  0.59237  0.41049  1.0000
  C   C3942     1.0  0.61982  0.61189  0.53900  1.0000
  H   H3941     1.0  0.83408  0.82507  0.50122  1.0000
  C   C3943     1.0  0.63617  0.70618  0.56958  1.0000
  C   C3944     1.0  0.97427  0.84794  0.39252  1.0000
  C   C3945     1.0  0.77812  0.73509  0.39902  1.0000
  H   H3942     1.0  0.87241  0.81214  0.51428  1.0000
  Fe  Fe661     1.0  0.65252  0.65553  0.41987  1.0000
  S   S1318     1.0  0.63219  0.66902  0.42691  1.0000
  S   S1319     1.0  0.67271  0.66122  0.40880  1.0000
  Fe  Fe662     1.0  0.64041  0.63048  0.42667  1.0000
  S   S1320     1.0  0.61907  0.64167  0.43477  1.0000
  S   S1321     1.0  0.64636  0.60898  0.42346  1.0000
  Fe  Fe663     1.0  0.62349  0.65823  0.41637  1.0000
  S   S1322     1.0  0.61146  0.66809  0.39982  1.0000
  Fe  Fe664     1.0  0.62970  0.65124  0.44485  1.0000
  S   S1323     1.0  0.62056  0.65538  0.46630  1.0000
  S   S1324     1.0  0.64415  0.64638  0.40781  1.0000
  S   S1325     1.0  0.65074  0.63845  0.43826  1.0000
  Fe  Fe665     1.0  0.64174  0.64753  0.53628  1.0000
  S   S1326     1.0  0.61979  0.64693  0.54672  1.0000
  S   S1327     1.0  0.65145  0.64546  0.51421  1.0000
  Fe  Fe666     1.0  0.64897  0.64900  0.56248  1.0000
  S   S1328     1.0  0.62765  0.64814  0.57494  1.0000
  H   H3943     1.0  0.72890  0.68466  0.38634  1.0000
  Fe  Fe667     1.0  0.62856  0.63221  0.56394  1.0000
  C   C3946     1.0  0.81658  0.89507  0.45900  1.0000
  Fe  Fe668     1.0  0.62082  0.66287  0.55692  1.0000
  S   S1329     1.0  0.60461  0.68181  0.55981  1.0000
  S   S1330     1.0  0.65055  0.63153  0.55294  1.0000
  S   S1331     1.0  0.64210  0.66498  0.54500  1.0000
  H   H3944     1.0  0.99417  0.85222  0.39006  1.0000
  N   N329      1.0  0.59321  0.60375  0.40759  1.0000
  C   C3947     1.0  0.83424  0.89050  0.47158  1.0000
  Fe  Fe669     1.0  0.78024  0.78273  0.40551  1.0000
  S   S1332     1.0  0.79726  0.78595  0.41311  1.0000
  S   S1333     1.0  0.76713  0.76707  0.41542  1.0000
  C   C3948     1.0  0.74187  0.80983  0.38334  1.0000
  N   N330      1.0  0.96038  0.85308  0.39418  1.0000
  H   H3945     1.0  0.64067  0.62146  0.52104  1.0000
  Fe  Fe670     1.0  0.78872  0.80831  0.40631  1.0000
  S   S1334     1.0  0.78765  0.82523  0.41650  1.0000
  S   S1335     1.0  0.77050  0.80504  0.40082  1.0000
  H   H3946     1.0  0.80720  0.89319  0.45790  1.0000
  H   H3947     1.0  0.72346  0.70656  0.58186  1.0000
  N   N331      1.0  0.64720  0.67705  0.46958  1.0000
  H   H3948     1.0  0.81647  0.80703  0.57241  1.0000
  H   H3949     1.0  0.81941  0.82739  0.39670  1.0000
  H   H3950     1.0  0.91891  0.84300  0.39880  1.0000
  C   C3949     1.0  0.59604  0.65966  0.38739  1.0000
  S   S1336     1.0  0.68754  0.71473  0.41282  1.0000
  H   H3951     1.0  0.66513  0.61523  0.52229  1.0000
  H   H3952     1.0  0.67614  0.63168  0.40572  1.0000
  H   H3953     1.0  0.64423  0.58225  0.39242  1.0000
  H   H3954     1.0  0.73888  0.81069  0.40900  1.0000
  C   C3950     1.0  0.95133  0.84406  0.39532  1.0000
  C   C3951     1.0  0.65231  0.59386  0.55110  1.0000
  S   S1337     1.0  0.86507  0.86200  0.57309  1.0000
  H   H3955     1.0  0.61312  0.61141  0.54943  1.0000
  Fe  Fe671     1.0  0.85474  0.85115  0.56399  1.0000
  S   S1338     1.0  0.86321  0.84745  0.54231  1.0000
  H   H3956     1.0  0.81655  0.88139  0.47862  1.0000
  H   H3957     1.0  0.82217  0.83073  0.52365  1.0000
  S   S1339     1.0  0.83311  0.86100  0.57348  1.0000
  H   H3958     1.0  0.82984  0.83738  0.40942  1.0000
  H   H3959     1.0  0.84855  0.79711  0.42805  1.0000
  C   C3952     1.0  0.61053  0.59120  0.42033  1.0000
  Fe  Fe672     1.0  0.83541  0.83484  0.45645  1.0000
  S   S1340     1.0  0.84794  0.84478  0.43711  1.0000
  S   S1341     1.0  0.82710  0.81698  0.45638  1.0000
  Fe  Fe673     1.0  0.84028  0.85240  0.47347  1.0000
  S   S1342     1.0  0.85328  0.86378  0.45521  1.0000
  S   S1343     1.0  0.83222  0.85815  0.49434  1.0000
  Fe  Fe674     1.0  0.83744  0.86431  0.44402  1.0000
  S   S1344     1.0  0.82780  0.88221  0.42951  1.0000
  Fe  Fe675     1.0  0.86268  0.84317  0.44986  1.0000
  S   S1345     1.0  0.88484  0.83429  0.44138  1.0000
  S   S1346     1.0  0.82358  0.85457  0.46251  1.0000
  S   S1347     1.0  0.85098  0.83167  0.46897  1.0000
  C   C3953     1.0  0.62577  0.61455  0.39382  1.0000
  C   C3954     1.0  0.56119  0.68373  0.38783  1.0000
  C   C3955     1.0  0.89305  0.84496  0.42724  1.0000
  C   C3956     1.0  0.88916  0.85913  0.42569  1.0000
  C   C3957     1.0  0.89640  0.86746  0.41477  1.0000
  C   C3958     1.0  0.90723  0.86168  0.40511  1.0000
  C   C3959     1.0  0.91075  0.84754  0.40633  1.0000
  C   C3960     1.0  0.90384  0.83918  0.41754  1.0000
  H   H3960     1.0  0.88087  0.86365  0.43314  1.0000
  H   H3961     1.0  0.89355  0.87842  0.41377  1.0000
  C   C3961     1.0  0.58476  0.65471  0.38723  1.0000
  H   H3962     1.0  0.90679  0.82820  0.41868  1.0000
  C   C3962     1.0  0.83835  0.89298  0.41845  1.0000
  C   C3963     1.0  0.83270  0.90393  0.40899  1.0000
  C   C3964     1.0  0.84090  0.91255  0.39974  1.0000
  C   C3965     1.0  0.85474  0.91042  0.40005  1.0000
  C   C3966     1.0  0.86035  0.89960  0.40969  1.0000
  C   C3967     1.0  0.85219  0.89082  0.41884  1.0000
  H   H3963     1.0  0.82199  0.90563  0.40867  1.0000
  S   S1348     1.0  0.68387  0.70200  0.57295  1.0000
  H   H3964     1.0  0.87110  0.89785  0.40987  1.0000
  H   H3965     1.0  0.85664  0.88232  0.42605  1.0000
  C   C3968     1.0  0.85472  0.85213  0.52858  1.0000
  C   C3969     1.0  0.84064  0.85803  0.53018  1.0000
  C   C3970     1.0  0.83402  0.86016  0.51944  1.0000
  C   C3971     1.0  0.84138  0.85648  0.50697  1.0000
  C   C3972     1.0  0.85554  0.85105  0.50518  1.0000
  C   C3973     1.0  0.86216  0.84890  0.51594  1.0000
  H   H3966     1.0  0.83481  0.86066  0.53981  1.0000
  H   H3967     1.0  0.82307  0.86446  0.52089  1.0000
  H   H3968     1.0  0.86135  0.84824  0.49563  1.0000
  H   H3969     1.0  0.87308  0.84441  0.51456  1.0000
  S   S1349     1.0  0.83178  0.77976  0.38616  1.0000
  H   H3970     1.0  0.86015  0.81813  0.53656  1.0000
  H   H3971     1.0  0.97862  0.83746  0.39142  1.0000
  H   H3972     1.0  0.64765  0.72320  0.38346  1.0000
  C   C3974     1.0  0.65051  0.67519  0.45551  1.0000
  N   N332      1.0  0.84044  0.82461  0.53146  1.0000
  H   H3973     1.0  0.83851  0.88517  0.48048  1.0000
  C   C3975     1.0  0.73635  0.80132  0.40814  1.0000
  C   C3976     1.0  0.63053  0.68356  0.48920  1.0000
  C   C3977     1.0  0.72560  0.79576  0.39277  1.0000
  S   S1350     1.0  0.61914  0.61405  0.57457  1.0000
  H   H3974     1.0  0.85095  0.90060  0.46165  1.0000
  H   H3975     1.0  0.70317  0.69213  0.40001  1.0000
  H   H3976     1.0  0.84184  0.77801  0.42562  1.0000
  H   H3977     1.0  0.62558  0.68357  0.47054  1.0000
  H   H3978     1.0  0.55221  0.67931  0.39063  1.0000
  C   C3978     1.0  0.83210  0.82642  0.41033  1.0000
  H   H3979     1.0  0.94384  0.87041  0.39673  1.0000
  C   C3979     1.0  0.77030  0.72963  0.39373  1.0000
  H   H3980     1.0  0.71881  0.66622  0.38519  1.0000
  H   H3981     1.0  0.67659  0.72461  0.38660  1.0000
  H   H3982     1.0  0.60603  0.58440  0.40474  1.0000
  C   C3980     1.0  0.79812  0.82275  0.42812  1.0000
  C   C3981     1.0  0.80409  0.80967  0.43451  1.0000
  C   C3982     1.0  0.81260  0.80805  0.44351  1.0000
  C   C3983     1.0  0.81547  0.81946  0.44592  1.0000
  C   C3984     1.0  0.80949  0.83254  0.43955  1.0000
  C   C3985     1.0  0.80071  0.83416  0.43081  1.0000
  H   H3983     1.0  0.80203  0.80082  0.43264  1.0000
  H   H3984     1.0  0.81713  0.79792  0.44847  1.0000
  H   H3985     1.0  0.81159  0.84139  0.44139  1.0000
  H   H3986     1.0  0.79606  0.84430  0.42596  1.0000
  C   C3986     1.0  0.74062  0.75396  0.40223  1.0000
  C   C3987     1.0  0.57888  0.69014  0.39412  1.0000
  S   S1351     1.0  0.80132  0.80997  0.38487  1.0000
  H   H3987     1.0  0.63326  0.50225  0.38560  1.0000
  H   H3988     1.0  0.58362  0.69052  0.40202  1.0000
  C   C3988     1.0  0.74855  0.75570  0.41037  1.0000
  C   C3989     1.0  0.82624  0.82084  0.40322  1.0000
  H   H3989     1.0  0.66817  0.67075  0.47140  1.0000
  C   C3990     1.0  0.59024  0.61415  0.41429  1.0000
  C   C3991     1.0  0.82372  0.90385  0.44860  1.0000
  C   C3992     1.0  0.85433  0.81932  0.52897  1.0000
  N   N333      1.0  0.83599  0.90564  0.44953  1.0000
  S   S1352     1.0  0.85607  0.83234  0.58097  1.0000
  N   N334      1.0  0.72931  0.72558  0.57475  1.0000
  H   H3990     1.0  0.72691  0.79977  0.41606  1.0000
  H   H3991     1.0  0.94110  0.84998  0.39338  1.0000
  C   C3993     1.0  0.64387  0.61369  0.52952  1.0000
  H   H3992     1.0  0.98448  0.87644  0.39171  1.0000
  H   H3993     1.0  0.76474  0.72207  0.40048  1.0000
  H   H3994     1.0  0.84194  0.88364  0.39203  1.0000
  H   H3995     1.0  0.85453  0.90962  0.43569  1.0000
  H   H3996     1.0  0.84682  0.77997  0.40722  1.0000
  H   H3997     1.0  0.61740  0.60511  0.53387  1.0000
  H   H3998     1.0  0.84273  0.92426  0.44177  1.0000
  H   H3999     1.0  0.85934  0.81562  0.49644  1.0000
  C   C3994     1.0  0.75789  0.77257  0.39181  1.0000
  H   H4000     1.0  0.82431  0.83663  0.54385  1.0000
  H   H4001     1.0  0.77852  0.73191  0.40972  1.0000
  C   C3995     1.0  0.66822  0.67523  0.56298  1.0000
  S   S1353     1.0  0.79284  0.78207  0.38440  1.0000
  C   C3996     1.0  0.83874  0.78347  0.41585  1.0000
  C   C3997     1.0  0.64060  0.59198  0.39547  1.0000
  H   H4002     1.0  0.61722  0.62263  0.53337  1.0000
  H   H4003     1.0  0.66380  0.67501  0.55482  1.0000
  H   H4004     1.0  0.82953  0.81886  0.55176  1.0000
  C   C3998     1.0  0.66657  0.73100  0.39074  1.0000
  C   C3999     1.0  0.96346  0.87498  0.39442  1.0000
  C   C4000     1.0  0.59067  0.68071  0.57404  1.0000
  H   H4005     1.0  0.58098  0.70181  0.56791  1.0000
  C   C4001     1.0  0.62911  0.65079  0.48000  1.0000
  C   C4002     1.0  0.64333  0.64560  0.47818  1.0000
  C   C4003     1.0  0.64995  0.64364  0.48890  1.0000
  C   C4004     1.0  0.64243  0.64673  0.50157  1.0000
  C   C4005     1.0  0.62814  0.65133  0.50360  1.0000
  C   C4006     1.0  0.62154  0.65341  0.49283  1.0000
  H   H4006     1.0  0.64928  0.64342  0.46842  1.0000
  H   H4007     1.0  0.66100  0.63997  0.48727  1.0000
  H   H4008     1.0  0.62221  0.65374  0.51328  1.0000
  H   H4009     1.0  0.61053  0.65740  0.49436  1.0000
  C   C4007     1.0  0.67642  0.67610  0.41038  1.0000
  C   C4008     1.0  0.68942  0.67877  0.40383  1.0000
  C   C4009     1.0  0.69291  0.69049  0.40469  1.0000
  C   C4010     1.0  0.68335  0.69976  0.41202  1.0000
  C   C4011     1.0  0.67027  0.69710  0.41865  1.0000
  C   C4012     1.0  0.66677  0.68530  0.41777  1.0000
  H   H4010     1.0  0.79061  0.74980  0.39468  1.0000
  C   C4013     1.0  0.70080  0.63774  0.39431  1.0000
  H   H4011     1.0  0.66285  0.70422  0.42439  1.0000
  H   H4012     1.0  0.65668  0.68332  0.42280  1.0000
  H   H4013     1.0  0.74491  0.79248  0.41039  1.0000
  C   C4014     1.0  0.97766  0.86986  0.39262  1.0000
  C   C4015     1.0  0.58641  0.60536  0.39649  1.0000
  C   C4016     1.0  0.63095  0.61695  0.40384  1.0000
  C   C4017     1.0  0.64068  0.60671  0.40998  1.0000
  C   C4018     1.0  0.64561  0.59430  0.40565  1.0000
  H   H4014     1.0  0.95909  0.88557  0.39508  1.0000
  C   C4019     1.0  0.84123  0.89919  0.46088  1.0000
  H   H4015     1.0  0.62702  0.62653  0.40715  1.0000
  C   C4020     1.0  0.82866  0.80666  0.40510  1.0000
  S   S1354     1.0  0.69942  0.74337  0.38363  1.0000
  C   C4021     1.0  0.57588  0.65030  0.39949  1.0000
  C   C4022     1.0  0.72037  0.73773  0.57643  1.0000
  C   C4023     1.0  0.64402  0.70307  0.57937  1.0000
  C   C4024     1.0  0.59869  0.65988  0.39981  1.0000
  C   C4025     1.0  0.59014  0.65492  0.41205  1.0000
  C   C4026     1.0  0.57869  0.65032  0.41188  1.0000
  H   H4016     1.0  0.63584  0.71573  0.56213  1.0000
  H   H4017     1.0  0.61987  0.68675  0.49427  1.0000
  H   H4018     1.0  0.59199  0.65521  0.42166  1.0000
  H   H4019     1.0  0.57185  0.64694  0.42140  1.0000
  H   H4020     1.0  0.64171  0.67282  0.45313  1.0000
  H   H4021     1.0  0.72019  0.78940  0.40148  1.0000
  Fe  Fe676     1.0  0.80889  0.78745  0.39133  1.0000
  H   H4022     1.0  0.70971  0.73944  0.57587  1.0000
  H   H4023     1.0  0.74914  0.81493  0.38454  1.0000
  C   C4027     1.0  0.67299  0.68675  0.56260  1.0000
  H   H4024     1.0  0.59242  0.61037  0.38675  1.0000
  N   N335      1.0  0.83648  0.79829  0.41401  1.0000
  C   C4028     1.0  0.68096  0.62831  0.39619  1.0000
  C   C4029     1.0  0.59743  0.61340  0.42409  1.0000
  H   H4025     1.0  0.71215  0.63391  0.39175  1.0000
  C   C4030     1.0  0.62951  0.68456  0.57897  1.0000
  C   C4031     1.0  0.83323  0.82785  0.54481  1.0000
  C   C4032     1.0  0.67863  0.68718  0.57321  1.0000
  C   C4033     1.0  0.84247  0.80368  0.42086  1.0000
  H   H4026     1.0  0.76444  0.77984  0.38770  1.0000
  C   C4034     1.0  0.75717  0.76505  0.40519  1.0000
  H   H4027     1.0  0.67266  0.59756  0.54185  1.0000
  H   H4028     1.0  0.66275  0.67336  0.49531  1.0000
  H   H4029     1.0  0.56239  0.68160  0.40859  1.0000
  C   C4035     1.0  0.78491  0.74517  0.39056  1.0000
  C   C4036     1.0  0.58032  0.69245  0.57546  1.0000
  H   H4030     1.0  0.65308  0.68458  0.44829  1.0000
  C   C4037     1.0  0.98311  0.85623  0.39176  1.0000
  H   H4031     1.0  0.69692  0.67162  0.39822  1.0000
  C   C4038     1.0  0.83983  0.82314  0.50907  1.0000
  S   S1355     1.0  0.66378  0.64914  0.57476  1.0000
  C   C4039     1.0  0.64099  0.68058  0.49625  1.0000
  C   C4040     1.0  0.66197  0.60020  0.54106  1.0000
  C   C4041     1.0  0.86133  0.81594  0.51637  1.0000
  C   C4042     1.0  0.67399  0.62160  0.39126  1.0000
  C   C4043     1.0  0.65461  0.67607  0.48976  1.0000
  H   H4032     1.0  0.59530  0.62186  0.42908  1.0000
  H   H4033     1.0  0.85102  0.86150  0.40637  1.0000
  H   H4034     1.0  0.82585  0.82306  0.57937  1.0000
  N   N336      1.0  0.69372  0.63049  0.38916  1.0000
  H   H4035     1.0  0.84459  0.82201  0.42510  1.0000
  C   C4044     1.0  0.62878  0.69692  0.56942  1.0000
  C   C4045     1.0  0.74263  0.72329  0.57594  1.0000
  H   H4036     1.0  0.63103  0.59277  0.55797  1.0000
  H   H4037     1.0  0.63646  0.67959  0.39165  1.0000
  C   C4046     1.0  0.60767  0.60184  0.42709  1.0000
  C   C4047     1.0  0.84037  0.81782  0.41913  1.0000
  H   H4038     1.0  0.83942  0.91755  0.42909  1.0000
  H   H4039     1.0  0.81961  0.90879  0.43955  1.0000
  C   C4048     1.0  0.95489  0.86636  0.39530  1.0000
  H   H4040     1.0  0.66863  0.73822  0.39566  1.0000
  C   C4049     1.0  0.63851  0.59766  0.55009  1.0000
  H   H4041     1.0  0.58238  0.62316  0.41191  1.0000
  H   H4042     1.0  0.65001  0.71006  0.57949  1.0000
  C   C4050     1.0  0.64627  0.68303  0.38688  1.0000
  H   H4043     1.0  0.82913  0.78058  0.41602  1.0000
  C   C4051     1.0  0.85401  0.81791  0.50636  1.0000
  C   C4052     1.0  0.83315  0.82639  0.52177  1.0000
  H   H4044     1.0  0.63853  0.68138  0.50685  1.0000
  C   C4053     1.0  0.75005  0.77078  0.38369  1.0000
  C   C4054     1.0  0.56690  0.68505  0.39791  1.0000
  H   H4045     1.0  0.66054  0.72428  0.39893  1.0000
  C   C4055     1.0  0.66945  0.66392  0.57380  1.0000
  H   H4046     1.0  0.84012  0.83085  0.54944  1.0000
  H   H4047     1.0  0.65937  0.66644  0.45389  1.0000
  H   H4048     1.0  0.61882  0.58241  0.42221  1.0000
  C   C4056     1.0  0.82189  0.88838  0.47056  1.0000
  H   H4049     1.0  0.65539  0.58626  0.55976  1.0000
  H   H4050     1.0  0.61371  0.60132  0.43430  1.0000
  H   H4051     1.0  0.74950  0.71342  0.57534  1.0000
  C   C4057     1.0  0.74737  0.73339  0.57864  1.0000
  C   C4058     1.0  0.65777  0.61008  0.53011  1.0000
  C   C4059     1.0  0.63384  0.68174  0.47578  1.0000
  C   C4060     1.0  0.85807  0.86725  0.39887  1.0000
  H   H4052     1.0  0.83649  0.92087  0.39238  1.0000
  N   N337      1.0  0.63440  0.60776  0.53963  1.0000
  C   C4061     1.0  0.84350  0.91474  0.43852  1.0000
  H   H4053     1.0  0.65317  0.58636  0.41033  1.0000
  H   H4054     1.0  0.67215  0.69541  0.55415  1.0000
  C   C4062     1.0  0.65757  0.67446  0.47629  1.0000
  H   H4055     1.0  0.58569  0.59533  0.39531  1.0000
  H   H4056     1.0  0.82399  0.80238  0.39964  1.0000
  S   S1356     1.0  0.91589  0.87250  0.39149  1.0000
  C   C4063     1.0  0.85297  0.87971  0.39085  1.0000
  H   H4057     1.0  0.87641  0.85269  0.40353  1.0000
  H   H4058     1.0  0.57577  0.61174  0.39837  1.0000
  Fe  Fe677     1.0  0.70426  0.72166  0.39517  1.0000
  H   H4059     1.0  0.69845  0.64881  0.38969  1.0000
  H   H4060     1.0  0.71755  0.75749  0.58091  1.0000
  C   C4064     1.0  0.63047  0.60200  0.38972  1.0000
  H   H4061     1.0  0.71439  0.71833  0.56946  1.0000
  C   C4065     1.0  0.72454  0.71461  0.57239  1.0000
  H   H4062     1.0  0.62369  0.67746  0.57879  1.0000
  C   C4066     1.0  0.74124  0.76165  0.38892  1.0000
  S   S1357     1.0  0.72630  0.72174  0.39429  1.0000
  H   H4063     1.0  0.69753  0.63649  0.40558  1.0000
  H   H4064     1.0  0.95589  0.83747  0.38769  1.0000
  H   H4065     1.0  0.73200  0.70998  0.56407  1.0000
  H   H4066     1.0  0.89215  0.86626  0.38658  1.0000
  C   C4067     1.0  0.88115  0.87020  0.38794  1.0000
  H   H4067     1.0  0.66400  0.61965  0.39700  1.0000
  H   H4068     1.0  0.61787  0.62232  0.38949  1.0000
  H   H4069     1.0  0.62252  0.69922  0.56195  1.0000
  H   H4070     1.0  0.75779  0.73138  0.58004  1.0000
  H   H4071     1.0  0.64576  0.61001  0.58114  1.0000
  C   C4068     1.0  0.72475  0.74802  0.57921  1.0000
  C   C4069     1.0  0.73834  0.74581  0.58033  1.0000
  H   H4072     1.0  0.86428  0.88855  0.58150  1.0000
  C   C4070     1.0  0.81164  0.81032  0.58191  1.0000
  H   H4073     1.0  0.59924  0.70274  0.38480  1.0000
  Fe  Fe678     1.0  0.55623  0.65048  0.65611  1.0000
  S   S1358     1.0  0.54600  0.63328  0.65850  1.0000
  S   S1359     1.0  0.56598  0.64981  0.67336  1.0000
  Fe  Fe679     1.0  0.55177  0.66237  0.62735  1.0000
  S   S1360     1.0  0.54144  0.64615  0.62724  1.0000
  S   S1361     1.0  0.55331  0.68051  0.60995  1.0000
  Fe  Fe680     1.0  0.52991  0.64879  0.64834  1.0000
  S   S1362     1.0  0.50686  0.64997  0.65732  1.0000
  Fe  Fe681     1.0  0.55823  0.63201  0.63735  1.0000
  S   S1363     1.0  0.56952  0.61188  0.63162  1.0000
  S   S1364     1.0  0.53913  0.66617  0.64784  1.0000
  S   S1365     1.0  0.56956  0.64806  0.63552  1.0000
  Fe  Fe682     1.0  0.65349  0.55830  0.62635  1.0000
  S   S1366     1.0  0.63549  0.55022  0.64053  1.0000
  S   S1367     1.0  0.65665  0.56167  0.60359  1.0000
  Fe  Fe683     1.0  0.66631  0.55850  0.64939  1.0000
  S   S1368     1.0  0.64952  0.55013  0.66539  1.0000
  S   S1369     1.0  0.68519  0.56297  0.65283  1.0000
  Fe  Fe684     1.0  0.65130  0.53585  0.65181  1.0000
  S   S1370     1.0  0.65447  0.51279  0.65970  1.0000
  Fe  Fe685     1.0  0.63536  0.56518  0.65261  1.0000
  S   S1371     1.0  0.61767  0.58034  0.66216  1.0000
  S   S1372     1.0  0.66935  0.54308  0.63681  1.0000
  S   S1373     1.0  0.65211  0.57440  0.63739  1.0000
  C   C4071     1.0  0.64628  0.81389  0.77208  1.0000
  Fe  Fe686     1.0  0.84356  0.87030  0.58389  1.0000
  H   H4074     1.0  0.92809  0.92071  0.62948  1.0000
  Fe  Fe687     1.0  0.60171  0.70705  0.71910  1.0000
  S   S1374     1.0  0.59323  0.69010  0.71710  1.0000
  S   S1375     1.0  0.59234  0.71992  0.73521  1.0000
  Fe  Fe688     1.0  0.62641  0.70217  0.69604  1.0000
  S   S1376     1.0  0.62038  0.68504  0.69172  1.0000
  S   S1377     1.0  0.64701  0.70757  0.68721  1.0000
  Fe  Fe689     1.0  0.59897  0.69803  0.69447  1.0000
  S   S1378     1.0  0.58572  0.70011  0.67965  1.0000
  Fe  Fe690     1.0  0.61516  0.67818  0.71440  1.0000
  S   S1379     1.0  0.62146  0.65572  0.72294  1.0000
  S   S1380     1.0  0.60556  0.71615  0.69663  1.0000
  S   S1381     1.0  0.62295  0.69423  0.71857  1.0000
  H   H4075     1.0  0.87045  0.97364  0.64432  1.0000
  S   S1382     1.0  0.70381  0.68797  0.60334  1.0000
  Fe  Fe691     1.0  0.67634  0.71808  0.61619  1.0000
  S   S1383     1.0  0.69124  0.70426  0.62868  1.0000
  S   S1384     1.0  0.65911  0.73408  0.62459  1.0000
  Fe  Fe692     1.0  0.70686  0.70628  0.60886  1.0000
  C   C4072     1.0  0.70294  0.62973  0.75514  1.0000
  Fe  Fe693     1.0  0.68677  0.68756  0.62208  1.0000
  S   S1385     1.0  0.67995  0.66939  0.63676  1.0000
  S   S1386     1.0  0.69217  0.72137  0.59670  1.0000
  S   S1387     1.0  0.67053  0.70119  0.61129  1.0000
  Fe  Fe694     1.0  0.71457  0.61665  0.68936  1.0000
  S   S1388     1.0  0.69224  0.61643  0.69821  1.0000
  S   S1389     1.0  0.72314  0.62812  0.66850  1.0000
  Fe  Fe695     1.0  0.72350  0.59984  0.71550  1.0000
  S   S1390     1.0  0.70187  0.59780  0.72624  1.0000
  S   S1391     1.0  0.74108  0.59141  0.72668  1.0000
  Fe  Fe696     1.0  0.70003  0.59424  0.70647  1.0000
  S   S1392     1.0  0.68721  0.57987  0.70622  1.0000
  Fe  Fe697     1.0  0.69607  0.61997  0.71686  1.0000
  S   S1393     1.0  0.68342  0.63608  0.72848  1.0000
  S   S1394     1.0  0.72232  0.59414  0.69650  1.0000
  S   S1395     1.0  0.71766  0.62224  0.70729  1.0000
  S   S1396     1.0  0.62426  0.78600  0.76057  1.0000
  S   S1397     1.0  0.66057  0.79520  0.75622  1.0000
  Fe  Fe698     1.0  0.62877  0.76306  0.76364  1.0000
  S   S1398     1.0  0.63018  0.75188  0.74712  1.0000
  Fe  Fe699     1.0  0.86242  0.75191  0.69126  1.0000
  S   S1399     1.0  0.86026  0.76084  0.66945  1.0000
  S   S1400     1.0  0.87361  0.73024  0.69832  1.0000
  Fe  Fe700     1.0  0.84780  0.77811  0.70060  1.0000
  S   S1401     1.0  0.84444  0.78914  0.67993  1.0000
  S   S1402     1.0  0.84093  0.78721  0.71917  1.0000
  Fe  Fe701     1.0  0.83871  0.77031  0.67908  1.0000
  S   S1403     1.0  0.81881  0.77566  0.67224  1.0000
  Fe  Fe702     1.0  0.86618  0.77901  0.67211  1.0000
  S   S1404     1.0  0.87766  0.79331  0.65539  1.0000
  S   S1405     1.0  0.84033  0.75999  0.70056  1.0000
  S   S1406     1.0  0.87015  0.76934  0.69301  1.0000
  H   H4076     1.0  0.70027  0.61386  0.74736  1.0000
  H   H4077     1.0  0.86343  0.72611  0.76497  1.0000
  C   C4073     1.0  0.63323  0.57604  0.59479  1.0000
  Fe  Fe703     1.0  0.86578  0.67831  0.76735  1.0000
  S   S1407     1.0  0.85604  0.70047  0.76003  1.0000
  S   S1408     1.0  0.88500  0.66653  0.75582  1.0000
  Fe  Fe704     1.0  0.79274  0.85313  0.69565  1.0000
  S   S1409     1.0  0.77817  0.84151  0.69440  1.0000
  S   S1410     1.0  0.80230  0.84627  0.71379  1.0000
  Fe  Fe705     1.0  0.78933  0.87346  0.66923  1.0000
  S   S1411     1.0  0.77405  0.86372  0.66593  1.0000
  S   S1412     1.0  0.79707  0.89005  0.65228  1.0000
  Fe  Fe706     1.0  0.76502  0.86218  0.68843  1.0000
  S   S1413     1.0  0.74217  0.86650  0.69744  1.0000
  Fe  Fe707     1.0  0.78848  0.84406  0.67230  1.0000
  S   S1414     1.0  0.79704  0.82706  0.66100  1.0000
  S   S1415     1.0  0.77895  0.87384  0.69117  1.0000
  S   S1416     1.0  0.80443  0.85381  0.67406  1.0000
  C   C4074     1.0  0.52175  0.69595  0.62729  1.0000
  S   S1417     1.0  0.87925  0.83393  0.60470  1.0000
  C   C4075     1.0  0.85455  0.82530  0.65904  1.0000
  H   H4078     1.0  0.84489  0.64433  0.76043  1.0000
  S   S1418     1.0  0.72366  0.84291  0.76070  1.0000
  S   S1419     1.0  0.68484  0.86549  0.76323  1.0000
  Fe  Fe708     1.0  0.75947  0.76579  0.61938  1.0000
  S   S1420     1.0  0.78185  0.75830  0.60996  1.0000
  S   S1421     1.0  0.73999  0.76186  0.61642  1.0000
  Fe  Fe709     1.0  0.76624  0.78473  0.63342  1.0000
  S   S1422     1.0  0.78885  0.77855  0.62510  1.0000
  S   S1423     1.0  0.75642  0.80054  0.64643  1.0000
  Fe  Fe710     1.0  0.78539  0.75736  0.63062  1.0000
  S   S1424     1.0  0.80052  0.74164  0.64197  1.0000
  S   S1425     1.0  0.76066  0.78795  0.61337  1.0000
  S   S1426     1.0  0.76298  0.76333  0.64035  1.0000
  Fe  Fe711     1.0  0.88008  0.93359  0.64209  1.0000
  H   H4079     1.0  0.92215  0.83113  0.59627  1.0000
  S   S1427     1.0  0.89939  0.93060  0.64924  1.0000
  Fe  Fe712     1.0  0.85101  0.92921  0.64920  1.0000
  S   S1428     1.0  0.84643  0.94189  0.62920  1.0000
  S   S1429     1.0  0.83697  0.91790  0.66625  1.0000
  C   C4076     1.0  0.82487  0.75959  0.60978  1.0000
  Fe  Fe713     1.0  0.85738  0.95647  0.63233  1.0000
  S   S1430     1.0  0.87134  0.91709  0.64020  1.0000
  S   S1431     1.0  0.86007  0.94460  0.65313  1.0000
  Fe  Fe714     1.0  0.93516  0.82916  0.65065  1.0000
  S   S1432     1.0  0.94708  0.83324  0.62896  1.0000
  S   S1433     1.0  0.93036  0.80848  0.66104  1.0000
  Fe  Fe715     1.0  0.93503  0.85703  0.65454  1.0000
  S   S1434     1.0  0.94638  0.86351  0.63310  1.0000
  S   S1435     1.0  0.93159  0.87058  0.66906  1.0000
  Fe  Fe716     1.0  0.93238  0.85371  0.62768  1.0000
  Fe  Fe717     1.0  0.95994  0.84259  0.63662  1.0000
  S   S1436     1.0  0.91971  0.84915  0.64897  1.0000
  S   S1437     1.0  0.94930  0.83661  0.65838  1.0000
  C   C4077     1.0  0.90735  0.91364  0.65532  1.0000
  C   C4078     1.0  0.90557  0.90276  0.65102  1.0000
  C   C4079     1.0  0.91308  0.88946  0.65511  1.0000
  C   C4080     1.0  0.92200  0.88701  0.66384  1.0000
  C   C4081     1.0  0.92353  0.89784  0.66833  1.0000
  C   C4082     1.0  0.91640  0.91115  0.66390  1.0000
  H   H4080     1.0  0.89883  0.90464  0.64418  1.0000
  H   H4081     1.0  0.91188  0.88109  0.65162  1.0000
  H   H4082     1.0  0.93040  0.89599  0.67508  1.0000
  H   H4083     1.0  0.91784  0.91953  0.66719  1.0000
  C   C4083     1.0  0.80801  0.89793  0.65619  1.0000
  C   C4084     1.0  0.81039  0.89475  0.66934  1.0000
  C   C4085     1.0  0.81929  0.90098  0.67228  1.0000
  C   C4086     1.0  0.82605  0.91022  0.66206  1.0000
  C   C4087     1.0  0.82382  0.91331  0.64884  1.0000
  C   C4088     1.0  0.81471  0.90725  0.64594  1.0000
  H   H4084     1.0  0.80531  0.88753  0.67729  1.0000
  H   H4085     1.0  0.82101  0.89853  0.68252  1.0000
  H   H4086     1.0  0.82903  0.92039  0.64088  1.0000
  H   H4087     1.0  0.81296  0.90968  0.63572  1.0000
  C   C4089     1.0  0.78546  0.82015  0.65693  1.0000
  C   C4090     1.0  0.77125  0.82540  0.65994  1.0000
  C   C4091     1.0  0.76235  0.81936  0.65665  1.0000
  C   C4092     1.0  0.76767  0.80817  0.65028  1.0000
  C   C4093     1.0  0.78189  0.80306  0.64729  1.0000
  C   C4094     1.0  0.79074  0.80902  0.65060  1.0000
  H   H4088     1.0  0.76710  0.83401  0.66486  1.0000
  H   H4089     1.0  0.75135  0.82336  0.65905  1.0000
  H   H4090     1.0  0.78610  0.79431  0.64274  1.0000
  H   H4091     1.0  0.80169  0.80481  0.64849  1.0000
  C   C4095     1.0  0.73706  0.85877  0.71473  1.0000
  C   C4096     1.0  0.72300  0.86042  0.72096  1.0000
  C   C4097     1.0  0.71872  0.85550  0.73505  1.0000
  C   C4098     1.0  0.72850  0.84860  0.74291  1.0000
  C   C4099     1.0  0.74255  0.84654  0.73659  1.0000
  C   C4100     1.0  0.74683  0.85176  0.72259  1.0000
  H   H4092     1.0  0.71540  0.86579  0.71493  1.0000
  H   H4093     1.0  0.70788  0.85700  0.73979  1.0000
  H   H4094     1.0  0.75015  0.84124  0.74264  1.0000
  H   H4095     1.0  0.75768  0.85063  0.71796  1.0000
  C   C4101     1.0  0.89085  0.79830  0.65920  1.0000
  C   C4102     1.0  0.89959  0.78909  0.66726  1.0000
  C   C4103     1.0  0.91141  0.79256  0.66824  1.0000
  C   C4104     1.0  0.91444  0.80529  0.66133  1.0000
  C   C4105     1.0  0.90532  0.81474  0.65384  1.0000
  C   C4106     1.0  0.89361  0.81119  0.65273  1.0000
  H   H4096     1.0  0.89762  0.77907  0.67221  1.0000
  H   H4097     1.0  0.91845  0.78520  0.67405  1.0000
  H   H4098     1.0  0.90754  0.82458  0.64855  1.0000
  H   H4099     1.0  0.88683  0.81835  0.64662  1.0000
  C   C4107     1.0  0.83032  0.80371  0.71722  1.0000
  C   C4108     1.0  0.82445  0.80956  0.70581  1.0000
  C   C4109     1.0  0.81580  0.82265  0.70466  1.0000
  C   C4110     1.0  0.81312  0.82996  0.71489  1.0000
  C   C4111     1.0  0.81895  0.82411  0.72628  1.0000
  C   C4112     1.0  0.82748  0.81100  0.72747  1.0000
  H   H4100     1.0  0.82624  0.80390  0.69805  1.0000
  H   H4101     1.0  0.81115  0.82707  0.69593  1.0000
  H   H4102     1.0  0.81687  0.82972  0.73422  1.0000
  H   H4103     1.0  0.83195  0.80656  0.73633  1.0000
  C   C4113     1.0  0.81299  0.76440  0.66650  1.0000
  C   C4114     1.0  0.82096  0.75151  0.66468  1.0000
  C   C4115     1.0  0.81666  0.74390  0.65797  1.0000
  C   C4116     1.0  0.80446  0.74925  0.65312  1.0000
  C   C4117     1.0  0.79607  0.76157  0.65604  1.0000
  C   C4118     1.0  0.80034  0.76913  0.66262  1.0000
  H   H4104     1.0  0.83069  0.74774  0.66780  1.0000
  H   H4105     1.0  0.82311  0.73426  0.65591  1.0000
  H   H4106     1.0  0.78633  0.76546  0.65297  1.0000
  H   H4107     1.0  0.79396  0.77889  0.66436  1.0000
  C   C4119     1.0  0.86870  0.72214  0.71553  1.0000
  C   C4120     1.0  0.85664  0.72775  0.72406  1.0000
  C   C4121     1.0  0.85275  0.72087  0.73760  1.0000
  C   C4122     1.0  0.86098  0.70844  0.74280  1.0000
  C   C4123     1.0  0.87310  0.70287  0.73432  1.0000
  C   C4124     1.0  0.87692  0.70969  0.72071  1.0000
  H   H4108     1.0  0.85024  0.73733  0.72023  1.0000
  H   H4109     1.0  0.84338  0.72527  0.74412  1.0000
  H   H4110     1.0  0.87964  0.69341  0.73825  1.0000
  H   H4111     1.0  0.88630  0.70531  0.71419  1.0000
  C   C4125     1.0  0.84707  0.62547  0.73239  1.0000
  C   C4126     1.0  0.85868  0.62941  0.73306  1.0000
  C   C4127     1.0  0.68784  0.60944  0.66547  1.0000
  H   H4112     1.0  0.84776  0.62014  0.72458  1.0000
  H   H4113     1.0  0.86827  0.62710  0.72576  1.0000
  C   C4128     1.0  0.65831  0.80974  0.76270  1.0000
  H   H4114     1.0  0.83194  0.93997  0.68014  1.0000
  C   C4129     1.0  0.64798  0.51482  0.60389  1.0000
  H   H4115     1.0  0.70601  0.79241  0.62040  1.0000
  C   C4130     1.0  0.66736  0.82824  0.76452  1.0000
  C   C4131     1.0  0.66885  0.81695  0.75890  1.0000
  C   C4132     1.0  0.92436  0.89737  0.61431  1.0000
  C   C4133     1.0  0.85800  0.61457  0.77789  1.0000
  H   H4116     1.0  0.67548  0.83381  0.76151  1.0000
  H   H4117     1.0  0.67819  0.81377  0.75165  1.0000
  C   C4134     1.0  0.74505  0.60191  0.73513  1.0000
  C   C4135     1.0  0.75492  0.59638  0.74320  1.0000
  C   C4136     1.0  0.75793  0.60446  0.75037  1.0000
  C   C4137     1.0  0.73831  0.61562  0.73420  1.0000
  H   H4118     1.0  0.76018  0.58576  0.74400  1.0000
  H   H4119     1.0  0.76540  0.60007  0.75670  1.0000
  H   H4120     1.0  0.73064  0.62002  0.72816  1.0000
  C   C4138     1.0  0.73127  0.72283  0.61142  1.0000
  C   C4139     1.0  0.73694  0.74645  0.61510  1.0000
  C   C4140     1.0  0.74747  0.73482  0.61374  1.0000
  C   C4141     1.0  0.74464  0.72308  0.61188  1.0000
  H   H4121     1.0  0.75783  0.73495  0.61392  1.0000
  C   C4142     1.0  0.96263  0.84929  0.67877  1.0000
  C   C4143     1.0  0.69189  0.65943  0.64640  1.0000
  C   C4144     1.0  0.68746  0.65016  0.65817  1.0000
  C   C4145     1.0  0.69697  0.64114  0.66546  1.0000
  C   C4146     1.0  0.71099  0.64104  0.66082  1.0000
  C   C4147     1.0  0.71540  0.65059  0.64920  1.0000
  C   C4148     1.0  0.70580  0.65994  0.64207  1.0000
  H   H4122     1.0  0.67670  0.64974  0.66152  1.0000
  H   H4123     1.0  0.69346  0.63379  0.67421  1.0000
  H   H4124     1.0  0.72625  0.65058  0.64556  1.0000
  H   H4125     1.0  0.70925  0.66714  0.63294  1.0000
  C   C4149     1.0  0.63890  0.65037  0.72381  1.0000
  C   C4150     1.0  0.64582  0.63683  0.72350  1.0000
  C   C4151     1.0  0.65967  0.63242  0.72452  1.0000
  C   C4152     1.0  0.66642  0.64145  0.72638  1.0000
  C   C4153     1.0  0.65949  0.65494  0.72676  1.0000
  C   C4154     1.0  0.64585  0.65945  0.72522  1.0000
  H   H4126     1.0  0.64050  0.62976  0.72239  1.0000
  H   H4127     1.0  0.66499  0.62196  0.72424  1.0000
  H   H4128     1.0  0.66473  0.66197  0.72809  1.0000
  H   H4129     1.0  0.64069  0.66987  0.72545  1.0000
  C   C4155     1.0  0.60309  0.72783  0.73963  1.0000
  C   C4156     1.0  0.61718  0.72575  0.73381  1.0000
  C   C4157     1.0  0.62546  0.73250  0.73702  1.0000
  C   C4158     1.0  0.61977  0.74155  0.74595  1.0000
  C   C4159     1.0  0.60576  0.74327  0.75220  1.0000
  C   C4160     1.0  0.59746  0.73638  0.74907  1.0000
  H   H4130     1.0  0.62170  0.71920  0.72656  1.0000
  H   H4131     1.0  0.63631  0.73105  0.73219  1.0000
  H   H4132     1.0  0.58657  0.73798  0.75369  1.0000
  C   C4161     1.0  0.64970  0.71619  0.67015  1.0000
  C   C4162     1.0  0.63903  0.72078  0.66312  1.0000
  C   C4163     1.0  0.64176  0.72689  0.64917  1.0000
  C   C4164     1.0  0.65517  0.72824  0.64230  1.0000
  C   C4165     1.0  0.66569  0.72396  0.64948  1.0000
  C   C4166     1.0  0.66295  0.71803  0.66340  1.0000
  H   H4133     1.0  0.62877  0.71935  0.66830  1.0000
  H   H4134     1.0  0.63362  0.73012  0.64361  1.0000
  H   H4135     1.0  0.67599  0.72524  0.64427  1.0000
  H   H4136     1.0  0.67119  0.71456  0.66885  1.0000
  H   H4137     1.0  0.93900  0.81983  0.59485  1.0000
  C   C4167     1.0  0.67775  0.66366  0.68832  1.0000
  H   H4138     1.0  0.65240  0.49298  0.60679  1.0000
  C   C4168     1.0  0.64890  0.50156  0.65331  1.0000
  C   C4169     1.0  0.64032  0.50642  0.64401  1.0000
  C   C4170     1.0  0.63668  0.49719  0.63868  1.0000
  H   H4139     1.0  0.64691  0.66771  0.68074  1.0000
  H   H4140     1.0  0.70592  0.53684  0.65893  1.0000
  H   H4141     1.0  0.63655  0.51728  0.64084  1.0000
  H   H4142     1.0  0.71632  0.81106  0.62105  1.0000
  C   C4171     1.0  0.68509  0.56882  0.66725  1.0000
  C   C4172     1.0  0.69715  0.57183  0.66819  1.0000
  C   C4173     1.0  0.69784  0.57550  0.67996  1.0000
  C   C4174     1.0  0.68646  0.57612  0.69094  1.0000
  C   C4175     1.0  0.67439  0.57313  0.69000  1.0000
  C   C4176     1.0  0.67364  0.56963  0.67815  1.0000
  H   H4143     1.0  0.70610  0.57111  0.65985  1.0000
  H   H4144     1.0  0.70728  0.57748  0.68070  1.0000
  H   H4145     1.0  0.66556  0.57354  0.69848  1.0000
  H   H4146     1.0  0.66431  0.56729  0.67757  1.0000
  C   C4177     1.0  0.58970  0.66861  0.58391  1.0000
  C   C4178     1.0  0.84608  0.89795  0.59450  1.0000
  C   C4179     1.0  0.64592  0.57664  0.59655  1.0000
  H   H4147     1.0  0.74174  0.75351  0.58299  1.0000
  C   C4180     1.0  0.90257  0.86161  0.59804  1.0000
  H   H4148     1.0  0.62977  0.56656  0.59845  1.0000
  H   H4149     1.0  0.58389  0.67742  0.74751  1.0000
  S   S1438     1.0  0.85292  0.66313  0.77046  1.0000
  H   H4150     1.0  0.95229  0.84825  0.67953  1.0000
  H   H4151     1.0  0.70837  0.62737  0.61978  1.0000
  H   H4152     1.0  0.82159  0.82147  0.67183  1.0000
  H   H4153     1.0  0.67569  0.50861  0.62438  1.0000
  S   S1439     1.0  0.72845  0.70844  0.60758  1.0000
  N   N338      1.0  0.51524  0.68724  0.62510  1.0000
  H   H4154     1.0  0.69312  0.67507  0.67645  1.0000
  C   C4181     1.0  0.81115  0.82291  0.59857  1.0000
  C   C4182     1.0  0.49727  0.64600  0.63656  1.0000
  H   H4155     1.0  0.50783  0.64456  0.63086  1.0000
  C   C4183     1.0  0.58329  0.60332  0.63965  1.0000
  C   C4184     1.0  0.58764  0.60975  0.64730  1.0000
  C   C4185     1.0  0.59863  0.60280  0.65367  1.0000
  C   C4186     1.0  0.60524  0.58935  0.65254  1.0000
  C   C4187     1.0  0.60111  0.58301  0.64464  1.0000
  C   C4188     1.0  0.59011  0.58999  0.63822  1.0000
  H   H4156     1.0  0.58248  0.62004  0.64841  1.0000
  H   H4157     1.0  0.60192  0.60780  0.65963  1.0000
  H   H4158     1.0  0.60611  0.57260  0.64379  1.0000
  H   H4159     1.0  0.58679  0.58500  0.63227  1.0000
  C   C4189     1.0  0.67673  0.53581  0.69303  1.0000
  N   N339      1.0  0.84538  0.82118  0.64213  1.0000
  C   C4190     1.0  0.64224  0.60056  0.58493  1.0000
  Fe  Fe718     1.0  0.86448  0.84405  0.59072  1.0000
  H   H4160     1.0  0.86317  0.82671  0.66209  1.0000
  H   H4161     1.0  0.82487  0.81801  0.64856  1.0000
  H   H4162     1.0  0.57753  0.65910  0.60275  1.0000
  C   C4191     1.0  0.57167  0.66384  0.67471  1.0000
  C   C4192     1.0  0.57879  0.66214  0.68493  1.0000
  C   C4193     1.0  0.58330  0.67310  0.68645  1.0000
  C   C4194     1.0  0.58062  0.68592  0.67783  1.0000
  C   C4195     1.0  0.57354  0.68760  0.66757  1.0000
  C   C4196     1.0  0.56914  0.67661  0.66597  1.0000
  H   H4163     1.0  0.58079  0.65233  0.69176  1.0000
  H   H4164     1.0  0.58873  0.67167  0.69439  1.0000
  H   H4165     1.0  0.57142  0.69748  0.66086  1.0000
  H   H4166     1.0  0.56367  0.67808  0.65806  1.0000
  C   C4197     1.0  0.65111  0.52591  0.60650  1.0000
  H   H4167     1.0  0.85891  0.87155  0.61263  1.0000
  H   H4168     1.0  0.82489  0.88028  0.63555  1.0000
  H   H4169     1.0  0.83348  0.87676  0.61913  1.0000
  C   C4198     1.0  0.90841  0.89912  0.60013  1.0000
  C   C4199     1.0  0.65699  0.66946  0.67985  1.0000
  N   N340      1.0  0.69972  0.62480  0.64101  1.0000
  S   S1440     1.0  0.98335  0.83828  0.63167  1.0000
  S   S1441     1.0  0.65277  0.84653  0.78100  1.0000
  H   H4170     1.0  0.61636  0.63191  0.62703  1.0000
  H   H4171     1.0  0.65862  0.69521  0.65202  1.0000
  C   C4200     1.0  0.97984  0.87625  0.67914  1.0000
  H   H4172     1.0  0.63999  0.51644  0.59840  1.0000
  H   H4173     1.0  0.87112  0.66971  0.72886  1.0000
  C   C4201     1.0  0.60646  0.60851  0.61019  1.0000
  C   C4202     1.0  0.70788  0.61600  0.64942  1.0000
  C   C4203     1.0  0.83441  0.87436  0.62992  1.0000
  N   N341      1.0  0.87548  0.74343  0.73333  1.0000
  C   C4204     1.0  0.86527  0.75504  0.73280  1.0000
  C   C4205     1.0  0.87506  0.73329  0.74485  1.0000
  C   C4206     1.0  0.85404  0.75652  0.74384  1.0000
  C   C4207     1.0  0.86398  0.73443  0.75607  1.0000
  C   C4208     1.0  0.85338  0.74611  0.75551  1.0000
  C   C4209     1.0  0.88716  0.74210  0.72165  1.0000
  H   H4174     1.0  0.86566  0.76321  0.72379  1.0000
  H   H4175     1.0  0.88309  0.72404  0.74528  1.0000
  H   H4176     1.0  0.84589  0.76569  0.74325  1.0000
  C   C4210     1.0  0.56901  0.69217  0.58654  1.0000
  H   H4177     1.0  0.91664  0.89190  0.59459  1.0000
  H   H4178     1.0  0.88364  0.74626  0.71191  1.0000
  H   H4179     1.0  0.89476  0.74768  0.72186  1.0000
  H   H4180     1.0  0.89229  0.73123  0.72160  1.0000
  C   C4211     1.0  0.67964  0.61813  0.65665  1.0000
  H   H4181     1.0  0.86590  0.82360  0.63870  1.0000
  H   H4182     1.0  0.97463  0.86387  0.64100  1.0000
  C   C4212     1.0  0.68579  0.62577  0.64437  1.0000
  H   H4183     1.0  0.65076  0.68824  0.59625  1.0000
  H   H4184     1.0  0.81871  0.95392  0.68595  1.0000
  H   H4185     1.0  0.50964  0.68277  0.60889  1.0000
  H   H4186     1.0  0.59759  0.65948  0.58284  1.0000
  S   S1442     1.0  0.83477  0.89036  0.59067  1.0000
  C   C4213     1.0  0.91380  0.79185  0.63095  1.0000
  H   H4187     1.0  0.59636  0.66302  0.74240  1.0000
  S   S1443     1.0  0.84372  0.85304  0.60195  1.0000
  C   C4214     1.0  0.68290  0.67353  0.67759  1.0000
  C   C4215     1.0  0.92441  0.91642  0.62314  1.0000
  H   H4188     1.0  0.71891  0.61531  0.64687  1.0000
  N   N342      1.0  0.60355  0.67419  0.75224  1.0000
  H   H4189     1.0  0.83746  0.82138  0.62518  1.0000
  C   C4216     1.0  0.70205  0.60832  0.66183  1.0000
  H   H4190     1.0  0.85229  0.80780  0.62843  1.0000
  C   C4217     1.0  0.92970  0.90285  0.62202  1.0000
  H   H4191     1.0  0.85419  0.82504  0.62080  1.0000
  H   H4192     1.0  0.85375  0.60902  0.76136  1.0000
  H   H4193     1.0  0.65286  0.68013  0.65332  1.0000
  Fe  Fe719     1.0  0.78318  0.78035  0.60551  1.0000
  H   H4194     1.0  0.84079  0.82590  0.67875  1.0000
  H   H4195     1.0  0.91051  0.84168  0.62767  1.0000
  H   H4196     1.0  0.71553  0.63521  0.62891  1.0000
  H   H4197     1.0  0.82157  0.97397  0.63393  1.0000
  C   C4218     1.0  0.91275  0.80982  0.61083  1.0000
  H   H4198     1.0  0.83513  0.95677  0.67535  1.0000
  H   H4199     1.0  0.90927  0.93466  0.61804  1.0000
  H   H4200     1.0  0.86560  0.62023  0.77128  1.0000
  Fe  Fe720     1.0  0.87244  0.65084  0.76018  1.0000
  H   H4201     1.0  0.68386  0.65753  0.69569  1.0000
  C   C4219     1.0  0.82306  0.77323  0.60300  1.0000
  C   C4220     1.0  0.66804  0.51028  0.61847  1.0000
  H   H4202     1.0  0.81848  0.79977  0.62596  1.0000
  C   C4221     1.0  0.98529  0.85955  0.64159  1.0000
  H   H4203     1.0  0.61532  0.58704  0.58671  1.0000
  H   H4204     1.0  0.90953  0.78379  0.63852  1.0000
  H   H4205     1.0  0.65784  0.52904  0.70298  1.0000
  C   C4222     1.0  0.70595  0.63294  0.62812  1.0000
  H   H4206     1.0  0.79505  0.82077  0.61677  1.0000
  C   C4223     1.0  0.82549  0.78996  0.62948  1.0000
  C   C4224     1.0  0.71707  0.59207  0.75903  1.0000
  H   H4207     1.0  0.73050  0.86818  0.76118  1.0000
  C   C4225     1.0  0.66741  0.52208  0.68421  1.0000
  C   C4226     1.0  0.62077  0.61167  0.62325  1.0000
  H   H4208     1.0  0.52957  0.70017  0.61921  1.0000
  S   S1444     1.0  0.81844  0.83265  0.60481  1.0000
  H   H4209     1.0  0.84464  0.74704  0.76407  1.0000
  H   H4210     1.0  0.80328  0.87662  0.58811  1.0000
  C   C4227     1.0  0.97384  0.83835  0.67698  1.0000
  H   H4211     1.0  0.83039  0.76315  0.63899  1.0000
  C   C4228     1.0  0.89284  0.85514  0.59686  1.0000
  C   C4229     1.0  0.81076  0.95757  0.64232  1.0000
  C   C4230     1.0  0.84204  0.82474  0.66841  1.0000
  H   H4212     1.0  0.90529  0.87023  0.59021  1.0000
  N   N343      1.0  0.79428  0.86113  0.62126  1.0000
  C   C4231     1.0  0.79692  0.86322  0.60734  1.0000
  C   C4232     1.0  0.79581  0.87054  0.62733  1.0000
  C   C4233     1.0  0.80100  0.87507  0.59914  1.0000
  C   C4234     1.0  0.79972  0.88258  0.61943  1.0000
  C   C4235     1.0  0.80230  0.88484  0.60526  1.0000
  C   C4236     1.0  0.79059  0.84838  0.62964  1.0000
  H   H4213     1.0  0.79603  0.85562  0.60251  1.0000
  H   H4214     1.0  0.79399  0.86882  0.63835  1.0000
  H   H4215     1.0  0.71612  0.59169  0.74881  1.0000
  H   H4216     1.0  0.80078  0.89011  0.62425  1.0000
  S   S1445     1.0  0.91116  0.64997  0.78101  1.0000
  H   H4217     1.0  0.78470  0.84444  0.62472  1.0000
  H   H4218     1.0  0.80008  0.84050  0.63116  1.0000
  H   H4219     1.0  0.78406  0.84982  0.63980  1.0000
  H   H4220     1.0  0.67633  0.65557  0.59265  1.0000
  N   N344      1.0  0.58063  0.60868  0.68597  1.0000
  C   C4237     1.0  0.58871  0.59577  0.68700  1.0000
  C   C4238     1.0  0.56879  0.61181  0.68132  1.0000
  C   C4239     1.0  0.58490  0.58555  0.68346  1.0000
  C   C4240     1.0  0.56474  0.60187  0.67757  1.0000
  C   C4241     1.0  0.57291  0.58868  0.67860  1.0000
  C   C4242     1.0  0.58508  0.61953  0.68893  1.0000
  H   H4221     1.0  0.59845  0.59338  0.69005  1.0000
  H   H4222     1.0  0.56255  0.62212  0.68024  1.0000
  H   H4223     1.0  0.59163  0.57548  0.68379  1.0000
  H   H4224     1.0  0.55554  0.60447  0.67354  1.0000
  H   H4225     1.0  0.57015  0.58101  0.67527  1.0000
  H   H4226     1.0  0.58958  0.62596  0.67922  1.0000
  H   H4227     1.0  0.57617  0.62625  0.69443  1.0000
  H   H4228     1.0  0.59282  0.61539  0.69537  1.0000
  C   C4243     1.0  0.88975  0.84363  0.60666  1.0000
  C   C4244     1.0  0.70547  0.61621  0.75386  1.0000
  C   C4245     1.0  0.58871  0.62734  0.60150  1.0000
  C   C4246     1.0  0.80772  0.94720  0.65358  1.0000
  C   C4247     1.0  0.92982  0.82418  0.60211  1.0000
  N   N345      1.0  0.78014  0.80916  0.71238  1.0000
  C   C4248     1.0  0.77109  0.81082  0.70437  1.0000
  C   C4249     1.0  0.79330  0.80170  0.70930  1.0000
  C   C4250     1.0  0.77531  0.80531  0.69267  1.0000
  C   C4251     1.0  0.79788  0.79611  0.69764  1.0000
  C   C4252     1.0  0.78883  0.79803  0.68924  1.0000
  C   C4253     1.0  0.77593  0.81546  0.72430  1.0000
  H   H4229     1.0  0.76064  0.81674  0.70677  1.0000
  H   H4230     1.0  0.80038  0.80019  0.71578  1.0000
  H   H4231     1.0  0.76824  0.80686  0.68616  1.0000
  H   H4232     1.0  0.80839  0.79039  0.69504  1.0000
  H   H4233     1.0  0.79232  0.79396  0.68004  1.0000
  H   H4234     1.0  0.77614  0.80746  0.73379  1.0000
  H   H4235     1.0  0.78306  0.82205  0.72348  1.0000
  H   H4236     1.0  0.76538  0.82205  0.72514  1.0000
  N   N346      1.0  0.77721  0.62952  0.72487  1.0000
  C   C4254     1.0  0.78929  0.62407  0.72917  1.0000
  C   C4255     1.0  0.77226  0.62221  0.71896  1.0000
  C   C4256     1.0  0.79645  0.61075  0.72816  1.0000
  C   C4257     1.0  0.77911  0.60884  0.71785  1.0000
  C   C4258     1.0  0.79123  0.60307  0.72258  1.0000
  C   C4259     1.0  0.76987  0.64347  0.72608  1.0000
  H   H4237     1.0  0.79344  0.62996  0.73352  1.0000
  H   H4238     1.0  0.76276  0.62656  0.71540  1.0000
  H   H4239     1.0  0.80593  0.60646  0.73178  1.0000
  H   H4240     1.0  0.77484  0.60292  0.71362  1.0000
  H   H4241     1.0  0.79656  0.59265  0.72193  1.0000
  H   H4242     1.0  0.75865  0.64490  0.72686  1.0000
  H   H4243     1.0  0.77078  0.64571  0.73558  1.0000
  H   H4244     1.0  0.77411  0.65088  0.71714  1.0000
  H   H4245     1.0  0.60356  0.60184  0.60566  1.0000
  N   N347      1.0  0.68833  0.52927  0.67164  1.0000
  H   H4246     1.0  0.72774  0.58650  0.75983  1.0000
  H   H4247     1.0  0.85351  0.66803  0.73397  1.0000
  C   C4260     1.0  0.67488  0.68124  0.66816  1.0000
  H   H4248     1.0  0.67903  0.68875  0.65973  1.0000
  C   C4261     1.0  0.63799  0.66849  0.59833  1.0000
  C   C4262     1.0  0.61718  0.60323  0.61714  1.0000
  H   H4249     1.0  0.82208  0.79363  0.60429  1.0000
  H   H4250     1.0  0.64571  0.53627  0.60296  1.0000
  N   N348      1.0  0.82555  0.77946  0.62256  1.0000
  H   H4251     1.0  0.69566  0.53269  0.65018  1.0000
  C   C4263     1.0  0.60318  0.63027  0.61501  1.0000
  H   H4252     1.0  0.66065  0.65387  0.69768  1.0000
  C   C4264     1.0  0.66472  0.66158  0.68945  1.0000
  C   C4265     1.0  0.86359  0.91110  0.60019  1.0000
  C   C4266     1.0  0.71823  0.80120  0.62791  1.0000
  H   H4253     1.0  0.89793  0.79703  0.61960  1.0000
  H   H4254     1.0  0.93941  0.80870  0.62382  1.0000
  C   C4267     1.0  0.62957  0.59989  0.58315  1.0000
  C   C4268     1.0  0.83127  0.82223  0.66455  1.0000
  N   N349      1.0  0.92410  0.81318  0.61217  1.0000
  H   H4255     1.0  0.65944  0.51683  0.68495  1.0000
  N   N350      1.0  0.97778  0.86316  0.67842  1.0000
  C   C4269     1.0  0.65349  0.48737  0.65748  1.0000
  C   C4270     1.0  0.67721  0.92444  0.77964  1.0000
  H   H4256     1.0  0.87965  0.90028  0.58630  1.0000
  N   N351      1.0  0.66489  0.49946  0.61589  1.0000
  H   H4257     1.0  0.62899  0.66944  0.60703  1.0000
  C   C4271     1.0  0.85122  0.60825  0.77231  1.0000
  C   C4272     1.0  0.99184  0.84696  0.63804  1.0000
  C   C4273     1.0  0.80047  0.80498  0.59059  1.0000
  N   N352      1.0  0.71456  0.60620  0.76044  1.0000
  C   C4274     1.0  0.67969  0.67594  0.58410  1.0000
  N   N353      1.0  0.84144  0.60134  0.78051  1.0000
  C   C4275     1.0  0.50905  0.69351  0.65068  1.0000
  C   C4276     1.0  0.51893  0.68331  0.61187  1.0000
  H   H4258     1.0  0.58437  0.61909  0.60061  1.0000
  C   C4277     1.0  0.86885  0.90203  0.59127  1.0000
  N   N354      1.0  0.61819  0.75534  0.71080  1.0000
  C   C4278     1.0  0.61642  0.74731  0.70329  1.0000
  C   C4279     1.0  0.63114  0.75629  0.71068  1.0000
  C   C4280     1.0  0.62781  0.73978  0.69559  1.0000
  C   C4281     1.0  0.64276  0.74875  0.70322  1.0000
  C   C4282     1.0  0.64104  0.74043  0.69565  1.0000
  C   C4283     1.0  0.60611  0.76328  0.71865  1.0000
  H   H4259     1.0  0.60617  0.74648  0.70343  1.0000
  H   H4260     1.0  0.63257  0.76252  0.71677  1.0000
  H   H4261     1.0  0.62643  0.73333  0.68972  1.0000
  H   H4262     1.0  0.65300  0.74921  0.70350  1.0000
  H   H4263     1.0  0.64993  0.73440  0.68990  1.0000
  H   H4264     1.0  0.60874  0.76592  0.72711  1.0000
  H   H4265     1.0  0.60189  0.77283  0.71188  1.0000
  H   H4266     1.0  0.59801  0.75726  0.72344  1.0000
  N   N355      1.0  0.85631  0.68742  0.72188  1.0000
  C   C4284     1.0  0.84431  0.69661  0.72533  1.0000
  C   C4285     1.0  0.86444  0.68956  0.70904  1.0000
  C   C4286     1.0  0.84028  0.70844  0.71586  1.0000
  C   C4287     1.0  0.86078  0.70134  0.69935  1.0000
  C   C4288     1.0  0.84863  0.71084  0.70282  1.0000
  C   C4289     1.0  0.86030  0.67522  0.73209  1.0000
  H   H4267     1.0  0.83799  0.69498  0.73559  1.0000
  H   H4268     1.0  0.87400  0.68233  0.70631  1.0000
  H   H4269     1.0  0.83095  0.71590  0.71873  1.0000
  H   H4270     1.0  0.86752  0.70334  0.68936  1.0000
  H   H4271     1.0  0.84592  0.72022  0.69552  1.0000
  C   C4290     1.0  0.81897  0.96597  0.64269  1.0000
  H   H4272     1.0  0.80157  0.94040  0.65335  1.0000
  H   H4273     1.0  0.85953  0.67811  0.74180  1.0000
  N   N356      1.0  0.82135  0.95341  0.66520  1.0000
  H   H4274     1.0  0.67933  0.63274  0.63768  1.0000
  C   C4291     1.0  0.82423  0.96373  0.65427  1.0000
  H   H4275     1.0  0.97232  0.82880  0.67605  1.0000
  H   H4276     1.0  0.52415  0.70591  0.64184  1.0000
  H   H4277     1.0  0.82095  0.77620  0.59286  1.0000
  H   H4278     1.0  0.63804  0.66017  0.59355  1.0000
  H   H4279     1.0  0.84143  0.58495  0.77218  1.0000
  C   C4292     1.0  0.93049  0.80600  0.62262  1.0000
  H   H4280     1.0  0.75289  0.71419  0.61062  1.0000
  C   C4293     1.0  0.51873  0.69925  0.64008  1.0000
  H   H4281     1.0  0.63014  0.50108  0.63138  1.0000
  H   H4282     1.0  0.82399  0.75189  0.60507  1.0000
  Fe  Fe721     1.0  0.68772  0.70292  0.59292  1.0000
  H   H4283     1.0  0.80691  0.95897  0.63326  1.0000
  N   N357      1.0  0.72375  0.77574  0.64503  1.0000
  C   C4294     1.0  0.72948  0.78592  0.64543  1.0000
  C   C4295     1.0  0.71524  0.77806  0.63632  1.0000
  C   C4296     1.0  0.72677  0.79880  0.63692  1.0000
  C   C4297     1.0  0.71239  0.79079  0.62760  1.0000
  H   H4284     1.0  0.64763  0.66536  0.60218  1.0000
  C   C4298     1.0  0.72721  0.76203  0.65340  1.0000
  H   H4285     1.0  0.73639  0.78410  0.65218  1.0000
  H   H4286     1.0  0.71115  0.76982  0.63562  1.0000
  H   H4287     1.0  0.73151  0.80677  0.63714  1.0000
  H   H4288     1.0  0.98747  0.87654  0.64820  1.0000
  Fe  Fe722     1.0  0.70241  0.85150  0.77216  1.0000
  H   H4289     1.0  0.73267  0.76190  0.66123  1.0000
  H   H4290     1.0  0.71773  0.75815  0.65875  1.0000
  H   H4291     1.0  0.73404  0.75498  0.64676  1.0000
  N   N358      1.0  0.72666  0.88204  0.74277  1.0000
  C   C4299     1.0  0.71287  0.88631  0.74777  1.0000
  C   C4300     1.0  0.73207  0.88480  0.72904  1.0000
  C   C4301     1.0  0.70401  0.89313  0.73892  1.0000
  C   C4302     1.0  0.72350  0.89156  0.71988  1.0000
  C   C4303     1.0  0.70937  0.89567  0.72487  1.0000
  C   C4304     1.0  0.73575  0.87497  0.75227  1.0000
  H   H4292     1.0  0.70860  0.88435  0.75866  1.0000
  H   H4293     1.0  0.74299  0.88134  0.72502  1.0000
  H   H4294     1.0  0.69304  0.89632  0.74299  1.0000
  H   H4295     1.0  0.72778  0.89313  0.70896  1.0000
  H   H4296     1.0  0.70258  0.90069  0.71788  1.0000
  H   H4297     1.0  0.74514  0.86827  0.74737  1.0000
  H   H4298     1.0  0.59292  0.63281  0.59109  1.0000
  H   H4299     1.0  0.73881  0.88251  0.75589  1.0000
  N   N359      1.0  0.66208  0.67917  0.66940  1.0000
  S   S1446     1.0  0.87309  0.64030  0.74386  1.0000
  H   H4300     1.0  0.69595  0.63766  0.74963  1.0000
  C   C4305     1.0  0.65384  0.68697  0.65932  1.0000
  H   H4301     1.0  0.68317  0.60367  0.67516  1.0000
  C   C4306     1.0  0.70962  0.63295  0.76336  1.0000
  S   S1447     1.0  0.64956  0.76029  0.76806  1.0000
  H   H4302     1.0  0.60123  0.75029  0.75902  1.0000
  Fe  Fe723     1.0  0.64433  0.78288  0.76648  1.0000
  H   H4303     1.0  0.52619  0.67319  0.61246  1.0000
  C   C4307     1.0  0.74128  0.62368  0.74135  1.0000
  C   C4308     1.0  0.81300  0.94537  0.66506  1.0000
  C   C4309     1.0  0.92551  0.79517  0.63209  1.0000
  H   H4304     1.0  0.97254  0.88490  0.67420  1.0000
  H   H4305     1.0  0.78537  0.80553  0.60948  1.0000
  C   C4310     1.0  0.72069  0.73434  0.61311  1.0000
  C   C4311     1.0  0.72353  0.74611  0.61485  1.0000
  H   H4306     1.0  0.72831  0.60135  0.77382  1.0000
  H   H4307     1.0  0.70798  0.64343  0.76423  1.0000
  C   C4312     1.0  0.57835  0.66837  0.59515  1.0000
  H   H4308     1.0  0.66032  0.58937  0.59281  1.0000
  H   H4309     1.0  0.97830  0.87679  0.68995  1.0000
  H   H4310     1.0  0.95599  0.87023  0.68042  1.0000
  S   S1448     1.0  0.84931  0.97954  0.62860  1.0000
  H   H4311     1.0  0.83084  0.97015  0.65432  1.0000
  C   C4313     1.0  0.66123  0.52364  0.61379  1.0000
  H   H4312     1.0  0.66369  0.53222  0.61585  1.0000
  Fe  Fe724     1.0  0.77232  0.62409  0.76792  1.0000
  H   H4313     1.0  0.63712  0.66374  0.75392  1.0000
  S   S1449     1.0  0.87935  0.63957  0.77944  1.0000
  H   H4314     1.0  0.67608  0.54136  0.70069  1.0000
  H   H4315     1.0  0.71036  0.73429  0.61277  1.0000
  H   H4316     1.0  0.71531  0.75506  0.61586  1.0000
  S   S1450     1.0  0.87808  0.94639  0.62143  1.0000
  H   H4317     1.0  0.69888  0.64298  0.62546  1.0000
  C   C4314     1.0  0.69975  0.52940  0.65962  1.0000
  C   C4315     1.0  0.85862  0.87576  0.62117  1.0000
  H   H4318     1.0  0.83492  0.86331  0.63419  1.0000
  C   C4316     1.0  0.90909  0.85667  0.60909  1.0000
  S   S1451     1.0  0.78457  0.64041  0.76019  1.0000
  C   C4317     1.0  0.66651  0.52894  0.69429  1.0000
  C   C4318     1.0  0.81698  0.81931  0.58588  1.0000
  C   C4319     1.0  0.84739  0.81870  0.62848  1.0000
  H   H4319     1.0  0.63288  0.68763  0.75673  1.0000
  C   C4320     1.0  0.79967  0.81799  0.60696  1.0000
  C   C4321     1.0  0.71865  0.62264  0.77026  1.0000
  C   C4322     1.0  0.79427  0.80919  0.60292  1.0000
  H   H4320     1.0  0.90064  0.89352  0.60719  1.0000
  C   C4323     1.0  0.85604  0.82350  0.64585  1.0000
  H   H4321     1.0  0.93043  0.78972  0.64055  1.0000
  H   H4322     1.0  0.83190  0.60143  0.76483  1.0000
  C   C4324     1.0  0.85800  0.63619  0.74316  1.0000
  N   N360      1.0  0.84674  0.87800  0.63088  1.0000
  C   C4325     1.0  0.62697  0.67039  0.75414  1.0000
  C   C4326     1.0  0.62460  0.68376  0.75571  1.0000
  H   H4323     1.0  0.87979  0.87768  0.61401  1.0000
  H   H4324     1.0  0.90019  0.92454  0.60441  1.0000
  H   H4325     1.0  0.82912  0.74532  0.62813  1.0000
  C   C4327     1.0  0.61623  0.66572  0.75251  1.0000
  H   H4326     1.0  0.61820  0.65534  0.75116  1.0000
  C   C4328     1.0  0.89593  0.83906  0.61790  1.0000
  H   H4327     1.0  0.59777  0.64087  0.61417  1.0000
  H   H4328     1.0  0.80546  0.89408  0.59901  1.0000
  N   N361      1.0  0.59959  0.62185  0.60924  1.0000
  H   H4329     1.0  0.73585  0.63423  0.74067  1.0000
  H   H4330     1.0  0.69547  0.54133  0.68064  1.0000
  C   C4329     1.0  0.75099  0.61813  0.74955  1.0000
  Fe  Fe725     1.0  0.86754  0.93064  0.62037  1.0000
  H   H4331     1.0  0.84547  0.92021  0.61349  1.0000
  N   N362      1.0  0.91409  0.90521  0.60784  1.0000
  C   C4330     1.0  0.90864  0.91844  0.60914  1.0000
  C   C4331     1.0  0.91378  0.92427  0.61673  1.0000
  S   S1452     1.0  0.82061  0.62242  0.74104  1.0000
  C   C4332     1.0  0.83468  0.62820  0.74187  1.0000
  C   C4333     1.0  0.90552  0.84556  0.61915  1.0000
  C   C4334     1.0  0.87049  0.87917  0.62190  1.0000
  H   H4332     1.0  0.70660  0.51910  0.65994  1.0000
  Fe  Fe726     1.0  0.88989  0.65653  0.77645  1.0000
  C   C4335     1.0  0.61153  0.69220  0.75581  1.0000
  H   H4333     1.0  0.60954  0.70261  0.75702  1.0000
  C   C4336     1.0  0.83318  0.82031  0.65134  1.0000
  C   C4337     1.0  0.61374  0.62529  0.62221  1.0000
  H   H4334     1.0  0.58836  0.66234  0.76027  1.0000
  C   C4338     1.0  0.84085  0.90685  0.60360  1.0000
  H   H4335     1.0  0.82165  0.78688  0.64070  1.0000
  H   H4336     1.0  0.64343  0.69184  0.66450  1.0000
  C   C4339     1.0  0.65043  0.58892  0.59161  1.0000
  C   C4340     1.0  0.82354  0.78307  0.60955  1.0000
  C   C4341     1.0  0.60105  0.68723  0.75405  1.0000
  C   C4342     1.0  0.84553  0.63916  0.75256  1.0000
  C   C4343     1.0  0.84649  0.88307  0.64175  1.0000
  C   C4344     1.0  0.82773  0.75591  0.62274  1.0000
  S   S1453     1.0  0.75348  0.62854  0.75903  1.0000
  H   H4337     1.0  0.70852  0.60180  0.66871  1.0000
  S   S1454     1.0  0.79084  0.60696  0.76519  1.0000
  H   H4338     1.0  0.83723  0.88442  0.64971  1.0000
  C   C4345     1.0  0.59247  0.66900  0.75058  1.0000
  H   H4339     1.0  0.59099  0.69397  0.75391  1.0000
  H   H4340     1.0  0.82478  0.59248  0.78138  1.0000
  C   C4346     1.0  0.98701  0.83983  0.67627  1.0000
  C   C4347     1.0  0.87018  0.88481  0.63269  1.0000
  C   C4348     1.0  0.83386  0.63513  0.75193  1.0000
  H   H4341     1.0  0.68351  0.92758  0.76968  1.0000
  C   C4349     1.0  0.85812  0.88673  0.64274  1.0000
  H   H4342     1.0  0.92840  0.88677  0.61365  1.0000
  S   S1455     1.0  0.87473  0.91971  0.60288  1.0000
  C   C4350     1.0  0.84961  0.91328  0.60657  1.0000
  H   H4343     1.0  0.93757  0.89651  0.62745  1.0000
  C   C4351     1.0  0.82818  0.76604  0.62895  1.0000
  H   H4344     1.0  0.82998  0.90887  0.60828  1.0000
  H   H4345     1.0  0.62887  0.60757  0.62893  1.0000
  H   H4346     1.0  0.62253  0.59261  0.61794  1.0000
  H   H4347     1.0  0.87925  0.88770  0.63326  1.0000
  C   C4352     1.0  0.65509  0.50158  0.60859  1.0000
  H   H4348     1.0  0.82426  0.63744  0.75918  1.0000
  Fe  Fe727     1.0  0.80301  0.62317  0.75920  1.0000
  H   H4349     1.0  0.83605  0.79162  0.62744  1.0000
  H   H4350     1.0  0.85772  0.89109  0.65122  1.0000
  C   C4353     1.0  0.68769  0.53578  0.68162  1.0000
  C   C4354     1.0  0.67844  0.52238  0.67287  1.0000
  H   H4351     1.0  0.90758  0.81555  0.60262  1.0000
  S   S1456     1.0  0.92221  0.86394  0.60983  1.0000
  H   H4352     1.0  0.67891  0.51724  0.66495  1.0000
  H   H4353     1.0  0.81084  0.93709  0.67368  1.0000
  H   H4354     1.0  0.89360  0.83018  0.62544  1.0000
  C   C4355     1.0  0.62509  0.58762  0.58811  1.0000
  H   H4355     1.0  0.93283  0.83060  0.60725  1.0000
  H   H4356     1.0  0.66858  0.61904  0.65939  1.0000
  H   H4357     1.0  0.68402  0.67615  0.59232  1.0000
  C   C4356     1.0  0.99260  0.86673  0.64564  1.0000
  C   C4357     1.0  0.82703  0.95097  0.67726  1.0000
  H   H4358     1.0  0.57997  0.63434  0.60681  1.0000
  C   C4358     1.0  0.83458  0.59470  0.77443  1.0000
  C   C4359     1.0  0.90729  0.79927  0.62032  1.0000
  S   S1457     1.0  0.79542  0.79194  0.58672  1.0000
  C   C4360     1.0  0.56795  0.68018  0.59642  1.0000
  H   H4359     1.0  0.52414  0.69071  0.60367  1.0000
  Fe  Fe728     1.0  0.83524  0.84290  0.59087  1.0000
  C   C4361     1.0  0.96479  0.86172  0.67937  1.0000
  S   S1458     1.0  0.68237  0.90033  0.77211  1.0000
  C   C4362     1.0  0.98876  0.85230  0.67729  1.0000
  C   C4363     1.0  0.65527  0.83237  0.77387  1.0000
  H   H4360     1.0  0.56103  0.70131  0.58744  1.0000
  H   H4361     1.0  0.70960  0.58672  0.76697  1.0000
  H   H4362     1.0  0.99039  0.87762  0.67363  1.0000
  H   H4363     1.0  0.90337  0.90701  0.59240  1.0000
  H   H4364     1.0  0.88817  0.85873  0.58810  1.0000
  C   C4364     1.0  0.86016  0.89535  0.58855  1.0000
  S   S1459     1.0  0.80532  0.62164  0.78019  1.0000
  H   H4365     1.0  0.60910  0.83713  0.78105  1.0000
  H   H4366     1.0  0.72424  0.62509  0.77636  1.0000
  C   C4365     1.0  0.72098  0.60923  0.76872  1.0000
  C   C4366     1.0  0.67529  0.66430  0.58429  1.0000
  Fe  Fe729     1.0  0.67158  0.85351  0.78057  1.0000
  C   C4367     1.0  0.86613  0.98451  0.64247  1.0000
  Fe  Fe730     1.0  0.78567  0.63754  0.78198  1.0000
  Fe  Fe731     1.0  0.68316  0.87785  0.77848  1.0000
  C   C4368     1.0  0.50579  0.68152  0.63546  1.0000
  N   N363      1.0  0.63748  0.68146  0.58834  1.0000
  H   H4367     1.0  0.63805  0.80851  0.77494  1.0000
  C   C4369     1.0  0.64448  0.69063  0.58880  1.0000
  H   H4368     1.0  0.50094  0.67428  0.63387  1.0000
  C   C4370     1.0  0.64481  0.82511  0.77768  1.0000
  H   H4369     1.0  0.62185  0.85307  0.77992  1.0000
  C   C4371     1.0  0.50250  0.68461  0.64837  1.0000
  H   H4370     1.0  0.50684  0.69569  0.66075  1.0000
  Fe  Fe732     1.0  0.56529  0.84895  0.87494  1.0000
  S   S1460     1.0  0.55768  0.86896  0.86158  1.0000
  S   S1461     1.0  0.55871  0.84514  0.89784  1.0000
  Fe  Fe733     1.0  0.57838  0.83500  0.85099  1.0000
  S   S1462     1.0  0.57176  0.85376  0.83573  1.0000
  S   S1463     1.0  0.59295  0.81570  0.84584  1.0000
  Fe  Fe734     1.0  0.57855  0.86466  0.84771  1.0000
  S   S1464     1.0  0.59283  0.87882  0.83587  1.0000
  Fe  Fe735     1.0  0.55145  0.85627  0.85093  1.0000
  S   S1465     1.0  0.58659  0.84565  0.86198  1.0000
  S   S1466     1.0  0.55762  0.83651  0.86529  1.0000
  Fe  Fe736     1.0  0.63111  0.84527  0.95580  1.0000
  S   S1467     1.0  0.64520  0.85531  0.93770  1.0000
  Fe  Fe737     1.0  0.60866  0.85088  0.94007  1.0000
  S   S1468     1.0  0.62039  0.86203  0.92100  1.0000
  S   S1469     1.0  0.58759  0.84703  0.94340  1.0000
  Fe  Fe738     1.0  0.63837  0.84493  0.92527  1.0000
  S   S1470     1.0  0.65167  0.83791  0.90625  1.0000
  Fe  Fe739     1.0  0.62614  0.87142  0.93493  1.0000
  S   S1471     1.0  0.62657  0.89356  0.93046  1.0000
  S   S1472     1.0  0.62620  0.83306  0.94363  1.0000
  S   S1473     1.0  0.61248  0.86209  0.95378  1.0000
  Fe  Fe740     1.0  0.62472  0.92717  0.85648  1.0000
  S   S1474     1.0  0.64575  0.91651  0.84699  1.0000
  S   S1475     1.0  0.60650  0.91730  0.86561  1.0000
  Fe  Fe741     1.0  0.63467  0.95201  0.85773  1.0000
  S   S1476     1.0  0.65660  0.94325  0.84839  1.0000
  Fe  Fe742     1.0  0.64760  0.93722  0.83418  1.0000
  S   S1477     1.0  0.65811  0.94164  0.81203  1.0000
  Fe  Fe743     1.0  0.65285  0.92333  0.86192  1.0000
  S   S1478     1.0  0.66697  0.90746  0.87390  1.0000
  S   S1479     1.0  0.62581  0.94756  0.84241  1.0000
  S   S1480     1.0  0.63174  0.93240  0.87247  1.0000
  Fe  Fe744     1.0  0.85888  0.56021  0.85986  1.0000
  S   S1481     1.0  0.83788  0.57118  0.86963  1.0000
  Fe  Fe745     1.0  0.87053  0.58605  0.85128  1.0000
  S   S1482     1.0  0.85052  0.59862  0.86026  1.0000
  S   S1483     1.0  0.88649  0.59867  0.84022  1.0000
  Fe  Fe746     1.0  0.84950  0.58111  0.87803  1.0000
  S   S1484     1.0  0.84150  0.58660  0.89873  1.0000
  Fe  Fe747     1.0  0.84075  0.58790  0.85095  1.0000
  S   S1485     1.0  0.82410  0.60293  0.84115  1.0000
  S   S1486     1.0  0.87032  0.56903  0.86983  1.0000
  S   S1487     1.0  0.86091  0.57645  0.84044  1.0000
  Fe  Fe748     1.0  0.86962  0.62832  0.93189  1.0000
  S   S1488     1.0  0.86463  0.65062  0.92247  1.0000
  S   S1489     1.0  0.87868  0.61478  0.91652  1.0000
  S   S1490     1.0  0.85697  0.65610  0.95349  1.0000
  Fe  Fe749     1.0  0.84637  0.65126  0.93998  1.0000
  S   S1491     1.0  0.82600  0.66461  0.93663  1.0000
  Fe  Fe750     1.0  0.87576  0.65307  0.93686  1.0000
  S   S1492     1.0  0.89062  0.66628  0.93303  1.0000
  S   S1493     1.0  0.88250  0.63074  0.94490  1.0000
  Fe  Fe751     1.0  0.94095  0.61899  0.86128  1.0000
  S   S1494     1.0  0.92599  0.63767  0.86691  1.0000
  S   S1495     1.0  0.93286  0.59974  0.86833  1.0000
  Fe  Fe752     1.0  0.96424  0.63413  0.84735  1.0000
  S   S1496     1.0  0.95054  0.65417  0.85106  1.0000
  N   N364      1.0  0.98313  0.67006  0.85693  1.0000
  Fe  Fe753     1.0  0.94359  0.64225  0.87200  1.0000
  S   S1497     1.0  0.94471  0.65030  0.88940  1.0000
  Fe  Fe754     1.0  0.93433  0.64765  0.84539  1.0000
  S   S1498     1.0  0.91757  0.66163  0.83508  1.0000
  S   S1499     1.0  0.95792  0.62245  0.86859  1.0000
  S   S1500     1.0  0.94862  0.62862  0.83944  1.0000
  H   H4371     1.0  0.94135  0.61971  0.81162  1.0000
  H   H4372     1.0  0.68564  0.81058  0.80458  1.0000
  C   C4372     1.0  0.93760  0.60030  0.82388  1.0000
  C   C4373     1.0  0.84718  0.52987  0.85103  1.0000
  S   S1501     1.0  0.64726  0.74371  0.80686  1.0000
  C   C4374     1.0  0.86562  0.51174  0.85838  1.0000
  H   H4373     1.0  0.82434  0.63891  0.79218  1.0000
  H   H4374     1.0  0.60876  0.92087  0.91960  1.0000
  H   H4375     1.0  0.68160  0.89042  0.85459  1.0000
  H   H4376     1.0  0.97533  0.66555  0.84215  1.0000
  C   C4375     1.0  0.85486  0.61357  0.79197  1.0000
  C   C4376     1.0  0.68879  0.90535  0.81588  1.0000
  C   C4377     1.0  0.68591  0.91399  0.82495  1.0000
  H   H4377     1.0  0.92086  0.59156  0.89758  1.0000
  C   C4378     1.0  0.83851  0.60008  0.79435  1.0000
  C   C4379     1.0  0.90020  0.62950  0.98043  1.0000
  C   C4380     1.0  0.81753  0.63744  0.80251  1.0000
  H   H4378     1.0  0.51080  0.88283  0.86366  1.0000
  N   N365      1.0  0.82746  0.49131  0.88337  1.0000
  C   C4381     1.0  0.51536  0.83781  0.89090  1.0000
  Fe  Fe755     1.0  0.78644  0.65843  0.88906  1.0000
  S   S1502     1.0  0.76525  0.66448  0.88474  1.0000
  S   S1503     1.0  0.79409  0.64285  0.90645  1.0000
  Fe  Fe756     1.0  0.79897  0.67448  0.86189  1.0000
  S   S1504     1.0  0.77914  0.68210  0.85473  1.0000
  S   S1505     1.0  0.81891  0.68036  0.85039  1.0000
  Fe  Fe757     1.0  0.76979  0.68541  0.87608  1.0000
  S   S1506     1.0  0.75648  0.70575  0.87990  1.0000
  Fe  Fe758     1.0  0.77611  0.66073  0.86376  1.0000
  S   S1507     1.0  0.76969  0.64699  0.85452  1.0000
  S   S1508     1.0  0.79005  0.67960  0.88238  1.0000
  S   S1509     1.0  0.79685  0.65285  0.86890  1.0000
  Fe  Fe759     1.0  0.68594  0.77352  0.85610  1.0000
  S   S1510     1.0  0.66481  0.78327  0.86633  1.0000
  S   S1511     1.0  0.70039  0.78319  0.83825  1.0000
  Fe  Fe760     1.0  0.68404  0.74511  0.87231  1.0000
  S   S1512     1.0  0.66263  0.75213  0.88408  1.0000
  S   S1513     1.0  0.69444  0.72283  0.87439  1.0000
  Fe  Fe761     1.0  0.65862  0.76521  0.86414  1.0000
  S   S1514     1.0  0.63875  0.76916  0.85770  1.0000
  Fe  Fe762     1.0  0.67048  0.76956  0.88548  1.0000
  S   S1515     1.0  0.66420  0.77510  0.90602  1.0000
  S   S1516     1.0  0.67923  0.75665  0.85213  1.0000
  S   S1517     1.0  0.69234  0.76141  0.87548  1.0000
  H   H4379     1.0  0.93996  0.62841  0.91781  1.0000
  H   H4380     1.0  0.59991  0.82905  0.96638  1.0000
  C   C4382     1.0  0.86022  0.50207  0.85552  1.0000
  H   H4381     1.0  0.69064  0.90970  0.80501  1.0000
  S   S1518     1.0  0.84880  0.64233  0.80866  1.0000
  H   H4382     1.0  0.53423  0.83710  0.89634  1.0000
  H   H4383     1.0  0.66473  0.76533  0.80279  1.0000
  H   H4384     1.0  0.89691  0.64932  0.95848  1.0000
  H   H4385     1.0  0.49747  0.85106  0.81512  1.0000
  S   S1519     1.0  0.70173  0.86477  0.78611  1.0000
  S   S1520     1.0  0.68566  0.84757  0.82405  1.0000
  N   N366      1.0  0.92114  0.60766  0.90643  1.0000
  C   C4383     1.0  0.69678  0.80107  0.83498  1.0000
  C   C4384     1.0  0.70334  0.80815  0.82257  1.0000
  C   C4385     1.0  0.70009  0.82243  0.81935  1.0000
  C   C4386     1.0  0.69041  0.82972  0.82860  1.0000
  C   C4387     1.0  0.68415  0.82267  0.84123  1.0000
  C   C4388     1.0  0.68727  0.80833  0.84438  1.0000
  H   H4386     1.0  0.71080  0.80259  0.81533  1.0000
  H   H4387     1.0  0.70520  0.82782  0.80973  1.0000
  H   H4388     1.0  0.67670  0.82826  0.84844  1.0000
  H   H4389     1.0  0.68238  0.80295  0.85409  1.0000
  C   C4389     1.0  0.82878  0.66941  0.83949  1.0000
  C   C4390     1.0  0.82961  0.65533  0.84357  1.0000
  C   C4391     1.0  0.83622  0.64691  0.83417  1.0000
  C   C4392     1.0  0.84188  0.65261  0.82070  1.0000
  C   C4393     1.0  0.84153  0.66658  0.81680  1.0000
  C   C4394     1.0  0.83514  0.67495  0.82624  1.0000
  H   H4390     1.0  0.82495  0.65096  0.85385  1.0000
  H   H4391     1.0  0.83654  0.63607  0.83721  1.0000
  H   H4392     1.0  0.84567  0.67107  0.80637  1.0000
  H   H4393     1.0  0.83453  0.68584  0.82308  1.0000
  C   C4395     1.0  0.73919  0.71003  0.87871  1.0000
  C   C4396     1.0  0.73164  0.72330  0.87950  1.0000
  C   C4397     1.0  0.71800  0.72735  0.87795  1.0000
  C   C4398     1.0  0.71168  0.71805  0.87599  1.0000
  C   C4399     1.0  0.71914  0.70468  0.87545  1.0000
  C   C4400     1.0  0.73294  0.70070  0.87668  1.0000
  H   H4394     1.0  0.73647  0.73055  0.88105  1.0000
  H   H4395     1.0  0.71236  0.73760  0.87847  1.0000
  H   H4396     1.0  0.71428  0.69740  0.87399  1.0000
  H   H4397     1.0  0.73872  0.69042  0.87610  1.0000
  C   C4401     1.0  0.77926  0.65365  0.80806  1.0000
  C   C4402     1.0  0.77728  0.64102  0.81622  1.0000
  C   C4403     1.0  0.77405  0.63917  0.83047  1.0000
  C   C4404     1.0  0.77287  0.64992  0.83664  1.0000
  C   C4405     1.0  0.77442  0.66269  0.82850  1.0000
  C   C4406     1.0  0.77763  0.66455  0.81421  1.0000
  H   H4398     1.0  0.77824  0.63267  0.81155  1.0000
  H   H4399     1.0  0.77259  0.62933  0.83669  1.0000
  H   H4400     1.0  0.77325  0.67111  0.83318  1.0000
  H   H4401     1.0  0.77900  0.67438  0.80792  1.0000
  H   H4402     1.0  0.90373  0.61427  0.92159  1.0000
  H   H4403     1.0  0.82327  0.62881  0.80911  1.0000
  C   C4407     1.0  0.68339  0.90857  0.83894  1.0000
  C   C4408     1.0  0.91440  0.61442  0.91678  1.0000
  C   C4409     1.0  0.64898  0.88057  0.95494  1.0000
  C   C4410     1.0  0.64473  0.75055  0.82118  1.0000
  C   C4411     1.0  0.65259  0.74399  0.83101  1.0000
  C   C4412     1.0  0.65077  0.74960  0.84235  1.0000
  C   C4413     1.0  0.64100  0.76171  0.84389  1.0000
  C   C4414     1.0  0.63295  0.76804  0.83423  1.0000
  C   C4415     1.0  0.63483  0.76250  0.82288  1.0000
  H   H4404     1.0  0.66017  0.73463  0.82980  1.0000
  H   H4405     1.0  0.65684  0.74450  0.84994  1.0000
  H   H4406     1.0  0.62528  0.77726  0.83553  1.0000
  H   H4407     1.0  0.62836  0.76733  0.81564  1.0000
  C   C4416     1.0  0.85906  0.52566  0.85632  1.0000
  H   H4408     1.0  0.60384  0.85218  0.82913  1.0000
  C   C4417     1.0  0.49682  0.84076  0.85322  1.0000
  C   C4418     1.0  0.84182  0.52020  0.84811  1.0000
  C   C4419     1.0  0.62082  0.86197  0.79651  1.0000
  H   H4409     1.0  0.69975  0.87390  0.81307  1.0000
  C   C4420     1.0  0.67183  0.93354  0.78844  1.0000
  H   H4410     1.0  0.67404  0.94362  0.78520  1.0000
  C   C4421     1.0  0.91639  0.65895  0.81958  1.0000
  C   C4422     1.0  0.92716  0.65071  0.81202  1.0000
  S   S1521     1.0  0.53068  0.86445  0.84495  1.0000
  H   H4411     1.0  0.51536  0.82714  0.89537  1.0000
  H   H4412     1.0  0.86448  0.65326  0.97794  1.0000
  C   C4423     1.0  0.90427  0.66513  0.81483  1.0000
  H   H4413     1.0  0.93669  0.64625  0.81542  1.0000
  Fe  Fe763     1.0  0.86293  0.63356  0.96089  1.0000
  H   H4414     1.0  0.92286  0.62345  0.79931  1.0000
  H   H4415     1.0  0.89604  0.67181  0.82044  1.0000
  C   C4424     1.0  0.90521  0.66231  0.92028  1.0000
  C   C4425     1.0  0.90507  0.65520  0.91072  1.0000
  C   C4426     1.0  0.91704  0.65193  0.90075  1.0000
  C   C4427     1.0  0.92918  0.65543  0.90064  1.0000
  C   C4428     1.0  0.92925  0.66246  0.91026  1.0000
  C   C4429     1.0  0.91725  0.66604  0.91994  1.0000
  H   H4416     1.0  0.89575  0.65232  0.91094  1.0000
  H   H4417     1.0  0.91696  0.64641  0.89341  1.0000
  H   H4418     1.0  0.93862  0.66515  0.91022  1.0000
  H   H4419     1.0  0.91738  0.67154  0.92730  1.0000
  C   C4430     1.0  0.81720  0.65836  0.92838  1.0000
  C   C4431     1.0  0.80645  0.66728  0.92264  1.0000
  C   C4432     1.0  0.79938  0.66259  0.91581  1.0000
  C   C4433     1.0  0.80287  0.64888  0.91494  1.0000
  C   C4434     1.0  0.81347  0.63988  0.92088  1.0000
  C   C4435     1.0  0.82075  0.64464  0.92747  1.0000
  H   H4420     1.0  0.80361  0.67788  0.92343  1.0000
  H   H4421     1.0  0.79100  0.66951  0.91152  1.0000
  H   H4422     1.0  0.81618  0.62924  0.92025  1.0000
  H   H4423     1.0  0.82901  0.63768  0.93189  1.0000
  C   C4436     1.0  0.89817  0.59963  0.84922  1.0000
  C   C4437     1.0  0.90510  0.61037  0.84444  1.0000
  C   C4438     1.0  0.91532  0.61080  0.85067  1.0000
  C   C4439     1.0  0.91895  0.60026  0.86146  1.0000
  C   C4440     1.0  0.91178  0.58971  0.86647  1.0000
  C   C4441     1.0  0.90130  0.58946  0.86045  1.0000
  H   H4424     1.0  0.90280  0.61823  0.83570  1.0000
  H   H4425     1.0  0.92074  0.61903  0.84677  1.0000
  H   H4426     1.0  0.91450  0.58155  0.87486  1.0000
  H   H4427     1.0  0.89605  0.58110  0.86418  1.0000
  C   C4442     1.0  0.85191  0.59430  0.90371  1.0000
  C   C4443     1.0  0.86535  0.59471  0.89630  1.0000
  C   C4444     1.0  0.87348  0.60092  0.90042  1.0000
  C   C4445     1.0  0.86814  0.60700  0.91180  1.0000
  C   C4446     1.0  0.85463  0.60681  0.91908  1.0000
  C   C4447     1.0  0.84658  0.60035  0.91512  1.0000
  H   H4428     1.0  0.86957  0.58999  0.88755  1.0000
  H   H4429     1.0  0.88397  0.60089  0.89481  1.0000
  H   H4430     1.0  0.85044  0.61143  0.92789  1.0000
  H   H4431     1.0  0.83618  0.60008  0.92087  1.0000
  C   C4448     1.0  0.81625  0.59777  0.83113  1.0000
  C   C4449     1.0  0.81944  0.58429  0.82952  1.0000
  C   C4450     1.0  0.81337  0.58083  0.82078  1.0000
  C   C4451     1.0  0.80440  0.59093  0.81347  1.0000
  C   C4452     1.0  0.80104  0.60427  0.81539  1.0000
  C   C4453     1.0  0.80681  0.60765  0.82431  1.0000
  H   H4432     1.0  0.82667  0.57658  0.83485  1.0000
  H   H4433     1.0  0.81598  0.57046  0.81932  1.0000
  H   H4434     1.0  0.79397  0.61201  0.80996  1.0000
  H   H4435     1.0  0.80402  0.61799  0.82579  1.0000
  H   H4436     1.0  0.83255  0.52355  0.84416  1.0000
  H   H4437     1.0  0.84205  0.54054  0.84934  1.0000
  C   C4454     1.0  0.82211  0.65150  0.97187  1.0000
  C   C4455     1.0  0.99282  0.63620  0.86110  1.0000
  H   H4438     1.0  0.65421  0.96811  0.86542  1.0000
  C   C4456     1.0  0.66372  0.92973  0.80138  1.0000
  C   C4457     1.0  0.93520  0.61215  0.81392  1.0000
  C   C4458     1.0  0.50511  0.86178  0.84486  1.0000
  H   H4439     1.0  0.66641  0.78522  0.78339  1.0000
  C   C4459     1.0  0.66631  0.90742  0.79654  1.0000
  C   C4460     1.0  0.66082  0.91666  0.80544  1.0000
  H   H4440     1.0  0.83105  0.59431  0.80086  1.0000
  C   C4461     1.0  0.51596  0.87930  0.87243  1.0000
  H   H4441     1.0  0.66404  0.89739  0.79959  1.0000
  H   H4442     1.0  0.65444  0.91368  0.81538  1.0000
  C   C4462     1.0  0.63893  0.89719  0.91546  1.0000
  C   C4463     1.0  0.64024  0.91065  0.90983  1.0000
  C   C4464     1.0  0.64923  0.91378  0.89723  1.0000
  C   C4465     1.0  0.65722  0.90339  0.89044  1.0000
  C   C4466     1.0  0.65647  0.88983  0.89642  1.0000
  C   C4467     1.0  0.64719  0.88675  0.90885  1.0000
  H   H4443     1.0  0.63418  0.91870  0.91509  1.0000
  H   H4444     1.0  0.65000  0.92425  0.89272  1.0000
  H   H4445     1.0  0.66272  0.88179  0.89121  1.0000
  H   H4446     1.0  0.64628  0.87632  0.91313  1.0000
  C   C4468     1.0  0.65512  0.82043  0.90634  1.0000
  C   C4469     1.0  0.65172  0.81096  0.91837  1.0000
  C   C4470     1.0  0.65462  0.79704  0.91818  1.0000
  C   C4471     1.0  0.66086  0.79256  0.90596  1.0000
  C   C4472     1.0  0.66418  0.80203  0.89390  1.0000
  C   C4473     1.0  0.66133  0.81594  0.89410  1.0000
  H   H4447     1.0  0.64707  0.81430  0.92787  1.0000
  H   H4448     1.0  0.65205  0.78974  0.92754  1.0000
  H   H4449     1.0  0.66914  0.79866  0.88445  1.0000
  H   H4450     1.0  0.66405  0.82321  0.88477  1.0000
  C   C4474     1.0  0.50985  0.83385  0.85586  1.0000
  C   C4475     1.0  0.52042  0.84089  0.85319  1.0000
  H   H4451     1.0  0.51174  0.82300  0.86012  1.0000
  H   H4452     1.0  0.53034  0.83550  0.85544  1.0000
  C   C4476     1.0  0.59676  0.88924  0.84435  1.0000
  C   C4477     1.0  0.60640  0.89730  0.83727  1.0000
  C   C4478     1.0  0.60955  0.90591  0.84368  1.0000
  C   C4479     1.0  0.60299  0.90654  0.85722  1.0000
  C   C4480     1.0  0.59347  0.89838  0.86435  1.0000
  C   C4481     1.0  0.59039  0.88970  0.85795  1.0000
  H   H4453     1.0  0.61131  0.89702  0.82671  1.0000
  H   H4454     1.0  0.61684  0.91223  0.83808  1.0000
  H   H4455     1.0  0.58837  0.89881  0.87482  1.0000
  H   H4456     1.0  0.58295  0.88352  0.86348  1.0000
  C   C4482     1.0  0.56776  0.84576  0.90966  1.0000
  C   C4483     1.0  0.58075  0.84907  0.90591  1.0000
  C   C4484     1.0  0.58720  0.84944  0.91610  1.0000
  C   C4485     1.0  0.58058  0.84654  0.92996  1.0000
  C   C4486     1.0  0.56772  0.84319  0.93351  1.0000
  C   C4487     1.0  0.56139  0.84278  0.92347  1.0000
  H   H4457     1.0  0.58568  0.85153  0.89524  1.0000
  H   H4458     1.0  0.59710  0.85215  0.91325  1.0000
  H   H4459     1.0  0.56254  0.84095  0.94413  1.0000
  H   H4460     1.0  0.55140  0.84021  0.92647  1.0000
  C   C4488     1.0  0.59366  0.81123  0.83055  1.0000
  C   C4489     1.0  0.58251  0.81568  0.82417  1.0000
  C   C4490     1.0  0.58326  0.81111  0.81242  1.0000
  C   C4491     1.0  0.59519  0.80222  0.80694  1.0000
  C   C4492     1.0  0.60638  0.79809  0.81322  1.0000
  C   C4493     1.0  0.60563  0.80263  0.82491  1.0000
  H   H4461     1.0  0.57321  0.82236  0.82846  1.0000
  H   H4462     1.0  0.57452  0.81434  0.80765  1.0000
  H   H4463     1.0  0.61553  0.79116  0.80930  1.0000
  H   H4464     1.0  0.61436  0.79945  0.82967  1.0000
  N   N367      1.0  0.59822  0.94452  0.88688  1.0000
  C   C4494     1.0  0.59402  0.93246  0.89213  1.0000
  C   C4495     1.0  0.60561  0.94858  0.89348  1.0000
  C   C4496     1.0  0.59781  0.92376  0.90391  1.0000
  C   C4497     1.0  0.60951  0.94016  0.90534  1.0000
  C   C4498     1.0  0.60564  0.92763  0.91053  1.0000
  C   C4499     1.0  0.59443  0.95326  0.87429  1.0000
  H   H4465     1.0  0.58798  0.92934  0.88700  1.0000
  N   N368      1.0  0.51577  0.86496  0.87878  1.0000
  H   H4466     1.0  0.59484  0.91401  0.90779  1.0000
  H   H4467     1.0  0.80203  0.65948  0.83835  1.0000
  C   C4500     1.0  0.92570  0.64855  0.79983  1.0000
  H   H4468     1.0  0.67542  0.86123  0.98168  1.0000
  C   C4501     1.0  0.60773  0.85249  0.81830  1.0000
  C   C4502     1.0  0.97075  0.66862  0.86774  1.0000
  H   H4469     1.0  0.63562  0.82807  0.78510  1.0000
  C   C4503     1.0  0.82247  0.66492  0.97137  1.0000
  H   H4470     1.0  0.89637  0.60373  0.81036  1.0000
  H   H4471     1.0  0.81081  0.68389  0.79795  1.0000
  C   C4504     1.0  0.66676  0.77450  0.80412  1.0000
  H   H4472     1.0  0.86529  0.49139  0.85734  1.0000
  C   C4505     1.0  0.92959  0.59069  0.82677  1.0000
  H   H4473     1.0  0.93115  0.58160  0.83473  1.0000
  H   H4474     1.0  0.81277  0.50804  0.87511  1.0000
  S   S1522     1.0  0.59549  0.79584  0.79281  1.0000
  H   H4475     1.0  0.59827  0.83668  0.81835  1.0000
  C   C4506     1.0  0.91377  0.60046  0.90157  1.0000
  C   C4507     1.0  0.63457  0.98218  0.86836  1.0000
  H   H4476     1.0  0.80889  0.63887  0.82866  1.0000
  H   H4477     1.0  0.66818  0.81977  0.80376  1.0000
  C   C4508     1.0  0.67460  0.81049  0.80905  1.0000
  C   C4509     1.0  0.50480  0.84605  0.88455  1.0000
  H   H4478     1.0  0.53427  0.86127  0.88574  1.0000
  C   C4510     1.0  0.80935  0.64872  0.82187  1.0000
  N   N369      1.0  0.79211  0.61236  0.87212  1.0000
  C   C4511     1.0  0.80415  0.60444  0.87544  1.0000
  C   C4512     1.0  0.78315  0.62047  0.88059  1.0000
  C   C4513     1.0  0.80742  0.60443  0.88756  1.0000
  C   C4514     1.0  0.78609  0.62066  0.89280  1.0000
  C   C4515     1.0  0.79835  0.61264  0.89627  1.0000
  C   C4516     1.0  0.78920  0.61280  0.85903  1.0000
  H   H4479     1.0  0.81133  0.59809  0.86872  1.0000
  H   H4480     1.0  0.77370  0.62691  0.87789  1.0000
  H   H4481     1.0  0.81698  0.59814  0.89015  1.0000
  H   H4482     1.0  0.77902  0.62720  0.89944  1.0000
  H   H4483     1.0  0.80086  0.61290  0.90561  1.0000
  H   H4484     1.0  0.77794  0.61539  0.85954  1.0000
  H   H4485     1.0  0.79388  0.62067  0.85102  1.0000
  H   H4486     1.0  0.79351  0.60280  0.85595  1.0000
  N   N370      1.0  0.72314  0.73271  0.84265  1.0000
  C   C4517     1.0  0.72003  0.74652  0.84173  1.0000
  C   C4518     1.0  0.73558  0.72500  0.84515  1.0000
  C   C4519     1.0  0.72930  0.75287  0.84378  1.0000
  C   C4520     1.0  0.74510  0.73102  0.84725  1.0000
  C   C4521     1.0  0.74189  0.74504  0.84663  1.0000
  C   C4522     1.0  0.71336  0.72623  0.84034  1.0000
  H   H4487     1.0  0.71031  0.75273  0.83946  1.0000
  H   H4488     1.0  0.73806  0.71405  0.84592  1.0000
  H   H4489     1.0  0.72668  0.76382  0.84319  1.0000
  H   H4490     1.0  0.75474  0.72476  0.84975  1.0000
  H   H4491     1.0  0.74910  0.74980  0.84843  1.0000
  H   H4492     1.0  0.71548  0.72595  0.82939  1.0000
  H   H4493     1.0  0.71402  0.71566  0.84657  1.0000
  H   H4494     1.0  0.70256  0.73180  0.84355  1.0000
  C   C4523     1.0  0.61757  0.85302  0.79067  1.0000
  C   C4524     1.0  0.83941  0.48733  0.88798  1.0000
  S   S1523     1.0  0.78447  0.65579  0.79023  1.0000
  C   C4525     1.0  0.91328  0.65415  0.79546  1.0000
  H   H4495     1.0  0.89328  0.62811  0.97469  1.0000
  C   C4526     1.0  0.84571  0.49704  0.88925  1.0000
  C   C4527     1.0  0.61579  0.86174  0.81040  1.0000
  C   C4528     1.0  0.89836  0.67156  0.97614  1.0000
  C   C4529     1.0  0.69121  0.88287  0.81114  1.0000
  H   H4496     1.0  0.68627  0.87560  0.83807  1.0000
  Fe  Fe764     1.0  0.79153  0.60683  0.78654  1.0000
  H   H4497     1.0  0.63626  0.90085  0.95241  1.0000
  S   S1524     1.0  0.87163  0.66963  0.78773  1.0000
  H   H4498     1.0  0.51078  0.88578  0.88004  1.0000
  C   C4530     1.0  0.67020  0.79744  0.79511  1.0000
  S   S1525     1.0  0.85053  0.62873  0.94875  1.0000
  C   C4531     1.0  0.68360  0.89468  0.84370  1.0000
  H   H4499     1.0  0.67279  0.78743  0.82789  1.0000
  N   N371      1.0  0.68882  0.89177  0.82064  1.0000
  H   H4500     1.0  0.91258  0.58590  0.82246  1.0000
  H   H4501     1.0  0.87485  0.50838  0.86240  1.0000
  N   N372      1.0  0.67169  0.79810  0.80750  1.0000
  C   C4532     1.0  0.93476  0.62232  0.91486  1.0000
  Fe  Fe765     1.0  0.86081  0.65319  0.78948  1.0000
  H   H4502     1.0  0.95200  0.61625  0.89903  1.0000
  C   C4533     1.0  0.81402  0.66222  0.79952  1.0000
  H   H4503     1.0  0.81704  0.66307  0.78857  1.0000
  S   S1526     1.0  0.61798  0.75995  0.78586  1.0000
  H   H4504     1.0  0.90158  0.61877  0.79959  1.0000
  N   N373      1.0  0.60524  0.75262  0.82982  1.0000
  C   C4534     1.0  0.59633  0.76138  0.82216  1.0000
  C   C4535     1.0  0.60603  0.75534  0.84166  1.0000
  C   C4536     1.0  0.58802  0.77328  0.82622  1.0000
  C   C4537     1.0  0.59808  0.76732  0.84586  1.0000
  C   C4538     1.0  0.58899  0.77631  0.83809  1.0000
  C   C4539     1.0  0.61362  0.74006  0.82549  1.0000
  H   H4505     1.0  0.59574  0.75931  0.81273  1.0000
  H   H4506     1.0  0.61321  0.74851  0.84767  1.0000
  H   H4507     1.0  0.58118  0.78033  0.81995  1.0000
  H   H4508     1.0  0.59918  0.76976  0.85492  1.0000
  H   H4509     1.0  0.58295  0.78577  0.84108  1.0000
  H   H4510     1.0  0.60730  0.73232  0.82810  1.0000
  H   H4511     1.0  0.67237  0.81113  0.81993  1.0000
  H   H4512     1.0  0.62263  0.73573  0.83034  1.0000
  S   S1527     1.0  0.86566  0.53710  0.86135  1.0000
  C   C4540     1.0  0.80613  0.67306  0.81882  1.0000
  N   N374      1.0  0.60943  0.84415  0.79846  1.0000
  C   C4541     1.0  0.90266  0.66260  0.80290  1.0000
  H   H4513     1.0  0.84483  0.51854  0.88611  1.0000
  C   C4542     1.0  0.51807  0.85492  0.84772  1.0000
  H   H4514     1.0  0.58383  0.95952  0.87665  1.0000
  H   H4515     1.0  0.96912  0.67512  0.87512  1.0000
  H   H4516     1.0  0.60165  0.96016  0.86899  1.0000
  H   H4517     1.0  0.90900  0.60260  0.79448  1.0000
  S   S1528     1.0  0.68924  0.83850  0.78836  1.0000
  C   C4543     1.0  0.89725  0.66679  0.96532  1.0000
  H   H4518     1.0  0.85999  0.61844  0.79646  1.0000
  H   H4519     1.0  0.68117  0.91516  0.84609  1.0000
  N   N375      1.0  0.61873  0.81225  0.89357  1.0000
  C   C4544     1.0  0.60795  0.81772  0.88715  1.0000
  C   C4545     1.0  0.62827  0.80090  0.89036  1.0000
  C   C4546     1.0  0.60644  0.81167  0.87736  1.0000
  C   C4547     1.0  0.62701  0.79459  0.88065  1.0000
  C   C4548     1.0  0.61607  0.80007  0.87407  1.0000
  C   C4549     1.0  0.62048  0.81898  0.90343  1.0000
  H   H4520     1.0  0.60042  0.82679  0.88958  1.0000
  H   H4521     1.0  0.63691  0.79662  0.89531  1.0000
  H   H4522     1.0  0.59787  0.81595  0.87231  1.0000
  H   H4523     1.0  0.63448  0.78550  0.87821  1.0000
  H   H4524     1.0  0.61509  0.79537  0.86638  1.0000
  H   H4525     1.0  0.62728  0.82629  0.89817  1.0000
  H   H4526     1.0  0.61043  0.82459  0.90859  1.0000
  H   H4527     1.0  0.62523  0.81140  0.91155  1.0000
  N   N376      1.0  0.69514  0.74073  0.91295  1.0000
  C   C4550     1.0  0.70709  0.73092  0.91271  1.0000
  C   C4551     1.0  0.68375  0.73822  0.91074  1.0000
  C   C4552     1.0  0.70773  0.71808  0.91053  1.0000
  C   C4553     1.0  0.68408  0.72557  0.90837  1.0000
  C   C4554     1.0  0.69614  0.71544  0.90833  1.0000
  C   C4555     1.0  0.69462  0.75427  0.91491  1.0000
  H   H4528     1.0  0.71628  0.73300  0.91401  1.0000
  H   H4529     1.0  0.67436  0.74610  0.91064  1.0000
  H   H4530     1.0  0.71731  0.71042  0.91000  1.0000
  H   H4531     1.0  0.67519  0.72375  0.90616  1.0000
  H   H4532     1.0  0.69667  0.70575  0.90602  1.0000
  H   H4533     1.0  0.69495  0.76174  0.90500  1.0000
  H   H4534     1.0  0.68487  0.75785  0.92206  1.0000
  H   H4535     1.0  0.70328  0.75427  0.91922  1.0000
  H   H4536     1.0  0.61793  0.74212  0.81431  1.0000
  C   C4556     1.0  0.91906  0.59322  0.81983  1.0000
  C   C4557     1.0  0.67118  0.78707  0.81816  1.0000
  H   H4537     1.0  0.52670  0.88064  0.86811  1.0000
  S   S1529     1.0  0.62528  0.97224  0.86456  1.0000
  H   H4538     1.0  0.91091  0.62419  0.97660  1.0000
  N   N377      1.0  0.91652  0.60505  0.81037  1.0000
  H   H4539     1.0  0.61408  0.82280  0.97470  1.0000
  C   C4558     1.0  0.64253  0.89450  0.97169  1.0000
  H   H4540     1.0  0.66807  0.76647  0.82513  1.0000
  H   H4541     1.0  0.60886  0.95820  0.88938  1.0000
  H   H4542     1.0  0.62746  0.86883  0.79033  1.0000
  Fe  Fe766     1.0  0.68687  0.85322  0.80143  1.0000
  C   C4559     1.0  0.82177  0.50487  0.87952  1.0000
  H   H4543     1.0  0.97170  0.65783  0.87336  1.0000
  N   N378      1.0  0.87766  0.63848  0.84220  1.0000
  C   C4560     1.0  0.88605  0.64358  0.84665  1.0000
  C   C4561     1.0  0.87099  0.62872  0.85080  1.0000
  C   C4562     1.0  0.88826  0.63864  0.85990  1.0000
  C   C4563     1.0  0.87298  0.62351  0.86413  1.0000
  C   C4564     1.0  0.88172  0.62849  0.86867  1.0000
  C   C4565     1.0  0.87566  0.64375  0.82820  1.0000
  H   H4544     1.0  0.89130  0.65137  0.83990  1.0000
  H   H4545     1.0  0.86445  0.62455  0.84725  1.0000
  H   H4546     1.0  0.89522  0.64252  0.86320  1.0000
  H   H4547     1.0  0.86811  0.61538  0.87071  1.0000
  H   H4548     1.0  0.88357  0.62437  0.87889  1.0000
  H   H4549     1.0  0.87115  0.63693  0.82499  1.0000
  H   H4550     1.0  0.86863  0.65400  0.82736  1.0000
  H   H4551     1.0  0.88566  0.64453  0.82092  1.0000
  N   N379      1.0  0.83150  0.66232  0.88896  1.0000
  C   C4566     1.0  0.84079  0.65557  0.89698  1.0000
  C   C4567     1.0  0.82654  0.65528  0.88280  1.0000
  C   C4568     1.0  0.84566  0.64142  0.89863  1.0000
  C   C4569     1.0  0.83103  0.64113  0.88438  1.0000
  C   C4570     1.0  0.84071  0.63419  0.89228  1.0000
  C   C4571     1.0  0.82630  0.67711  0.88736  1.0000
  H   H4552     1.0  0.84430  0.66106  0.90233  1.0000
  H   H4553     1.0  0.81898  0.66063  0.87670  1.0000
  H   H4554     1.0  0.85296  0.63608  0.90506  1.0000
  H   H4555     1.0  0.82683  0.63557  0.87971  1.0000
  H   H4556     1.0  0.84417  0.62321  0.89367  1.0000
  H   H4557     1.0  0.81580  0.67931  0.89387  1.0000
  H   H4558     1.0  0.83302  0.68196  0.89030  1.0000
  H   H4559     1.0  0.82579  0.68193  0.87655  1.0000
  H   H4560     1.0  0.80807  0.63483  0.80190  1.0000
  H   H4561     1.0  0.68177  0.87911  0.81251  1.0000
  C   C4572     1.0  0.67461  0.91134  0.78363  1.0000
  S   S1530     1.0  0.66822  0.86737  0.79484  1.0000
  N   N380      1.0  0.81373  0.64975  0.80809  1.0000
  H   H4562     1.0  0.93974  0.60321  0.89163  1.0000
  C   C4573     1.0  0.60461  0.84374  0.81213  1.0000
  H   H4563     1.0  0.93418  0.64246  0.79382  1.0000
  H   H4564     1.0  0.84270  0.60523  0.81130  1.0000
  H   H4565     1.0  0.63707  0.90391  0.97505  1.0000
  C   C4574     1.0  0.66861  0.77515  0.81665  1.0000
  H   H4566     1.0  0.61570  0.94323  0.91033  1.0000
  C   C4575     1.0  0.81037  0.67405  0.80475  1.0000
  H   H4567     1.0  0.69388  0.88827  0.80032  1.0000
  H   H4568     1.0  0.91562  0.62745  0.92913  1.0000
  H   H4569     1.0  0.89758  0.68235  0.97516  1.0000
  H   H4570     1.0  0.94548  0.59868  0.82953  1.0000
  Fe  Fe767     1.0  0.63846  0.75896  0.78988  1.0000
  S   S1531     1.0  0.98692  0.63342  0.83778  1.0000
  H   H4571     1.0  0.80338  0.68209  0.82310  1.0000
  N   N381      1.0  0.63785  0.87971  0.87483  1.0000
  C   C4576     1.0  0.63790  0.88267  0.86123  1.0000
  C   C4577     1.0  0.64653  0.86831  0.88030  1.0000
  C   C4578     1.0  0.64671  0.87404  0.85272  1.0000
  C   C4579     1.0  0.65548  0.85945  0.87210  1.0000
  C   C4580     1.0  0.65556  0.86235  0.85821  1.0000
  C   C4581     1.0  0.62859  0.88905  0.88341  1.0000
  H   H4572     1.0  0.63106  0.89175  0.85692  1.0000
  H   H4573     1.0  0.64656  0.86595  0.89107  1.0000
  H   H4574     1.0  0.64659  0.87639  0.84196  1.0000
  H   H4575     1.0  0.66223  0.85036  0.87657  1.0000
  H   H4576     1.0  0.66242  0.85553  0.85173  1.0000
  H   H4577     1.0  0.63210  0.89878  0.88072  1.0000
  H   H4578     1.0  0.61792  0.89128  0.88187  1.0000
  H   H4579     1.0  0.62819  0.88469  0.89443  1.0000
  C   C4582     1.0  0.64872  0.97793  0.86778  1.0000
  S   S1532     1.0  0.79839  0.58732  0.80100  1.0000
  H   H4580     1.0  0.98231  0.63556  0.86606  1.0000
  H   H4581     1.0  0.89325  0.66733  0.79943  1.0000
  S   S1533     1.0  0.63516  0.78128  0.78871  1.0000
  C   C4583     1.0  0.52596  0.84336  0.89140  1.0000
  S   S1534     1.0  0.84020  0.49437  0.84794  1.0000
  H   H4582     1.0  0.66128  0.86053  0.96047  1.0000
  C   C4584     1.0  0.84512  0.60620  0.80029  1.0000
  C   C4585     1.0  0.90534  0.60764  0.80333  1.0000
  C   C4586     1.0  0.83977  0.51088  0.88567  1.0000
  H   H4583     1.0  0.50321  0.87264  0.84060  1.0000
  H   H4584     1.0  0.89572  0.67382  0.95579  1.0000
  N   N382      1.0  0.89956  0.64402  0.97898  1.0000
  H   H4585     1.0  0.67101  0.80603  0.78657  1.0000
  H   H4586     1.0  0.59495  0.94699  0.86700  1.0000
  H   H4587     1.0  0.64870  0.87924  0.94508  1.0000
  C   C4587     1.0  0.82773  0.51485  0.88077  1.0000
  C   C4588     1.0  0.80549  0.66034  0.82743  1.0000
  H   H4588     1.0  0.61810  0.86870  0.81508  1.0000
  S   S1535     1.0  0.77180  0.62263  0.79002  1.0000
  C   C4589     1.0  0.94151  0.61553  0.90424  1.0000
  C   C4590     1.0  0.92111  0.62179  0.92119  1.0000
  H   H4589     1.0  0.68536  0.92485  0.82113  1.0000
  H   H4590     1.0  0.90899  0.60749  0.89322  1.0000
  H   H4591     1.0  0.90555  0.59654  0.90988  1.0000
  C   C4591     1.0  0.84819  0.50623  0.85051  1.0000
  C   C4592     1.0  0.93449  0.60826  0.90007  1.0000
  C   C4593     1.0  0.68627  0.88638  0.83435  1.0000
  C   C4594     1.0  0.65616  0.87010  0.96364  1.0000
  C   C4595     1.0  0.89793  0.65290  0.96691  1.0000
  C   C4596     1.0  0.64204  0.89278  0.95904  1.0000
  H   H4592     1.0  0.61176  0.82408  0.79596  1.0000
  N   N383      1.0  0.65649  0.87183  0.97607  1.0000
  C   C4597     1.0  0.66765  0.78567  0.79324  1.0000
  H   H4593     1.0  0.96135  0.67164  0.86351  1.0000
  Fe  Fe768     1.0  0.61534  0.78265  0.78324  1.0000
  H   H4594     1.0  0.66682  0.98314  0.86955  1.0000
  C   C4598     1.0  0.92465  0.61429  0.80712  1.0000
  H   H4595     1.0  0.82343  0.52559  0.87735  1.0000
  S   S1536     1.0  0.63691  0.83607  0.97632  1.0000
  C   C4599     1.0  0.52596  0.85706  0.88531  1.0000
  C   C4600     1.0  0.50513  0.85971  0.87858  1.0000
  C   C4601     1.0  0.98385  0.66810  0.84429  1.0000
  C   C4602     1.0  0.64996  0.88390  0.98007  1.0000
  C   C4603     1.0  0.60267  0.82624  0.97651  1.0000
  H   H4596     1.0  0.58306  0.84866  0.97139  1.0000
  H   H4597     1.0  0.62409  0.86475  0.97635  1.0000
  C   C4604     1.0  0.58770  0.84852  0.97957  1.0000
  H   H4598     1.0  0.99408  0.67301  0.87009  1.0000
  H   H4599     1.0  0.49704  0.86596  0.87340  1.0000
  H   H4600     1.0  0.49834  0.82807  0.82991  1.0000
  H   H4601     1.0  0.85537  0.49390  0.89256  1.0000
  H   H4602     1.0  0.64786  0.98296  0.83245  1.0000
  C   C4605     1.0  0.99430  0.67230  0.85986  1.0000
  H   H4603     1.0  0.49659  0.84181  0.88391  1.0000
  H   H4604     1.0  0.59493  0.83496  0.79535  1.0000
  H   H4605     1.0  0.82396  0.62602  0.97294  1.0000
  C   C4606     1.0  0.60616  0.83464  0.79238  1.0000
  C   C4607     1.0  0.65584  0.98648  0.87012  1.0000
  H   H4606     1.0  0.81921  0.67308  0.96315  1.0000
  H   H4607     1.0  0.81837  0.64949  0.96403  1.0000
  C   C4608     1.0  0.82742  0.66765  0.98127  1.0000
  H   H4608     1.0  0.82801  0.67798  0.98084  1.0000
  N   N384      1.0  0.82664  0.64107  0.98190  1.0000
