data_image0
_chemical_formula_structural       CHFeS4HC7HSH2CH2C2H2FeCHCHCHFeCHNCHCH2C2HCH4FeH2FeH2NSCH4SC3NC4SH2CSC2H6SHCHSFeCFeS2FeS2C6H4CFeSHC2NH2SCH2CSHCHNHC2HNCH2CFeC2FeHS2CFeHSHCHCHSHC2SCFeH2C2H3C3HC5FeS2HCHN2SHC7H4C4H3C3HC2H3CH2SH2C5HCHSCHSH5CH2NSH3CHFeSCFeHCS2CH5SCHSCFeSCFeS2CHC7H4FeCHFeHCH2CH2C2H3FeCNCH2NHCHSH2CSHNHCSHCH2C5FeS2C3S3H4CFeH2CHCFe2S2CNHSC2FeS2FeS2HSCFeH3C6H4C6H6CH2C4FeCFeH5CHSHCHC2HC2SHCHSH2CH3SNC6H5CH2NC4HCHCH2SCFeCSH3SH3SHNCHFeSH2C3H2C2H2NCHSC3H2FeHCNHC3H3CHNCS2C2H2CS2H2SH2CFeCFeH2Fe2SFeS2FeS2FeS2CFeHCSCHSCHSHFeS2H2SCHC3H2C6H5NCHC6H6C3SC6FeHCHCNHC4FeH2SHCH4NC2NC6H8CH2CHFeC2HSHC2SCNC6H2CHFe2CS2CH2SFeC2HCHC3HNC2H3CH3SHSC3HCNH2SH5CFeH3CFeCH4C2SC2H3SHCS2FeSCFeHSCHCFeS2HSH2SHFeS2C2SCHC7H4C2HC7H4FeCHCFeCH3FeSHSHCNH2SCHSH2CHC2SCHCH2C2HCN2SCNHSHC2H2CSC3H2CH4CHC5NHCH2FeC2FeNC2HCHCSH2CHCHFeCHCSH7CHCH3SCHC2SHCHCHCS2CFeSHSFeHSCS4HFeS2HC2FeHSFeS2FeCSHC6SFe2CHFeS2CSC2H2C6H4C6H4SC2HSCHCSHCFeCSH3CHCH2CNHNCHCHCHC4FeSCFeC3H3CHSCS3HCH4C2HCHNC6H8NHCHC3H2CH2CH3C2FeH2C6H2C2H2C2H2SHC2NHCHCH2CHCHCH4C3HCFeHFeHSHNC2H2C2SNC2HC3FeS2FeSNFeS2CS2HSH2CH2C6H4C6H6C2H3CNHCFeH3C2HSCH3CH4C2H2CSCHC2S2CHCHCH4CH4FeH2S3CH3NCHSC2HCFeSHFeCHCFeCFeC2HSC10NH2NCHC2HCHSH2CFeCHC2HC2H2CH2CS2H2CHC3HC3FeC3HCHS2H3S2FeSHFeS2HCSHS2H2CH2SHFeS2C2HCH2C6H4C6H4CH2CSHC2HC3NH2C5HC2H2NC2H2CSFeSC2HFeHSH2SC2FeHC5H3C3H2CSNH2CH2C4NSCNCH10C2H4C2HCFeH2SCH2C2HC3FeH2FeH2C2HCHSNHC3FeH2CFeC3HCHCHS2C2S2CFeSCFeS2CH2S2CSFeSC2HCH2C7H7C7H4SC2NH5CNSHFeHC4HNH2CHCSHCHCHSHCH3NC3HC3HCHSH3NFeC3HCH2CHSHCH3CH3FeH2CH5C2H3CHCHC4H3SCSFeH3FeHCSCFeCH2C4HS2H2CHCSFeNSCHNCHCHCHSC2H3C3SH3C2SHFeSCFeS2C3FeC6H5CSHC6H5C2HNHCH3CHCH2CNHSCHSCH3SFeCH4CS2CHCHCFeH2FeHCNCHSCSC3HSH2C3HCHFeHCFeCNHCHC2SC2SHC3H4NC3H3SCSHCH2FeHCH2NH2SCHCHC4HCFeHCHCSCHCFeS2FeSH2C6FeH2CHC2HCHSH2C3H3FeHSCH4CSCNCHCSC2HFe2S2HS2HSCSHCH2C4HCFeS2HSNFeSFe2SCFe2S2FeS2H3SHC5H3SC5H4C2SH3FeHC4H2FeH2CFeCHNC2H2C3SH3CNH3SC2SH2FeSH2CHC5H2C5FeSHCS2C2FeCHNFe2HSCSCSHS2CHC2HC2HC3H2C2HCH2S2H5C2H3CH3C2HCSCHNCHC3HNH2CHC2Fe2C2HSH2FeNCS2FeSC7H2SC3H2SC2HCH2CSCHFeH2SHCHSCFeCHSH2CHSCH2SCH2CHNH3CHCH
_chemical_formula_sum              "C864 H864 Fe144 S288 N72"
_cell_length_a       63.9866
_cell_length_b       64.0816
_cell_length_c       63.9527
_cell_angle_alpha    88.3144
_cell_angle_beta     88.2947
_cell_angle_gamma    88.3555

_space_group_name_H-M_alt    "P 1"
_space_group_IT_number       1

loop_
  _space_group_symop_operation_xyz
  'x, y, z'

loop_
  _atom_site_type_symbol
  _atom_site_label
  _atom_site_symmetry_multiplicity
  _atom_site_fract_x
  _atom_site_fract_y
  _atom_site_fract_z
  _atom_site_occupancy
  C   C1        1.0  0.16338  0.35693  0.44154  1.0000
  H   H1        1.0  0.01803  0.28883  0.47803  1.0000
  Fe  Fe1       1.0  0.18214  0.46828  0.39148  1.0000
  S   S1        1.0  0.18198  0.45564  0.35908  1.0000
  S   S2        1.0  0.17626  0.45145  0.42281  1.0000
  S   S3        1.0  0.03132  0.46831  0.33095  1.0000
  S   S4        1.0  0.21563  0.36605  0.45883  1.0000
  H   H2        1.0  0.10042  0.30126  0.45818  1.0000
  C   C2        1.0  0.09312  0.46394  0.31663  1.0000
  C   C3        1.0  0.18865  0.42841  0.43280  1.0000
  C   C4        1.0  0.20337  0.41684  0.42101  1.0000
  C   C5        1.0  0.21178  0.39788  0.42928  1.0000
  C   C6        1.0  0.20536  0.39027  0.44922  1.0000
  C   C7        1.0  0.19069  0.40190  0.46098  1.0000
  C   C8        1.0  0.18248  0.42092  0.45284  1.0000
  H   H3        1.0  0.20824  0.42248  0.40556  1.0000
  S   S5        1.0  0.23527  0.46922  0.33030  1.0000
  H   H4        1.0  0.18584  0.39638  0.47644  1.0000
  H   H5        1.0  0.17112  0.42981  0.46205  1.0000
  C   C9        1.0  0.12873  0.40395  0.45038  1.0000
  H   H6        1.0  0.04920  0.34035  0.48707  1.0000
  H   H7        1.0  0.13582  0.37520  0.46726  1.0000
  C   C10       1.0  0.14652  0.40818  0.41681  1.0000
  C   C11       1.0  0.13277  0.41594  0.43221  1.0000
  H   H8        1.0  0.07607  0.31953  0.43598  1.0000
  H   H9        1.0  0.17105  0.35677  0.45685  1.0000
  Fe  Fe2       1.0  0.20616  0.47978  0.35011  1.0000
  C   C12       1.0  0.03060  0.29546  0.46846  1.0000
  H   H10       1.0  0.05939  0.47947  0.36542  1.0000
  C   C13       1.0  0.20954  0.46468  0.27849  1.0000
  H   H11       1.0  0.19713  0.42637  0.31323  1.0000
  C   C14       1.0  0.05891  0.46812  0.33402  1.0000
  H   H12       1.0  0.01048  0.31710  0.45142  1.0000
  Fe  Fe3       1.0  0.00369  0.47397  0.35352  1.0000
  C   C15       1.0  0.15649  0.38869  0.42003  1.0000
  H   H13       1.0  0.22654  0.41763  0.28281  1.0000
  N   N1        1.0  0.15262  0.37715  0.43800  1.0000
  C   C16       1.0  0.17529  0.47151  0.29405  1.0000
  H   H14       1.0  0.16131  0.48138  0.29594  1.0000
  C   C17       1.0  0.13878  0.38440  0.45299  1.0000
  H   H15       1.0  0.16792  0.38326  0.40841  1.0000
  H   H16       1.0  0.05437  0.27649  0.48324  1.0000
  C   C18       1.0  0.05125  0.28847  0.47131  1.0000
  C   C19       1.0  0.08291  0.33776  0.48627  1.0000
  H   H17       1.0  0.08458  0.34815  0.47272  1.0000
  C   C20       1.0  0.09096  0.47655  0.35186  1.0000
  H   H18       1.0  0.12575  0.43148  0.43024  1.0000
  H   H19       1.0  0.15032  0.41776  0.40300  1.0000
  H   H20       1.0  0.06402  0.45692  0.30285  1.0000
  H   H21       1.0  0.15205  0.34412  0.44169  1.0000
  Fe  Fe4       1.0  0.15773  0.48100  0.35239  1.0000
  H   H22       1.0  0.16456  0.44800  0.31626  1.0000
  H   H23       1.0  0.17602  0.35391  0.42961  1.0000
  Fe  Fe5       1.0  0.19956  0.34876  0.48601  1.0000
  H   H24       1.0  0.09141  0.28516  0.47951  1.0000
  H   H25       1.0  0.10225  0.45970  0.30280  1.0000
  N   N2        1.0  0.21136  0.44651  0.29017  1.0000
  S   S6        1.0  0.13072  0.47424  0.33126  1.0000
  C   C21       1.0  0.23036  0.43323  0.28849  1.0000
  H   H26       1.0  0.03965  0.33263  0.43060  1.0000
  H   H27       1.0  0.09193  0.27519  0.45329  1.0000
  H   H28       1.0  0.11823  0.40993  0.46256  1.0000
  H   H29       1.0  0.22323  0.38901  0.42015  1.0000
  S   S7        1.0  0.18591  0.31818  0.47797  1.0000
  C   C22       1.0  0.04285  0.32007  0.44194  1.0000
  C   C23       1.0  0.06334  0.31261  0.44509  1.0000
  C   C24       1.0  0.02641  0.31138  0.45369  1.0000
  N   N3        1.0  0.06732  0.29715  0.45979  1.0000
  C   C25       1.0  0.10317  0.47122  0.33401  1.0000
  C   C26       1.0  0.06880  0.47498  0.35187  1.0000
  C   C27       1.0  0.07135  0.46231  0.31667  1.0000
  C   C28       1.0  0.19550  0.44053  0.30364  1.0000
  S   S8        1.0  0.12541  0.33154  0.48186  1.0000
  H   H30       1.0  0.09851  0.48214  0.36545  1.0000
  H   H31       1.0  0.22222  0.46960  0.26800  1.0000
  C   C29       1.0  0.08880  0.28924  0.46274  1.0000
  S   S9        1.0  0.00783  0.48850  0.38431  1.0000
  C   C30       1.0  0.17714  0.45278  0.30557  1.0000
  C   C31       1.0  0.19159  0.47757  0.28042  1.0000
  H   H32       1.0  0.99237  0.41951  0.39855  1.0000
  H   H33       1.0  0.99176  0.38088  0.40252  1.0000
  H   H34       1.0  0.23756  0.43138  0.30409  1.0000
  H   H35       1.0  0.22219  0.34659  0.57787  1.0000
  H   H36       1.0  0.03052  0.43212  0.54933  1.0000
  H   H37       1.0  0.16415  0.42880  0.70764  1.0000
  S   S10       1.0  0.03506  0.31125  0.52041  1.0000
  H   H38       1.0  0.05102  0.34931  0.54916  1.0000
  C   C32       1.0  0.03899  0.39634  0.58862  1.0000
  H   H39       1.0  0.12704  0.43893  0.70239  1.0000
  S   S11       1.0  0.17055  0.36040  0.50294  1.0000
  Fe  Fe6       1.0  0.19963  0.30573  0.50805  1.0000
  C   C33       1.0  0.15885  0.44489  0.70949  1.0000
  Fe  Fe7       1.0  0.18449  0.34493  0.53139  1.0000
  S   S12       1.0  0.17737  0.35764  0.56367  1.0000
  S   S13       1.0  0.16975  0.31401  0.52631  1.0000
  Fe  Fe8       1.0  0.20250  0.45470  0.62990  1.0000
  S   S14       1.0  0.21939  0.43361  0.60656  1.0000
  S   S15       1.0  0.18802  0.44985  0.66222  1.0000
  C   C34       1.0  0.18831  0.38003  0.57408  1.0000
  C   C35       1.0  0.20677  0.38847  0.56572  1.0000
  C   C36       1.0  0.21602  0.40506  0.57571  1.0000
  C   C37       1.0  0.20663  0.41365  0.59379  1.0000
  C   C38       1.0  0.18783  0.40563  0.60174  1.0000
  C   C39       1.0  0.17887  0.38872  0.59207  1.0000
  H   H40       1.0  0.21419  0.38191  0.55189  1.0000
  H   H41       1.0  0.10135  0.47869  0.72148  1.0000
  H   H42       1.0  0.18050  0.41206  0.61569  1.0000
  H   H43       1.0  0.16463  0.38223  0.59867  1.0000
  C   C40       1.0  0.06024  0.31917  0.51130  1.0000
  Fe  Fe9       1.0  0.20485  0.47863  0.67141  1.0000
  S   S16       1.0  0.21994  0.48637  0.70263  1.0000
  H   H44       1.0  0.23059  0.41117  0.56950  1.0000
  C   C41       1.0  0.09841  0.31481  0.51251  1.0000
  C   C42       1.0  0.07820  0.31013  0.52044  1.0000
  N   N4        1.0  0.21323  0.29664  0.56585  1.0000
  H   H45       1.0  0.18945  0.45584  0.71619  1.0000
  H   H46       1.0  0.11205  0.30729  0.51934  1.0000
  S   S17       1.0  0.21509  0.33578  0.51516  1.0000
  C   C43       1.0  0.10359  0.47176  0.65299  1.0000
  H   H47       1.0  0.07648  0.29912  0.53350  1.0000
  H   H48       1.0  0.02357  0.35342  0.54419  1.0000
  C   C44       1.0  0.17306  0.46007  0.71417  1.0000
  S   S18       1.0  0.21385  0.27234  0.51198  1.0000
  H   H49       1.0  0.10081  0.46509  0.69717  1.0000
  C   C45       1.0  0.06576  0.46644  0.65229  1.0000
  H   H50       1.0  0.03428  0.42977  0.58795  1.0000
  N   N5        1.0  0.03849  0.37986  0.55534  1.0000
  H   H51       1.0  0.22138  0.46746  0.56408  1.0000
  C   C46       1.0  0.03586  0.41581  0.57873  1.0000
  C   C47       1.0  0.10912  0.47698  0.70586  1.0000
  H   H52       1.0  0.18103  0.28876  0.56801  1.0000
  N   N6        1.0  0.13128  0.47115  0.70813  1.0000
  C   C48       1.0  0.20980  0.31606  0.57381  1.0000
  H   H53       1.0  0.19760  0.27046  0.55453  1.0000
  H   H54       1.0  0.04321  0.36403  0.52644  1.0000
  C   C49       1.0  0.19685  0.28111  0.56798  1.0000
  Fe  Fe10      1.0  0.00632  0.48308  0.64479  1.0000
  C   C50       1.0  0.08652  0.45841  0.65250  1.0000
  C   C51       1.0  0.06276  0.33337  0.49443  1.0000
  Fe  Fe11      1.0  0.16237  0.47214  0.65076  1.0000
  H   H55       1.0  0.19872  0.27175  0.58271  1.0000
  S   S19       1.0  0.17611  0.47491  0.61805  1.0000
  S   S20       1.0  0.22126  0.48151  0.64007  1.0000
  C   C52       1.0  0.06174  0.48797  0.65315  1.0000
  Fe  Fe12      1.0  0.15751  0.32911  0.49678  1.0000
  H   H56       1.0  0.19489  0.32021  0.58135  1.0000
  S   S21       1.0  0.00860  0.46570  0.61498  1.0000
  H   H57       1.0  0.03238  0.39996  0.52885  1.0000
  C   C53       1.0  0.14513  0.48613  0.71269  1.0000
  H   H58       1.0  0.22912  0.22979  0.51629  1.0000
  C   C54       1.0  0.03495  0.39887  0.54556  1.0000
  H   H59       1.0  0.05284  0.45591  0.65226  1.0000
  S   S22       1.0  0.00733  0.35794  0.49292  1.0000
  H   H60       1.0  0.08936  0.44168  0.65262  1.0000
  C   C55       1.0  0.03382  0.41714  0.55706  1.0000
  C   C56       1.0  0.03908  0.36078  0.54321  1.0000
  S   S23       1.0  0.12907  0.46045  0.65642  1.0000
  C   C57       1.0  0.04026  0.37840  0.57661  1.0000
  Fe  Fe13      1.0  0.00469  0.32723  0.50986  1.0000
  H   H61       1.0  0.03983  0.39514  0.60555  1.0000
  H   H62       1.0  0.04234  0.36327  0.58444  1.0000
  C   C58       1.0  0.13788  0.45072  0.70658  1.0000
  C   C59       1.0  0.22526  0.33105  0.57196  1.0000
  H   H63       1.0  0.19501  0.46530  0.57406  1.0000
  H   H64       1.0  0.23510  0.27576  0.55093  1.0000
  H   H65       1.0  0.22119  0.48463  0.53114  1.0000
  C   C60       1.0  0.23220  0.29132  0.55678  1.0000
  C   C61       1.0  0.10084  0.32834  0.49508  1.0000
  C   C62       1.0  0.16620  0.48083  0.71574  1.0000
  H   H66       1.0  0.21263  0.48295  0.58561  1.0000
  C   C63       1.0  0.23974  0.26101  0.50975  1.0000
  C   C64       1.0  0.20773  0.47647  0.57061  1.0000
  C   C65       1.0  0.08812  0.67007  0.47694  1.0000
  C   C66       1.0  0.07524  0.62231  0.45131  1.0000
  C   C67       1.0  0.05310  0.53204  0.36259  1.0000
  Fe  Fe14      1.0  0.18209  0.51328  0.37530  1.0000
  S   S24       1.0  0.18181  0.50429  0.34138  1.0000
  S   S25       1.0  0.17994  0.54709  0.38513  1.0000
  H   H67       1.0  0.06201  0.52722  0.29627  1.0000
  C   C68       1.0  0.11131  0.60859  0.45509  1.0000
  H   H68       1.0  0.21884  0.57772  0.39238  1.0000
  N   N7        1.0  0.08861  0.60585  0.45589  1.0000
  N   N8        1.0  0.05085  0.52068  0.32725  1.0000
  S   S26       1.0  0.18502  0.63177  0.47648  1.0000
  H   H69       1.0  0.02020  0.51991  0.31510  1.0000
  C   C69       1.0  0.05933  0.58392  0.46360  1.0000
  C   C70       1.0  0.18139  0.55207  0.41208  1.0000
  C   C71       1.0  0.18957  0.53701  0.42607  1.0000
  C   C72       1.0  0.19293  0.54213  0.44692  1.0000
  C   C73       1.0  0.18795  0.56225  0.45400  1.0000
  C   C74       1.0  0.17898  0.57710  0.44025  1.0000
  C   C75       1.0  0.17576  0.57202  0.41933  1.0000
  H   H70       1.0  0.19387  0.52158  0.42068  1.0000
  H   H71       1.0  0.19980  0.53053  0.45747  1.0000
  H   H72       1.0  0.17512  0.59266  0.44554  1.0000
  H   H73       1.0  0.16941  0.58372  0.40856  1.0000
  C   C76       1.0  0.08093  0.58687  0.46210  1.0000
  C   C77       1.0  0.00340  0.53582  0.43984  1.0000
  C   C78       1.0  0.01961  0.53112  0.34639  1.0000
  C   C79       1.0  0.06099  0.51386  0.30766  1.0000
  H   H74       1.0  0.19045  0.49225  0.27161  1.0000
  H   H75       1.0  0.07951  0.52246  0.34330  1.0000
  H   H76       1.0  0.00276  0.53355  0.34710  1.0000
  C   C80       1.0  0.23167  0.57084  0.42265  1.0000
  C   C81       1.0  0.00039  0.55570  0.44796  1.0000
  C   C82       1.0  0.04562  0.60060  0.45894  1.0000
  H   H77       1.0  0.09152  0.57393  0.46606  1.0000
  C   C83       1.0  0.06265  0.52496  0.34404  1.0000
  C   C84       1.0  0.02959  0.52363  0.32826  1.0000
  H   H78       1.0  0.01064  0.52341  0.44919  1.0000
  H   H79       1.0  0.07701  0.50727  0.31027  1.0000
  H   H80       1.0  0.21193  0.61527  0.39963  1.0000
  C   C85       1.0  0.06629  0.67081  0.47929  1.0000
  H   H81       1.0  0.11559  0.62372  0.44735  1.0000
  H   H82       1.0  0.06243  0.53494  0.37604  1.0000
  S   S27       1.0  0.00743  0.55974  0.47376  1.0000
  H   H83       1.0  0.11940  0.59588  0.44628  1.0000
  H   H84       1.0  0.02374  0.54070  0.37796  1.0000
  C   C86       1.0  0.03144  0.53523  0.36369  1.0000
  C   C87       1.0  0.21905  0.60504  0.41138  1.0000
  C   C88       1.0  0.10006  0.65387  0.48619  1.0000
  C   C89       1.0  0.05356  0.61995  0.45283  1.0000
  C   C90       1.0  0.22310  0.58402  0.40722  1.0000
  H   H85       1.0  0.04299  0.63323  0.44994  1.0000
  C   C91       1.0  0.99617  0.53159  0.42001  1.0000
  H   H86       1.0  0.09583  0.68224  0.46778  1.0000
  S   S28       1.0  0.19484  0.56871  0.47950  1.0000
  C   C92       1.0  0.22376  0.61261  0.43097  1.0000
  H   H87       1.0  0.02887  0.59856  0.46031  1.0000
  S   S29       1.0  0.12740  0.65342  0.48018  1.0000
  H   H88       1.0  0.08125  0.63757  0.44707  1.0000
  H   H89       1.0  0.11729  0.60858  0.47124  1.0000
  H   H90       1.0  0.05749  0.68361  0.47204  1.0000
  H   H91       1.0  0.22985  0.50517  0.30064  1.0000
  H   H92       1.0  0.05316  0.56890  0.46856  1.0000
  C   C93       1.0  0.23733  0.60752  0.46644  1.0000
  H   H93       1.0  0.22039  0.62892  0.43414  1.0000
  H   H94       1.0  0.23407  0.55431  0.41982  1.0000
  N   N9        1.0  0.23218  0.59954  0.44601  1.0000
  S   S30       1.0  0.15622  0.49199  0.38523  1.0000
  H   H95       1.0  0.23229  0.62416  0.46818  1.0000
  H   H96       1.0  0.05196  0.50125  0.30084  1.0000
  H   H97       1.0  0.22936  0.59829  0.47916  1.0000
  C   C94       1.0  0.23607  0.57889  0.44210  1.0000
  H   H98       1.0  0.99765  0.51595  0.41446  1.0000
  Fe  Fe15      1.0  0.99347  0.58871  0.48791  1.0000
  S   S31       1.0  0.20810  0.49044  0.38352  1.0000
  C   C95       1.0  0.05571  0.65509  0.49051  1.0000
  Fe  Fe16      1.0  0.00347  0.63278  0.49829  1.0000
  H   H99       1.0  0.01903  0.58667  0.56329  1.0000
  C   C96       1.0  0.22805  0.61431  0.57683  1.0000
  S   S32       1.0  0.01097  0.60200  0.51396  1.0000
  S   S33       1.0  0.17826  0.50076  0.66174  1.0000
  C   C97       1.0  0.02272  0.56122  0.60985  1.0000
  H   H100      1.0  0.23687  0.73173  0.52417  1.0000
  H   H101      1.0  0.21874  0.69893  0.51720  1.0000
  H   H102      1.0  0.01105  0.59565  0.58841  1.0000
  H   H103      1.0  0.17829  0.50532  0.57881  1.0000
  H   H104      1.0  0.02890  0.51457  0.57320  1.0000
  S   S34       1.0  0.20637  0.52581  0.60619  1.0000
  C   C98       1.0  0.02404  0.54091  0.61845  1.0000
  H   H105      1.0  0.19925  0.62403  0.59216  1.0000
  S   S35       1.0  0.15464  0.60506  0.50964  1.0000
  C   C99       1.0  0.07880  0.50137  0.65343  1.0000
  Fe  Fe17      1.0  0.20225  0.64317  0.50416  1.0000
  S   S36       1.0  0.20455  0.61082  0.51894  1.0000
  C   C100      1.0  0.21119  0.62823  0.58049  1.0000
  Fe  Fe18      1.0  0.17369  0.61804  0.53483  1.0000
  S   S37       1.0  0.16516  0.60923  0.56842  1.0000
  S   S38       1.0  0.17245  0.65133  0.52234  1.0000
  C   C101      1.0  0.02761  0.52765  0.58360  1.0000
  H   H106      1.0  0.18208  0.53915  0.51989  1.0000
  C   C102      1.0  0.17814  0.52359  0.55011  1.0000
  C   C103      1.0  0.19368  0.54836  0.59578  1.0000
  C   C104      1.0  0.17581  0.55743  0.60526  1.0000
  C   C105      1.0  0.16697  0.57606  0.59668  1.0000
  C   C106      1.0  0.17559  0.58526  0.57830  1.0000
  C   C107      1.0  0.19306  0.57578  0.56855  1.0000
  C   C108      1.0  0.20228  0.55764  0.57747  1.0000
  H   H107      1.0  0.16915  0.55043  0.61946  1.0000
  H   H108      1.0  0.15346  0.58336  0.60434  1.0000
  H   H109      1.0  0.19984  0.58267  0.55443  1.0000
  H   H110      1.0  0.21611  0.55067  0.57007  1.0000
  Fe  Fe19      1.0  0.18543  0.60019  0.49259  1.0000
  C   C109      1.0  0.02653  0.52407  0.60521  1.0000
  H   H111      1.0  0.02076  0.57424  0.62024  1.0000
  Fe  Fe20      1.0  0.15530  0.63755  0.49586  1.0000
  H   H112      1.0  0.09871  0.62551  0.50519  1.0000
  C   C110      1.0  0.23532  0.70002  0.51373  1.0000
  H   H113      1.0  0.23827  0.50276  0.73906  1.0000
  H   H114      1.0  0.05951  0.62647  0.50879  1.0000
  C   C111      1.0  0.08970  0.63816  0.49798  1.0000
  H   H115      1.0  0.19368  0.66870  0.58848  1.0000
  H   H116      1.0  0.02715  0.55080  0.55869  1.0000
  C   C112      1.0  0.22449  0.65191  0.55446  1.0000
  C   C113      1.0  0.06748  0.63865  0.49995  1.0000
  H   H117      1.0  0.16633  0.53471  0.55581  1.0000
  H   H118      1.0  0.11253  0.50384  0.65360  1.0000
  H   H119      1.0  0.17679  0.65219  0.57442  1.0000
  Fe  Fe21      1.0  0.19404  0.50163  0.62966  1.0000
  C   C114      1.0  0.19161  0.66091  0.57344  1.0000
  N   N10       1.0  0.02385  0.56461  0.58862  1.0000
  C   C115      1.0  0.02643  0.54817  0.57552  1.0000
  H   H120      1.0  0.02310  0.53816  0.63529  1.0000
  H   H121      1.0  0.22903  0.59951  0.58552  1.0000
  N   N11       1.0  0.20942  0.64661  0.56915  1.0000
  H   H122      1.0  0.07589  0.51804  0.65419  1.0000
  C   C116      1.0  0.02326  0.58608  0.58005  1.0000
  H   H123      1.0  0.18982  0.67308  0.56081  1.0000
  S   S39       1.0  0.23426  0.65881  0.49976  1.0000
  H   H124      1.0  0.22324  0.66651  0.54548  1.0000
  H   H125      1.0  0.02751  0.50827  0.61170  1.0000
  C   C117      1.0  0.18705  0.52615  0.53005  1.0000
  S   S40       1.0  0.03577  0.49863  0.65555  1.0000
  H   H126      1.0  0.03871  0.59325  0.58150  1.0000
  N   N12       1.0  0.20052  0.49339  0.55639  1.0000
  H   H127      1.0  0.13996  0.50233  0.71378  1.0000
  C   C118      1.0  0.18503  0.50698  0.56310  1.0000
  S   S41       1.0  0.02791  0.65725  0.49159  1.0000
  H   H128      1.0  0.17729  0.49277  0.71898  1.0000
  C   C119      1.0  0.20252  0.51195  0.52315  1.0000
  H   H129      1.0  0.10741  0.49189  0.69667  1.0000
  H   H130      1.0  0.20941  0.51376  0.50750  1.0000
  C   C120      1.0  0.09962  0.49335  0.65304  1.0000
  C   C121      1.0  0.20910  0.49554  0.53660  1.0000
  C   C122      1.0  0.47642  0.26866  0.26527  1.0000
  C   C123      1.0  0.46954  0.05703  0.34729  1.0000
  C   C124      1.0  0.46003  0.47819  0.02231  1.0000
  Fe  Fe22      1.0  0.45454  0.34943  0.00496  1.0000
  S   S42       1.0  0.42059  0.35773  0.01001  1.0000
  S   S43       1.0  0.46951  0.31730  0.00715  1.0000
  C   C125      1.0  0.27971  0.21772  0.45983  1.0000
  C   C126      1.0  0.44635  0.29157  0.09305  1.0000
  C   C127      1.0  0.47377  0.09494  0.34771  1.0000
  S   S44       1.0  0.31948  0.17077  0.48505  1.0000
  S   S45       1.0  0.36825  0.47738  0.19607  1.0000
  S   S46       1.0  0.49048  0.34563  0.23718  1.0000
  H   H131      1.0  0.34573  0.07325  0.47014  1.0000
  H   H132      1.0  0.41684  0.01267  0.46159  1.0000
  H   H133      1.0  0.35398  0.40217  0.99542  1.0000
  H   H134      1.0  0.44409  0.07992  0.34717  1.0000
  C   C128      1.0  0.41475  0.42872  0.00990  1.0000
  Fe  Fe23      1.0  0.47723  0.15104  0.35281  1.0000
  H   H135      1.0  0.33093  0.18492  0.41951  1.0000
  H   H136      1.0  0.49080  0.10274  0.27987  1.0000
  C   C129      1.0  0.30622  0.20008  0.43776  1.0000
  H   H137      1.0  0.35679  0.21180  0.42620  1.0000
  C   C130      1.0  0.47382  0.17422  0.28991  1.0000
  Fe  Fe24      1.0  0.47758  0.31555  0.22623  1.0000
  Fe  Fe25      1.0  0.46889  0.18926  0.37937  1.0000
  S   S47       1.0  0.44965  0.20596  0.40445  1.0000
  S   S48       1.0  0.46038  0.18214  0.34642  1.0000
  C   C131      1.0  0.32886  0.47140  0.08672  1.0000
  N   N13       1.0  0.39681  0.01803  0.41326  1.0000
  H   H138      1.0  0.40089  0.03695  0.38572  1.0000
  S   S49       1.0  0.47156  0.99927  0.38687  1.0000
  C   C132      1.0  0.34428  0.48622  0.08853  1.0000
  C   C133      1.0  0.47733  0.33106  0.12294  1.0000
  Fe  Fe26      1.0  0.46733  0.36231  0.21630  1.0000
  S   S50       1.0  0.45305  0.39357  0.22587  1.0000
  S   S51       1.0  0.45272  0.33268  0.20719  1.0000
  Fe  Fe27      1.0  0.34858  0.45452  0.21416  1.0000
  S   S52       1.0  0.35769  0.42015  0.21321  1.0000
  S   S53       1.0  0.31816  0.46620  0.20042  1.0000
  H   H139      1.0  0.34650  0.24178  0.44855  1.0000
  S   S54       1.0  0.36579  0.16707  0.44241  1.0000
  C   C134      1.0  0.39809  0.41674  0.01752  1.0000
  Fe  Fe28      1.0  0.48881  0.99811  0.35598  1.0000
  H   H140      1.0  0.45214  0.29835  0.29802  1.0000
  H   H141      1.0  0.36433  0.01921  0.40653  1.0000
  H   H142      1.0  0.42013  0.01594  0.38859  1.0000
  C   C135      1.0  0.42634  0.40039  0.22288  1.0000
  C   C136      1.0  0.41983  0.42140  0.22468  1.0000
  C   C137      1.0  0.39879  0.42758  0.22197  1.0000
  C   C138      1.0  0.38403  0.41273  0.21768  1.0000
  C   C139      1.0  0.39045  0.39165  0.21627  1.0000
  C   C140      1.0  0.41157  0.38550  0.21870  1.0000
  H   H143      1.0  0.43112  0.43300  0.22803  1.0000
  H   H144      1.0  0.39400  0.44383  0.22324  1.0000
  H   H145      1.0  0.37908  0.38007  0.21309  1.0000
  H   H146      1.0  0.41639  0.36925  0.21747  1.0000
  C   C141      1.0  0.42692  0.19429  0.41540  1.0000
  C   C142      1.0  0.41762  0.17773  0.40577  1.0000
  C   C143      1.0  0.39900  0.16941  0.41433  1.0000
  C   C144      1.0  0.38979  0.17723  0.43282  1.0000
  C   C145      1.0  0.39930  0.19354  0.44268  1.0000
  C   C146      1.0  0.41768  0.20216  0.43387  1.0000
  H   H147      1.0  0.42456  0.17156  0.39152  1.0000
  H   H148      1.0  0.39172  0.15683  0.40659  1.0000
  H   H149      1.0  0.39234  0.19971  0.45690  1.0000
  H   H150      1.0  0.42477  0.21497  0.44141  1.0000
  H   H151      1.0  0.31394  0.46673  0.13861  1.0000
  H   H152      1.0  0.38698  0.38558  0.02366  1.0000
  C   C147      1.0  0.40527  0.01461  0.44959  1.0000
  H   H153      1.0  0.44634  0.42804  0.99735  1.0000
  H   H154      1.0  0.47684  0.42173  0.04710  1.0000
  C   C148      1.0  0.40336  0.02049  0.39118  1.0000
  C   C149      1.0  0.46290  0.25756  0.27913  1.0000
  C   C150      1.0  0.45784  0.16040  0.29485  1.0000
  C   C151      1.0  0.38403  0.01442  0.45509  1.0000
  Fe  Fe29      1.0  0.37918  0.46797  0.00760  1.0000
  C   C152      1.0  0.33869  0.07418  0.48568  1.0000
  Fe  Fe30      1.0  0.33723  0.47262  0.03093  1.0000
  H   H155      1.0  0.47528  0.42641  0.24708  1.0000
  H   H156      1.0  0.37901  0.01278  0.47139  1.0000
  H   H157      1.0  0.47046  0.19091  0.28869  1.0000
  H   H158      1.0  0.43199  0.29870  0.08728  1.0000
  H   H159      1.0  0.44643  0.26188  0.27979  1.0000
  C   C153      1.0  0.37593  0.01795  0.41855  1.0000
  H   H160      1.0  0.29529  0.18779  0.43543  1.0000
  S   S55       1.0  0.46601  0.29038  0.25027  1.0000
  H   H161      1.0  0.29304  0.46391  0.27768  1.0000
  C   C154      1.0  0.39996  0.39486  0.01805  1.0000
  H   H162      1.0  0.47644  0.41537  0.01979  1.0000
  C   C155      1.0  0.31850  0.46391  0.10506  1.0000
  C   C156      1.0  0.41143  0.01654  0.42846  1.0000
  H   H163      1.0  0.30654  0.45243  0.10388  1.0000
  C   C157      1.0  0.41864  0.38500  0.01126  1.0000
  C   C158      1.0  0.27937  0.47303  0.28261  1.0000
  S   S56       1.0  0.34515  0.47408  0.24277  1.0000
  H   H164      1.0  0.35176  0.43337  0.14351  1.0000
  C   C159      1.0  0.32274  0.47192  0.12480  1.0000
  H   H165      1.0  0.31051  0.24460  0.46357  1.0000
  S   S57       1.0  0.46343  0.32954  0.14742  1.0000
  H   H166      1.0  0.43619  0.29366  0.12552  1.0000
  H   H167      1.0  0.44989  0.38971  0.99887  1.0000
  C   C160      1.0  0.26810  0.46733  0.30119  1.0000
  H   H168      1.0  0.46677  0.33998  0.07115  1.0000
  H   H169      1.0  0.33888  0.10797  0.48564  1.0000
  H   H170      1.0  0.45040  0.34324  0.10663  1.0000
  S   S58       1.0  0.32039  0.46381  0.06185  1.0000
  N   N14       1.0  0.37916  0.42774  0.16121  1.0000
  C   C161      1.0  0.39699  0.43788  0.16559  1.0000
  C   C162      1.0  0.37909  0.40638  0.16147  1.0000
  C   C163      1.0  0.41549  0.42659  0.16991  1.0000
  C   C164      1.0  0.39739  0.39462  0.16546  1.0000
  C   C165      1.0  0.41569  0.40483  0.16970  1.0000
  C   C166      1.0  0.35970  0.43962  0.15712  1.0000
  H   H171      1.0  0.39692  0.45478  0.16606  1.0000
  H   H172      1.0  0.36473  0.39835  0.15897  1.0000
  H   H173      1.0  0.42944  0.43461  0.17395  1.0000
  H   H174      1.0  0.39724  0.37768  0.16601  1.0000
  H   H175      1.0  0.42980  0.39586  0.17357  1.0000
  C   C167      1.0  0.36923  0.01611  0.43953  1.0000
  H   H176      1.0  0.34901  0.43861  0.17112  1.0000
  H   H177      1.0  0.36255  0.45640  0.15344  1.0000
  N   N15       1.0  0.30059  0.21674  0.44979  1.0000
  C   C168      1.0  0.31476  0.23169  0.45355  1.0000
  C   C169      1.0  0.33514  0.23024  0.44505  1.0000
  C   C170      1.0  0.32633  0.19835  0.42871  1.0000
  C   C171      1.0  0.34089  0.21347  0.43250  1.0000
  H   H178      1.0  0.27497  0.23400  0.46379  1.0000
  C   C172      1.0  0.47048  0.24111  0.29233  1.0000
  H   H179      1.0  0.44809  0.27991  0.05094  1.0000
  C   C173      1.0  0.46638  0.33740  0.10497  1.0000
  H   H180      1.0  0.26772  0.21188  0.44942  1.0000
  H   H181      1.0  0.45987  0.23302  0.30304  1.0000
  S   S59       1.0  0.48321  0.15759  0.38628  1.0000
  C   C174      1.0  0.47561  0.33549  0.08479  1.0000
  Fe  Fe31      1.0  0.47632  0.33266  0.18016  1.0000
  C   C175      1.0  0.48755  0.10909  0.29563  1.0000
  S   S60       1.0  0.33830  0.03131  0.48476  1.0000
  H   H182      1.0  0.27974  0.20809  0.47458  1.0000
  H   H183      1.0  0.46944  0.27876  0.13902  1.0000
  H   H184      1.0  0.44478  0.48585  0.02434  1.0000
  S   S61       1.0  0.46218  0.12042  0.34503  1.0000
  H   H185      1.0  0.45942  0.04384  0.34671  1.0000
  H   H186      1.0  0.48413  0.18315  0.42378  1.0000
  H   H187      1.0  0.44196  0.16625  0.29765  1.0000
  S   S62       1.0  0.35048  0.44881  0.00852  1.0000
  H   H188      1.0  0.38384  0.42427  0.02320  1.0000
  N   N16       1.0  0.48272  0.13158  0.29395  1.0000
  C   C176      1.0  0.25001  0.47867  0.30785  1.0000
  H   H189      1.0  0.27331  0.45380  0.31036  1.0000
  Fe  Fe32      1.0  0.35361  0.17319  0.47541  1.0000
  S   S63       1.0  0.41242  0.45595  0.00741  1.0000
  H   H190      1.0  0.35266  0.01595  0.44379  1.0000
  H   H191      1.0  0.39438  0.01003  0.38140  1.0000
  C   C177      1.0  0.46089  0.07753  0.34751  1.0000
  C   C178      1.0  0.43550  0.39708  0.00435  1.0000
  C   C179      1.0  0.33730  0.48766  0.12634  1.0000
  H   H192      1.0  0.45011  0.12839  0.30096  1.0000
  H   H193      1.0  0.45160  0.27917  0.33376  1.0000
  C   C180      1.0  0.44853  0.28858  0.11465  1.0000
  C   C181      1.0  0.46257  0.13899  0.29667  1.0000
  H   H194      1.0  0.24230  0.44016  0.27758  1.0000
  H   H195      1.0  0.44950  0.44868  0.03462  1.0000
  N   N17       1.0  0.48184  0.44714  0.02543  1.0000
  C   C182      1.0  0.48412  0.42494  0.03139  1.0000
  H   H196      1.0  0.42799  0.01630  0.42427  1.0000
  S   S64       1.0  0.47677  0.36422  0.02607  1.0000
  C   C183      1.0  0.43352  0.41887  0.00355  1.0000
  C   C184      1.0  0.46280  0.45710  0.02814  1.0000
  C   C185      1.0  0.47688  0.48910  0.01356  1.0000
  H   H197      1.0  0.47442  0.10039  0.30322  1.0000
  H   H198      1.0  0.48553  0.21287  0.44741  1.0000
  Fe  Fe33      1.0  0.31603  0.48762  0.22807  1.0000
  H   H199      1.0  0.45487  0.30693  0.05389  1.0000
  C   C186      1.0  0.45990  0.29039  0.05694  1.0000
  N   N18       1.0  0.46248  0.28649  0.07944  1.0000
  H   H200      1.0  0.48855  0.39008  0.25280  1.0000
  C   C187      1.0  0.48085  0.27805  0.08674  1.0000
  C   C188      1.0  0.46726  0.28019  0.12225  1.0000
  C   C189      1.0  0.46829  0.27691  0.33090  1.0000
  H   H201      1.0  0.47094  0.25168  0.35406  1.0000
  H   H202      1.0  0.47485  0.28791  0.04789  1.0000
  H   H203      1.0  0.46275  0.31827  0.31392  1.0000
  C   C190      1.0  0.46674  0.30479  0.30392  1.0000
  H   H204      1.0  0.47574  0.31045  0.28981  1.0000
  N   N19       1.0  0.47849  0.28866  0.31579  1.0000
  C   C191      1.0  0.47912  0.26142  0.34248  1.0000
  S   S65       1.0  0.48919  0.36346  0.18826  1.0000
  S   S66       1.0  0.36691  0.49002  0.03170  1.0000
  C   C192      1.0  0.48350  0.27475  0.10825  1.0000
  C   C193      1.0  0.31976  0.07695  0.52535  1.0000
  H   H205      1.0  0.45431  0.01677  0.70148  1.0000
  H   H206      1.0  0.43256  0.41295  0.95105  1.0000
  C   C194      1.0  0.49040  0.31646  0.92418  1.0000
  S   S67       1.0  0.29845  0.45566  0.75745  1.0000
  S   S68       1.0  0.46594  0.02660  0.65911  1.0000
  H   H207      1.0  0.38317  0.07436  0.50761  1.0000
  H   H208      1.0  0.38187  0.13682  0.54406  1.0000
  S   S69       1.0  0.47151  0.35872  0.97518  1.0000
  H   H209      1.0  0.42060  0.37727  0.96085  1.0000
  H   H210      1.0  0.37653  0.23003  0.58041  1.0000
  C   C195      1.0  0.45431  0.31540  0.71090  1.0000
  Fe  Fe34      1.0  0.47908  0.32830  0.82370  1.0000
  C   C196      1.0  0.33082  0.45300  0.90931  1.0000
  Fe  Fe35      1.0  0.32450  0.19843  0.50539  1.0000
  H   H211      1.0  0.31217  0.07793  0.54065  1.0000
  H   H212      1.0  0.46408  0.33566  0.93421  1.0000
  Fe  Fe36      1.0  0.33156  0.15082  0.51211  1.0000
  Fe  Fe37      1.0  0.48866  0.32801  0.97868  1.0000
  S   S70       1.0  0.31987  0.11993  0.52593  1.0000
  Fe  Fe38      1.0  0.36697  0.17987  0.52003  1.0000
  S   S71       1.0  0.39798  0.18284  0.53570  1.0000
  S   S72       1.0  0.33420  0.17827  0.53337  1.0000
  Fe  Fe39      1.0  0.35984  0.45748  0.80498  1.0000
  S   S73       1.0  0.32634  0.45060  0.81380  1.0000
  S   S74       1.0  0.38848  0.43797  0.81386  1.0000
  Fe  Fe40      1.0  0.45849  0.34452  0.78338  1.0000
  S   S75       1.0  0.45604  0.31472  0.80226  1.0000
  S   S76       1.0  0.42857  0.35869  0.77017  1.0000
  C   C197      1.0  0.37769  0.09995  0.52855  1.0000
  Fe  Fe41      1.0  0.34409  0.99926  0.50049  1.0000
  H   H213      1.0  0.46679  0.22724  0.56231  1.0000
  C   C198      1.0  0.38179  0.42430  0.96442  1.0000
  S   S77       1.0  0.33119  0.45386  0.95242  1.0000
  C   C199      1.0  0.26426  0.48230  0.74770  1.0000
  H   H214      1.0  0.47036  0.21217  0.72206  1.0000
  S   S78       1.0  0.47081  0.20297  0.63388  1.0000
  C   C200      1.0  0.26277  0.22958  0.51196  1.0000
  H   H215      1.0  0.43397  0.25898  0.75667  1.0000
  S   S79       1.0  0.47589  0.15358  0.62128  1.0000
  H   H216      1.0  0.38368  0.11143  0.51729  1.0000
  Fe  Fe42      1.0  0.45290  0.17368  0.63917  1.0000
  S   S80       1.0  0.41847  0.17410  0.63176  1.0000
  S   S81       1.0  0.46670  0.16621  0.67085  1.0000
  H   H217      1.0  0.37301  0.12975  0.56999  1.0000
  H   H218      1.0  0.43224  0.28036  0.77371  1.0000
  S   S82       1.0  0.35951  0.48773  0.82181  1.0000
  C   C201      1.0  0.36129  0.09160  0.56140  1.0000
  H   H219      1.0  0.46154  0.32568  0.69919  1.0000
  C   C202      1.0  0.24437  0.32602  0.56204  1.0000
  C   C203      1.0  0.44508  0.32363  0.72901  1.0000
  C   C204      1.0  0.35404  0.40157  0.97807  1.0000
  H   H220      1.0  0.44499  0.34034  0.73147  1.0000
  H   H221      1.0  0.38426  0.37237  0.97350  1.0000
  C   C205      1.0  0.40064  0.41846  0.79848  1.0000
  C   C206      1.0  0.42078  0.41126  0.80369  1.0000
  C   C207      1.0  0.42982  0.39347  0.79441  1.0000
  C   C208      1.0  0.41876  0.38265  0.77989  1.0000
  C   C209      1.0  0.39898  0.39039  0.77391  1.0000
  C   C210      1.0  0.38994  0.40834  0.78313  1.0000
  H   H222      1.0  0.42919  0.41910  0.81545  1.0000
  H   H223      1.0  0.44514  0.38786  0.79893  1.0000
  H   H224      1.0  0.39039  0.38219  0.76253  1.0000
  H   H225      1.0  0.37439  0.41379  0.77902  1.0000
  H   H226      1.0  0.41052  0.27558  0.75700  1.0000
  N   N20       1.0  0.37530  0.40460  0.96960  1.0000
  C   C211      1.0  0.36938  0.06415  0.53715  1.0000
  H   H227      1.0  0.27875  0.43816  0.72240  1.0000
  C   C212      1.0  0.40272  0.17689  0.56228  1.0000
  C   C213      1.0  0.42355  0.17470  0.56838  1.0000
  C   C214      1.0  0.42840  0.17286  0.58962  1.0000
  C   C215      1.0  0.41245  0.17327  0.60501  1.0000
  C   C216      1.0  0.39150  0.17454  0.59891  1.0000
  C   C217      1.0  0.38662  0.17630  0.57756  1.0000
  H   H228      1.0  0.43607  0.17505  0.55663  1.0000
  H   H229      1.0  0.44454  0.17186  0.59408  1.0000
  H   H230      1.0  0.37907  0.17483  0.61076  1.0000
  H   H231      1.0  0.37050  0.17811  0.57301  1.0000
  H   H232      1.0  0.35399  0.05913  0.56720  1.0000
  H   H233      1.0  0.35417  0.13534  0.54992  1.0000
  C   C218      1.0  0.46636  0.33440  0.90046  1.0000
  C   C219      1.0  0.33477  0.09392  0.49442  1.0000
  C   C220      1.0  0.36974  0.12803  0.55317  1.0000
  S   S83       1.0  0.46772  0.33275  0.85765  1.0000
  C   C221      1.0  0.40965  0.39054  0.96116  1.0000
  C   C222      1.0  0.32333  0.48680  0.92399  1.0000
  C   C223      1.0  0.32748  0.46138  0.88897  1.0000
  C   C224      1.0  0.38901  0.38785  0.96831  1.0000
  C   C225      1.0  0.49011  0.23555  0.70784  1.0000
  C   C226      1.0  0.32516  0.09542  0.51428  1.0000
  Fe  Fe43      1.0  0.48046  0.99572  0.64800  1.0000
  H   H234      1.0  0.49029  0.16037  0.72215  1.0000
  C   C227      1.0  0.27007  0.45241  0.72601  1.0000
  H   H235      1.0  0.24911  0.44984  0.70019  1.0000
  C   C228      1.0  0.47485  0.23740  0.74321  1.0000
  N   N21       1.0  0.31096  0.48782  0.71282  1.0000
  H   H236      1.0  0.32883  0.45140  0.87561  1.0000
  C   C229      1.0  0.48394  0.25684  0.74625  1.0000
  C   C230      1.0  0.47779  0.05145  0.65710  1.0000
  C   C231      1.0  0.46506  0.06967  0.65853  1.0000
  C   C232      1.0  0.47386  0.08964  0.65823  1.0000
  Fe  Fe44      1.0  0.31835  0.46843  0.78358  1.0000
  H   H237      1.0  0.44826  0.06835  0.65995  1.0000
  H   H238      1.0  0.46382  0.10345  0.65946  1.0000
  S   S84       1.0  0.35233  0.47298  0.77405  1.0000
  H   H239      1.0  0.36864  0.04792  0.53281  1.0000
  C   C233      1.0  0.45942  0.21919  0.57614  1.0000
  H   H240      1.0  0.46547  0.23038  0.75575  1.0000
  H   H241      1.0  0.26269  0.30184  0.54661  1.0000
  H   H242      1.0  0.46726  0.22464  0.59019  1.0000
  H   H243      1.0  0.33476  0.43657  0.91141  1.0000
  N   N22       1.0  0.36992  0.10596  0.54769  1.0000
  C   C234      1.0  0.24262  0.23927  0.51296  1.0000
  C   C235      1.0  0.40239  0.42759  0.95747  1.0000
  N   N23       1.0  0.39029  0.37920  0.83270  1.0000
  C   C236      1.0  0.39713  0.39335  0.84640  1.0000
  C   C237      1.0  0.40269  0.36231  0.82735  1.0000
  C   C238      1.0  0.41710  0.39110  0.85466  1.0000
  C   C239      1.0  0.42268  0.35951  0.83545  1.0000
  C   C240      1.0  0.42993  0.37406  0.84909  1.0000
  C   C241      1.0  0.36923  0.38171  0.82438  1.0000
  H   H244      1.0  0.38742  0.40692  0.85038  1.0000
  H   H245      1.0  0.39744  0.35120  0.81631  1.0000
  H   H246      1.0  0.42272  0.40269  0.86497  1.0000
  H   H247      1.0  0.43267  0.34633  0.83093  1.0000
  H   H248      1.0  0.44557  0.37220  0.85515  1.0000
  H   H249      1.0  0.36872  0.37546  0.80838  1.0000
  H   H250      1.0  0.35781  0.37350  0.83484  1.0000
  H   H251      1.0  0.36442  0.39853  0.82296  1.0000
  C   C242      1.0  0.47832  0.99630  0.71392  1.0000
  H   H252      1.0  0.25629  0.33768  0.56011  1.0000
  H   H253      1.0  0.30000  0.46492  0.69226  1.0000
  C   C243      1.0  0.41637  0.41056  0.95578  1.0000
  H   H254      1.0  0.31638  0.45504  0.71268  1.0000
  Fe  Fe45      1.0  0.32575  0.48202  0.82894  1.0000
  C   C244      1.0  0.24795  0.30598  0.55446  1.0000
  C   C245      1.0  0.27593  0.46410  0.74313  1.0000
  H   H255      1.0  0.46265  0.20212  0.57499  1.0000
  S   S85       1.0  0.37482  0.99540  0.51613  1.0000
  H   H256      1.0  0.39537  0.23002  0.54589  1.0000
  C   C246      1.0  0.32129  0.48237  0.88609  1.0000
  C   C247      1.0  0.45432  0.29389  0.70806  1.0000
  S   S86       1.0  0.47981  0.35896  0.80556  1.0000
  C   C248      1.0  0.32408  0.05717  0.51679  1.0000
  N   N24       1.0  0.43678  0.22343  0.57739  1.0000
  C   C249      1.0  0.42582  0.22597  0.55939  1.0000
  C   C250      1.0  0.42649  0.22318  0.59647  1.0000
  C   C251      1.0  0.40406  0.22887  0.56024  1.0000
  C   C252      1.0  0.40472  0.22586  0.59788  1.0000
  C   C253      1.0  0.39347  0.22874  0.57962  1.0000
  C   C254      1.0  0.47762  0.22698  0.72408  1.0000
  H   H257      1.0  0.43376  0.22496  0.54422  1.0000
  H   H258      1.0  0.43493  0.22001  0.61070  1.0000
  C   C255      1.0  0.31394  0.46841  0.70140  1.0000
  H   H259      1.0  0.39662  0.22472  0.61300  1.0000
  Fe  Fe46      1.0  0.48359  0.30264  0.78283  1.0000
  Fe  Fe47      1.0  0.33975  0.47029  0.98210  1.0000
  C   C256      1.0  0.25744  0.27298  0.50560  1.0000
  S   S87       1.0  0.36489  0.15141  0.50084  1.0000
  S   S88       1.0  0.47909  0.26950  0.77057  1.0000
  C   C257      1.0  0.37759  0.07898  0.52302  1.0000
  H   H260      1.0  0.46164  0.28722  0.69416  1.0000
  H   H261      1.0  0.31971  0.04311  0.52542  1.0000
  S   S89       1.0  0.48445  0.33183  0.76260  1.0000
  Fe  Fe48      1.0  0.48646  0.19456  0.66421  1.0000
  C   C258      1.0  0.27760  0.26330  0.50466  1.0000
  C   C259      1.0  0.28047  0.24154  0.50781  1.0000
  H   H262      1.0  0.37113  0.43766  0.96598  1.0000
  C   C260      1.0  0.36108  0.07047  0.55644  1.0000
  H   H263      1.0  0.45256  0.34426  0.89819  1.0000
  C   C261      1.0  0.47734  0.32639  0.88293  1.0000
  C   C262      1.0  0.32865  0.46560  0.92697  1.0000
  C   C263      1.0  0.25322  0.45900  0.71333  1.0000
  H   H264      1.0  0.29110  0.27279  0.50140  1.0000
  N   N25       1.0  0.43692  0.28904  0.74162  1.0000
  C   C264      1.0  0.44522  0.28089  0.72354  1.0000
  C   C265      1.0  0.43646  0.31013  0.74432  1.0000
  H   H265      1.0  0.26458  0.21287  0.51451  1.0000
  H   H266      1.0  0.35427  0.09651  0.57616  1.0000
  H   H267      1.0  0.40757  0.44333  0.95408  1.0000
  C   C266      1.0  0.42780  0.27529  0.75797  1.0000
  H   H268      1.0  0.44543  0.26419  0.72126  1.0000
  H   H269      1.0  0.42967  0.31659  0.75854  1.0000
  H   H270      1.0  0.48199  0.01295  0.56254  1.0000
  S   S90       1.0  0.36943  0.48791  0.98011  1.0000
  H   H271      1.0  0.33859  0.48229  0.73017  1.0000
  S   S91       1.0  0.30641  0.23027  0.50570  1.0000
  C   C267      1.0  0.47287  0.32956  0.92093  1.0000
  C   C268      1.0  0.33349  0.05569  0.49683  1.0000
  C   C269      1.0  0.45945  0.00061  0.70396  1.0000
  H   H272      1.0  0.25560  0.28969  0.50309  1.0000
  C   C270      1.0  0.24718  0.48871  0.73524  1.0000
  N   N26       1.0  0.48281  0.99214  0.53708  1.0000
  H   H273      1.0  0.34299  0.41390  0.97201  1.0000
  H   H274      1.0  0.34802  0.38632  0.97349  1.0000
  S   S92       1.0  0.35801  0.20194  0.49360  1.0000
  H   H275      1.0  0.43045  0.00309  0.67480  1.0000
  H   H276      1.0  0.32774  0.46949  0.69054  1.0000
  H   H277      1.0  0.48770  0.00899  0.71889  1.0000
  H   H278      1.0  0.41590  0.99412  0.69788  1.0000
  H   H279      1.0  0.45179  0.99333  0.55028  1.0000
  C   C271      1.0  0.24159  0.47723  0.71787  1.0000
  Fe  Fe49      1.0  0.46778  0.58491  0.01341  1.0000
  H   H280      1.0  0.37152  0.49888  0.27704  1.0000
  H   H281      1.0  0.45778  0.88276  0.41108  1.0000
  H   H282      1.0  0.41908  0.62284  0.16922  1.0000
  C   C272      1.0  0.44052  0.59881  0.15827  1.0000
  Fe  Fe50      1.0  0.36256  0.49820  0.22322  1.0000
  C   C273      1.0  0.36533  0.86775  0.47270  1.0000
  H   H283      1.0  0.48435  0.75566  0.46447  1.0000
  H   H284      1.0  0.44903  0.73903  0.25848  1.0000
  H   H285      1.0  0.28615  0.49148  0.08378  1.0000
  H   H286      1.0  0.42128  0.66181  0.25189  1.0000
  C   C274      1.0  0.31718  0.53082  0.09212  1.0000
  C   C275      1.0  0.43380  0.96734  0.44477  1.0000
  S   S93       1.0  0.47492  0.94766  0.38881  1.0000
  C   C276      1.0  0.45201  0.84105  0.40167  1.0000
  C   C277      1.0  0.48224  0.70927  0.30836  1.0000
  H   H287      1.0  0.47177  0.58285  0.10525  1.0000
  H   H288      1.0  0.36083  0.56928  0.25203  1.0000
  H   H289      1.0  0.45405  0.59649  0.08833  1.0000
  S   S94       1.0  0.32330  0.49243  0.00464  1.0000
  H   H290      1.0  0.46566  0.83997  0.41133  1.0000
  C   C278      1.0  0.42141  0.53057  0.00859  1.0000
  S   S95       1.0  0.39030  0.51372  0.23692  1.0000
  S   S96       1.0  0.33348  0.51317  0.21017  1.0000
  Fe  Fe51      1.0  0.35424  0.50834  0.00436  1.0000
  S   S97       1.0  0.36040  0.77915  0.45261  1.0000
  C   C279      1.0  0.47822  0.68788  0.30663  1.0000
  Fe  Fe52      1.0  0.47572  0.80011  0.35541  1.0000
  H   H291      1.0  0.42544  0.87520  0.37086  1.0000
  S   S98       1.0  0.46197  0.83131  0.34366  1.0000
  C   C280      1.0  0.35118  0.55637  0.25725  1.0000
  H   H292      1.0  0.35967  0.50651  0.10917  1.0000
  C   C281      1.0  0.45491  0.58640  0.10277  1.0000
  Fe  Fe53      1.0  0.46978  0.77050  0.39319  1.0000
  S   S99       1.0  0.45675  0.76717  0.42648  1.0000
  S   S100      1.0  0.45419  0.77315  0.36218  1.0000
  H   H293      1.0  0.47791  0.66130  0.28641  1.0000
  S   S101      1.0  0.41311  0.96344  0.48228  1.0000
  H   H294      1.0  0.38189  0.95837  0.45057  1.0000
  H   H295      1.0  0.41094  0.63600  0.13318  1.0000
  S   S102      1.0  0.47221  0.61663  0.24687  1.0000
  H   H296      1.0  0.44896  0.70677  0.23820  1.0000
  Fe  Fe54      1.0  0.45496  0.61273  0.21710  1.0000
  S   S103      1.0  0.42090  0.60525  0.21300  1.0000
  S   S104      1.0  0.46702  0.64216  0.20149  1.0000
  C   C282      1.0  0.24364  0.49619  0.29580  1.0000
  C   C283      1.0  0.39823  0.96331  0.42100  1.0000
  S   S105      1.0  0.45652  0.55212  0.01408  1.0000
  C   C284      1.0  0.39674  0.96158  0.44295  1.0000
  H   H297      1.0  0.29177  0.50294  0.10798  1.0000
  C   C285      1.0  0.46405  0.87415  0.34083  1.0000
  C   C286      1.0  0.38719  0.77546  0.44553  1.0000
  C   C287      1.0  0.39356  0.77710  0.42433  1.0000
  C   C288      1.0  0.41478  0.77436  0.41821  1.0000
  C   C289      1.0  0.42983  0.77024  0.43332  1.0000
  C   C290      1.0  0.42347  0.76873  0.45452  1.0000
  C   C291      1.0  0.40225  0.77126  0.46061  1.0000
  H   H298      1.0  0.38197  0.78017  0.41257  1.0000
  H   H299      1.0  0.41944  0.77514  0.40184  1.0000
  H   H300      1.0  0.43498  0.76543  0.46631  1.0000
  H   H301      1.0  0.39754  0.76983  0.47697  1.0000
  C   C292      1.0  0.44023  0.82323  0.39939  1.0000
  C   C293      1.0  0.32749  0.52240  0.26975  1.0000
  H   H302      1.0  0.44816  0.87374  0.33555  1.0000
  C   C294      1.0  0.28810  0.50669  0.09137  1.0000
  C   C295      1.0  0.39905  0.53871  0.22873  1.0000
  C   C296      1.0  0.41832  0.54531  0.23571  1.0000
  C   C297      1.0  0.42538  0.56546  0.23053  1.0000
  C   C298      1.0  0.41299  0.57939  0.21869  1.0000
  C   C299      1.0  0.39369  0.57282  0.21168  1.0000
  C   C300      1.0  0.38683  0.55246  0.21648  1.0000
  H   H303      1.0  0.42785  0.53480  0.24523  1.0000
  H   H304      1.0  0.44025  0.57033  0.23607  1.0000
  H   H305      1.0  0.38402  0.58349  0.20248  1.0000
  H   H306      1.0  0.37196  0.54755  0.21101  1.0000
  Fe  Fe55      1.0  0.48626  0.64485  0.23053  1.0000
  C   C301      1.0  0.42174  0.62282  0.13543  1.0000
  H   H307      1.0  0.42162  0.58187  0.02037  1.0000
  C   C302      1.0  0.42985  0.70556  0.29599  1.0000
  Fe  Fe56      1.0  0.48080  0.75246  0.34958  1.0000
  C   C303      1.0  0.49017  0.72015  0.29069  1.0000
  H   H308      1.0  0.44834  0.65750  0.25890  1.0000
  H   H309      1.0  0.37633  0.53982  0.27256  1.0000
  H   H310      1.0  0.40457  0.84397  0.36583  1.0000
  Fe  Fe57      1.0  0.34904  0.77400  0.48631  1.0000
  S   S106      1.0  0.47975  0.59226  0.20250  1.0000
  H   H311      1.0  0.44465  0.80860  0.40727  1.0000
  S   S107      1.0  0.46916  0.97273  0.34302  1.0000
  H   H312      1.0  0.46513  0.90790  0.33863  1.0000
  C   C304      1.0  0.41452  0.96382  0.45485  1.0000
  N   N27       1.0  0.44660  0.85947  0.39161  1.0000
  H   H313      1.0  0.31509  0.53142  0.10902  1.0000
  H   H314      1.0  0.44676  0.57170  0.10007  1.0000
  S   S108      1.0  0.48935  0.79860  0.38720  1.0000
  C   C305      1.0  0.35986  0.53966  0.26894  1.0000
  H   H315      1.0  0.31810  0.50909  0.27430  1.0000
  S   S109      1.0  0.44903  0.61476  0.01652  1.0000
  H   H316      1.0  0.47582  0.87439  0.39034  1.0000
  H   H317      1.0  0.34339  0.55137  0.09132  1.0000
  C   C306      1.0  0.47803  0.63350  0.09255  1.0000
  H   H318      1.0  0.42554  0.70488  0.31254  1.0000
  C   C307      1.0  0.25483  0.50182  0.27714  1.0000
  C   C308      1.0  0.33025  0.55591  0.25180  1.0000
  S   S110      1.0  0.28571  0.49780  0.24613  1.0000
  C   C309      1.0  0.41762  0.84312  0.37628  1.0000
  H   H319      1.0  0.29820  0.50740  0.05063  1.0000
  C   C310      1.0  0.43129  0.61310  0.11816  1.0000
  H   H320      1.0  0.36608  0.90141  0.47469  1.0000
  H   H321      1.0  0.39415  0.51346  0.00275  1.0000
  C   C311      1.0  0.47493  0.85530  0.34561  1.0000
  C   C312      1.0  0.42957  0.86071  0.37913  1.0000
  H   H322      1.0  0.45841  0.96835  0.48894  1.0000
  C   C313      1.0  0.44308  0.72476  0.26566  1.0000
  N   N28       1.0  0.36923  0.84889  0.48266  1.0000
  N   N29       1.0  0.44539  0.59685  0.12095  1.0000
  S   S111      1.0  0.35118  0.97273  0.47871  1.0000
  C   C314      1.0  0.33644  0.54098  0.06058  1.0000
  N   N30       1.0  0.34811  0.52285  0.27479  1.0000
  H   H323      1.0  0.42505  0.67298  0.29156  1.0000
  S   S112      1.0  0.47569  0.72171  0.33251  1.0000
  H   H324      1.0  0.42785  0.61903  0.10251  1.0000
  C   C315      1.0  0.39991  0.52840  0.00668  1.0000
  C   C316      1.0  0.46984  0.64248  0.11097  1.0000
  H   H325      1.0  0.44223  0.67149  0.23522  1.0000
  H   H326      1.0  0.31135  0.88169  0.47914  1.0000
  C   C317      1.0  0.39401  0.56481  0.01452  1.0000
  S   S113      1.0  0.35940  0.54280  0.00532  1.0000
  C   C318      1.0  0.45914  0.87792  0.39456  1.0000
  C   C319      1.0  0.30777  0.51740  0.05958  1.0000
  C   C320      1.0  0.34836  0.49436  0.10817  1.0000
  H   H327      1.0  0.32581  0.52788  0.03236  1.0000
  H   H328      1.0  0.38344  0.57809  0.01673  1.0000
  C   C321      1.0  0.41565  0.56700  0.01643  1.0000
  H   H329      1.0  0.34926  0.82327  0.48039  1.0000
  H   H330      1.0  0.44404  0.59299  0.17391  1.0000
  H   H331      1.0  0.25448  0.60641  0.46858  1.0000
  H   H332      1.0  0.38447  0.96168  0.41183  1.0000
  C   C322      1.0  0.31826  0.53892  0.25822  1.0000
  H   H333      1.0  0.45408  0.89142  0.38440  1.0000
  C   C323      1.0  0.47363  0.89355  0.34258  1.0000
  C   C324      1.0  0.42638  0.61555  0.15560  1.0000
  C   C325      1.0  0.42936  0.54988  0.01328  1.0000
  C   C326      1.0  0.45003  0.58965  0.14068  1.0000
  C   C327      1.0  0.41755  0.96712  0.41099  1.0000
  N   N31       1.0  0.30491  0.51841  0.08082  1.0000
  H   H334      1.0  0.35241  0.49219  0.07469  1.0000
  C   C328      1.0  0.43527  0.96911  0.42297  1.0000
  H   H335      1.0  0.34896  0.54943  0.05258  1.0000
  H   H336      1.0  0.41409  0.81045  0.38418  1.0000
  Fe  Fe58      1.0  0.45374  0.97255  0.37520  1.0000
  C   C329      1.0  0.42302  0.82428  0.38649  1.0000
  C   C330      1.0  0.44290  0.70646  0.25424  1.0000
  Fe  Fe59      1.0  0.47472  0.62410  0.03750  1.0000
  N   N32       1.0  0.43627  0.68819  0.26350  1.0000
  C   C331      1.0  0.43662  0.72423  0.28670  1.0000
  C   C332      1.0  0.43695  0.66883  0.25178  1.0000
  H   H337      1.0  0.43759  0.73805  0.29602  1.0000
  C   C333      1.0  0.42973  0.68758  0.28407  1.0000
  H   H338      1.0  0.47219  0.67921  0.32017  1.0000
  C   C334      1.0  0.32349  0.52873  0.04917  1.0000
  S   S114      1.0  0.46519  0.63869  0.06864  1.0000
  H   H339      1.0  0.24951  0.51523  0.26787  1.0000
  H   H340      1.0  0.46123  0.57682  0.14294  1.0000
  C   C335      1.0  0.36380  0.82943  0.47290  1.0000
  H   H341      1.0  0.45656  0.65328  0.11010  1.0000
  C   C336      1.0  0.47845  0.63734  0.13056  1.0000
  H   H342      1.0  0.45017  0.97236  0.41558  1.0000
  Fe  Fe60      1.0  0.33794  0.49043  0.18388  1.0000
  C   C337      1.0  0.35796  0.50528  0.28636  1.0000
  H   H343      1.0  0.27316  0.51590  0.09079  1.0000
  C   C338      1.0  0.38615  0.54551  0.00939  1.0000
  S   S115      1.0  0.41963  0.97016  0.38366  1.0000
  H   H344      1.0  0.24202  0.56839  0.45428  1.0000
  H   H345      1.0  0.47190  0.64425  0.14462  1.0000
  H   H346      1.0  0.44764  0.96912  0.45375  1.0000
  H   H347      1.0  0.47492  0.50550  0.00898  1.0000
  H   H348      1.0  0.32340  0.56856  0.24241  1.0000
  H   H349      1.0  0.36130  0.83157  0.45584  1.0000
  H   H350      1.0  0.35818  0.86852  0.45754  1.0000
  C   C339      1.0  0.33327  0.54210  0.08222  1.0000
  H   H351      1.0  0.36353  0.51053  0.30156  1.0000
  C   C340      1.0  0.48141  0.67764  0.28744  1.0000
  H   H352      1.0  0.43190  0.51732  0.00600  1.0000
  H   H353      1.0  0.30200  0.53826  0.25392  1.0000
  H   H354      1.0  0.37655  0.81738  0.47468  1.0000
  S   S116      1.0  0.33993  0.50171  0.14961  1.0000
  C   C341      1.0  0.48855  0.68871  0.26955  1.0000
  H   H355      1.0  0.34700  0.49232  0.28948  1.0000
  C   C342      1.0  0.36985  0.88642  0.48226  1.0000
  C   C343      1.0  0.27271  0.49025  0.27029  1.0000
  S   S117      1.0  0.49004  0.67755  0.24414  1.0000
  H   H356      1.0  0.24525  0.79836  0.49046  1.0000
  C   C344      1.0  0.48684  0.97799  0.50273  1.0000
  H   H357      1.0  0.33355  0.53099  0.84877  1.0000
  C   C345      1.0  0.48261  0.89390  0.66877  1.0000
  H   H358      1.0  0.41015  0.71826  0.62394  1.0000
  C   C346      1.0  0.45261  0.98100  0.51941  1.0000
  S   S118      1.0  0.32678  0.97833  0.52384  1.0000
  S   S119      1.0  0.27932  0.74505  0.51808  1.0000
  C   C347      1.0  0.24334  0.61947  0.56169  1.0000
  Fe  Fe61      1.0  0.33416  0.80057  0.52272  1.0000
  S   S120      1.0  0.47266  0.91930  0.67464  1.0000
  H   H359      1.0  0.34044  0.87426  0.54993  1.0000
  S   S121      1.0  0.45897  0.96905  0.64292  1.0000
  Fe  Fe62      1.0  0.33701  0.95124  0.50347  1.0000
  H   H360      1.0  0.44434  0.60015  0.96074  1.0000
  S   S122      1.0  0.36723  0.94469  0.51937  1.0000
  C   C348      1.0  0.37828  0.88568  0.50213  1.0000
  S   S123      1.0  0.31757  0.78838  0.49538  1.0000
  S   S124      1.0  0.36605  0.97541  0.57177  1.0000
  S   S125      1.0  0.49081  0.59748  0.78485  1.0000
  S   S126      1.0  0.48265  0.78822  0.62436  1.0000
  H   H361      1.0  0.41723  0.88474  0.62124  1.0000
  Fe  Fe63      1.0  0.45358  0.77593  0.64001  1.0000
  S   S127      1.0  0.42175  0.78592  0.62800  1.0000
  S   S128      1.0  0.46138  0.78737  0.67170  1.0000
  H   H362      1.0  0.46601  0.91174  0.60851  1.0000
  C   C349      1.0  0.30559  0.52431  0.73507  1.0000
  C   C350      1.0  0.32938  0.85777  0.52371  1.0000
  Fe  Fe64      1.0  0.47286  0.62829  0.83376  1.0000
  H   H363      1.0  0.37932  0.83318  0.51063  1.0000
  S   S129      1.0  0.46254  0.64713  0.86217  1.0000
  Fe  Fe65      1.0  0.46465  0.59030  0.80793  1.0000
  S   S130      1.0  0.45036  0.55823  0.80971  1.0000
  S   S131      1.0  0.45131  0.62325  0.80693  1.0000
  Fe  Fe66      1.0  0.34927  0.50264  0.79178  1.0000
  C   C351      1.0  0.28287  0.81432  0.54648  1.0000
  S   S132      1.0  0.36072  0.53400  0.77974  1.0000
  H   H364      1.0  0.39797  0.95763  0.54435  1.0000
  C   C352      1.0  0.44315  0.55862  0.95983  1.0000
  C   C353      1.0  0.43578  0.96169  0.57992  1.0000
  C   C354      1.0  0.33425  0.87577  0.53438  1.0000
  C   C355      1.0  0.44859  0.65899  0.90056  1.0000
  C   C356      1.0  0.42384  0.97097  0.59600  1.0000
  C   C357      1.0  0.34440  0.56224  0.82282  1.0000
  S   S133      1.0  0.33358  0.83305  0.53632  1.0000
  Fe  Fe67      1.0  0.35845  0.97296  0.53792  1.0000
  Fe  Fe68      1.0  0.31254  0.75859  0.51474  1.0000
  C   C358      1.0  0.38193  0.86640  0.51228  1.0000
  H   H365      1.0  0.28983  0.84666  0.55032  1.0000
  Fe  Fe69      1.0  0.35738  0.75907  0.53093  1.0000
  S   S134      1.0  0.38207  0.74258  0.55072  1.0000
  S   S135      1.0  0.32670  0.77232  0.54318  1.0000
  C   C359      1.0  0.26726  0.72078  0.51299  1.0000
  S   S136      1.0  0.47096  0.73950  0.70941  1.0000
  C   C360      1.0  0.31783  0.88005  0.49455  1.0000
  C   C361      1.0  0.41181  0.60858  0.96437  1.0000
  H   H366      1.0  0.47533  0.61390  0.93254  1.0000
  H   H367      1.0  0.47836  0.94333  0.71210  1.0000
  C   C362      1.0  0.42587  0.55188  0.80001  1.0000
  C   C363      1.0  0.41903  0.53139  0.80327  1.0000
  C   C364      1.0  0.39928  0.52571  0.79671  1.0000
  C   C365      1.0  0.38621  0.54044  0.78669  1.0000
  C   C366      1.0  0.39320  0.56086  0.78299  1.0000
  C   C367      1.0  0.41295  0.56662  0.78974  1.0000
  H   H368      1.0  0.42897  0.51986  0.81108  1.0000
  H   H369      1.0  0.39421  0.50988  0.79941  1.0000
  H   H370      1.0  0.38323  0.57232  0.77512  1.0000
  H   H371      1.0  0.41815  0.58242  0.78705  1.0000
  C   C368      1.0  0.41161  0.77434  0.60578  1.0000
  C   C369      1.0  0.39338  0.78298  0.59690  1.0000
  C   C370      1.0  0.38445  0.77369  0.57970  1.0000
  C   C371      1.0  0.39349  0.75543  0.57151  1.0000
  C   C372      1.0  0.41172  0.74679  0.58043  1.0000
  C   C373      1.0  0.42090  0.75632  0.59734  1.0000
  H   H372      1.0  0.38605  0.79687  0.60336  1.0000
  H   H373      1.0  0.37037  0.78043  0.57302  1.0000
  H   H374      1.0  0.41883  0.73271  0.57411  1.0000
  H   H375      1.0  0.43501  0.74958  0.60396  1.0000
  S   S137      1.0  0.31453  0.49321  0.86112  1.0000
  C   C374      1.0  0.47794  0.67349  0.74127  1.0000
  C   C375      1.0  0.44786  0.84063  0.62176  1.0000
  H   H376      1.0  0.48613  0.66290  0.71031  1.0000
  S   S138      1.0  0.45548  0.64491  0.96187  1.0000
  C   C376      1.0  0.27831  0.70371  0.50447  1.0000
  H   H377      1.0  0.43863  0.67107  0.93029  1.0000
  C   C377      1.0  0.47430  0.71386  0.72115  1.0000
  S   S139      1.0  0.48549  0.59594  0.98465  1.0000
  H   H378      1.0  0.46921  0.68931  0.76954  1.0000
  C   C378      1.0  0.24569  0.71871  0.51762  1.0000
  Fe  Fe70      1.0  0.47682  0.75540  0.67697  1.0000
  C   C379      1.0  0.48004  0.69629  0.70955  1.0000
  S   S140      1.0  0.46701  0.74354  0.64599  1.0000
  H   H379      1.0  0.43585  0.97863  0.51930  1.0000
  H   H380      1.0  0.46588  0.72441  0.75207  1.0000
  H   H381      1.0  0.48787  0.67603  0.92139  1.0000
  C   C380      1.0  0.47040  0.71103  0.74286  1.0000
  H   H382      1.0  0.29485  0.70491  0.50078  1.0000
  C   C381      1.0  0.47098  0.87631  0.67480  1.0000
  H   H383      1.0  0.46976  0.84252  0.67566  1.0000
  H   H384      1.0  0.45593  0.87841  0.68273  1.0000
  C   C382      1.0  0.32290  0.51106  0.73846  1.0000
  N   N33       1.0  0.45058  0.88391  0.61880  1.0000
  H   H385      1.0  0.27463  0.78353  0.53805  1.0000
  N   N34       1.0  0.42530  0.57329  0.96227  1.0000
  C   C383      1.0  0.35012  0.53415  0.84892  1.0000
  H   H386      1.0  0.25642  0.60876  0.55856  1.0000
  C   C384      1.0  0.33143  0.89578  0.52504  1.0000
  H   H387      1.0  0.31447  0.51124  0.90173  1.0000
  C   C385      1.0  0.44708  0.65854  0.92243  1.0000
  H   H388      1.0  0.33307  0.55208  0.81540  1.0000
  C   C386      1.0  0.45687  0.64257  0.93421  1.0000
  C   C387      1.0  0.45965  0.64332  0.88977  1.0000
  C   C388      1.0  0.46901  0.62670  0.90137  1.0000
  C   C389      1.0  0.46767  0.62635  0.92365  1.0000
  Fe  Fe71      1.0  0.47914  0.63124  0.78561  1.0000
  S   S141      1.0  0.48032  0.64769  0.75285  1.0000
  C   C390      1.0  0.32535  0.49277  0.72713  1.0000
  Fe  Fe72      1.0  0.47624  0.96552  0.61233  1.0000
  C   C391      1.0  0.40539  0.56601  0.96363  1.0000
  C   C392      1.0  0.38820  0.57986  0.96580  1.0000
  C   C393      1.0  0.39149  0.60127  0.96627  1.0000
  H   H389      1.0  0.40268  0.54937  0.96368  1.0000
  H   H390      1.0  0.38766  0.86568  0.52808  1.0000
  H   H391      1.0  0.48312  0.69807  0.69288  1.0000
  C   C394      1.0  0.47230  0.69108  0.75287  1.0000
  H   H392      1.0  0.37251  0.57390  0.96768  1.0000
  S   S142      1.0  0.48407  0.59507  0.83606  1.0000
  C   C395      1.0  0.40496  0.96114  0.55886  1.0000
  S   S143      1.0  0.31503  0.49930  0.79953  1.0000
  S   S144      1.0  0.36576  0.78804  0.51249  1.0000
  S   S145      1.0  0.46278  0.95700  0.58192  1.0000
  H   H393      1.0  0.41455  0.84612  0.62360  1.0000
  C   C396      1.0  0.42862  0.59429  0.96226  1.0000
  H   H394      1.0  0.25337  0.64265  0.53860  1.0000
  H   H395      1.0  0.33539  0.90949  0.53341  1.0000
  H   H396      1.0  0.35329  0.57004  0.80972  1.0000
  H   H397      1.0  0.30339  0.53835  0.74405  1.0000
  C   C397      1.0  0.29408  0.50089  0.70913  1.0000
  C   C398      1.0  0.42624  0.95657  0.56147  1.0000
  H   H398      1.0  0.38560  0.56634  0.82700  1.0000
  C   C399      1.0  0.47880  0.85593  0.67083  1.0000
  H   H399      1.0  0.44132  0.67188  0.89188  1.0000
  N   N35       1.0  0.41947  0.73630  0.67190  1.0000
  C   C400      1.0  0.41200  0.73583  0.65209  1.0000
  C   C401      1.0  0.42972  0.71919  0.68041  1.0000
  C   C402      1.0  0.41567  0.71830  0.63984  1.0000
  C   C403      1.0  0.43372  0.70140  0.66861  1.0000
  C   C404      1.0  0.42676  0.70105  0.64813  1.0000
  C   C405      1.0  0.41579  0.75494  0.68438  1.0000
  H   H400      1.0  0.40342  0.74919  0.64550  1.0000
  H   H401      1.0  0.43518  0.71934  0.69631  1.0000
  H   H402      1.0  0.35650  0.50911  0.87133  1.0000
  H   H403      1.0  0.44238  0.68812  0.67529  1.0000
  H   H404      1.0  0.42999  0.68747  0.63869  1.0000
  H   H405      1.0  0.42874  0.75685  0.69538  1.0000
  H   H406      1.0  0.41518  0.76932  0.67417  1.0000
  H   H407      1.0  0.40084  0.75370  0.69350  1.0000
  N   N36       1.0  0.35829  0.54966  0.83631  1.0000
  H   H408      1.0  0.25915  0.83230  0.49401  1.0000
  C   C406      1.0  0.37912  0.55386  0.83676  1.0000
  H   H409      1.0  0.47767  0.61452  0.89322  1.0000
  C   C407      1.0  0.39257  0.54163  0.84923  1.0000
  C   C408      1.0  0.38445  0.52538  0.86171  1.0000
  C   C409      1.0  0.26547  0.82716  0.50891  1.0000
  H   H410      1.0  0.33576  0.57423  0.83210  1.0000
  H   H411      1.0  0.43535  0.94924  0.54904  1.0000
  C   C410      1.0  0.28257  0.83546  0.54060  1.0000
  H   H412      1.0  0.40923  0.54452  0.84880  1.0000
  H   H413      1.0  0.27734  0.52923  0.71775  1.0000
  C   C411      1.0  0.32115  0.85995  0.50370  1.0000
  H   H414      1.0  0.43112  0.97536  0.61013  1.0000
  H   H415      1.0  0.39472  0.51549  0.87117  1.0000
  H   H416      1.0  0.44773  0.55738  0.94303  1.0000
  C   C412      1.0  0.43139  0.87501  0.62072  1.0000
  C   C413      1.0  0.46844  0.87163  0.61876  1.0000
  Fe  Fe73      1.0  0.48411  0.94756  0.65578  1.0000
  H   H417      1.0  0.38128  0.90006  0.50993  1.0000
  H   H418      1.0  0.41461  0.62522  0.96460  1.0000
  C   C414      1.0  0.37718  0.84806  0.50230  1.0000
  C   C415      1.0  0.32322  0.89805  0.50506  1.0000
  C   C416      1.0  0.39285  0.97007  0.57500  1.0000
  C   C417      1.0  0.42974  0.85325  0.62212  1.0000
  C   C418      1.0  0.46530  0.97520  0.50233  1.0000
  C   C419      1.0  0.40231  0.97489  0.59366  1.0000
  H   H419      1.0  0.28242  0.49684  0.69807  1.0000
  H   H420      1.0  0.43945  0.54287  0.96646  1.0000
  C   C420      1.0  0.46735  0.84983  0.62007  1.0000
  C   C421      1.0  0.36305  0.52177  0.86180  1.0000
  H   H421      1.0  0.45328  0.91260  0.63407  1.0000
  H   H422      1.0  0.48367  0.87865  0.61803  1.0000
  C   C422      1.0  0.45207  0.90674  0.61798  1.0000
  C   C423      1.0  0.48176  0.67631  0.71953  1.0000
  H   H423      1.0  0.44537  0.95175  0.69431  1.0000
  H   H424      1.0  0.29040  0.80904  0.56076  1.0000
  S   S146      1.0  0.34302  0.74350  0.50366  1.0000
  H   H425      1.0  0.37833  0.61217  0.96819  1.0000
  C   C424      1.0  0.45441  0.96440  0.69994  1.0000
  C   C425      1.0  0.47309  0.95951  0.71007  1.0000
  N   N37       1.0  0.26529  0.80652  0.51508  1.0000
  H   H426      1.0  0.48155  0.84013  0.62028  1.0000
  C   C426      1.0  0.27410  0.79998  0.53346  1.0000
  H   H427      1.0  0.45673  0.56385  0.96857  1.0000
  C   C427      1.0  0.24165  0.63844  0.55051  1.0000
  H   H428      1.0  0.44679  0.82374  0.62300  1.0000
  H   H429      1.0  0.26840  0.49146  0.76083  1.0000
  C   C428      1.0  0.26794  0.68503  0.50057  1.0000
  H   H430      1.0  0.43824  0.91441  0.61052  1.0000
  C   C429      1.0  0.29108  0.51927  0.72028  1.0000
  H   H431      1.0  0.32136  0.49665  0.93739  1.0000
  C   C430      1.0  0.25667  0.79112  0.50143  1.0000
  H   H432      1.0  0.33424  0.51479  0.74999  1.0000
  H   H433      1.0  0.24840  0.77884  0.51083  1.0000
  H   H434      1.0  0.48210  0.52522  0.79837  1.0000
  H   H435      1.0  0.39305  0.98199  0.60611  1.0000
  C   C431      1.0  0.31940  0.49503  0.90371  1.0000
  C   C432      1.0  0.27396  0.84196  0.52164  1.0000
  C   C433      1.0  0.48516  0.97559  0.71697  1.0000
  H   H436      1.0  0.27437  0.85830  0.51667  1.0000
  C   C434      1.0  0.24637  0.68299  0.50510  1.0000
  Fe  Fe74      1.0  0.38070  0.96774  0.49615  1.0000
  H   H437      1.0  0.31714  0.84623  0.49540  1.0000
  Fe  Fe75      1.0  0.46910  0.62653  0.98938  1.0000
  H   H438      1.0  0.27676  0.67207  0.49389  1.0000
  S   S147      1.0  0.31959  0.92302  0.49276  1.0000
  H   H439      1.0  0.42309  0.97645  0.67716  1.0000
  N   N38       1.0  0.44797  0.98477  0.69676  1.0000
  C   C435      1.0  0.46169  0.98939  0.53681  1.0000
  C   C436      1.0  0.42834  0.98980  0.68621  1.0000
  H   H440      1.0  0.26954  0.78333  0.49225  1.0000
  H   H441      1.0  0.51015  0.15365  0.42691  1.0000
  C   C437      1.0  0.71518  0.48919  0.27234  1.0000
  C   C438      1.0  0.51194  0.19970  0.46427  1.0000
  S   S148      1.0  0.63776  0.46567  0.00901  1.0000
  N   N39       1.0  0.56296  0.03022  0.41516  1.0000
  C   C439      1.0  0.63255  0.47163  0.12616  1.0000
  C   C440      1.0  0.52474  0.02888  0.39567  1.0000
  H   H442      1.0  0.52263  0.31429  0.09858  1.0000
  C   C441      1.0  0.54140  0.18305  0.48266  1.0000
  C   C442      1.0  0.72251  0.36891  0.45487  1.0000
  C   C443      1.0  0.68082  0.13881  0.47193  1.0000
  Fe  Fe76      1.0  0.51316  0.17144  0.37414  1.0000
  S   S149      1.0  0.54288  0.16145  0.39056  1.0000
  S   S150      1.0  0.50823  0.16269  0.34082  1.0000
  Fe  Fe77      1.0  0.51125  0.34470  0.20831  1.0000
  S   S151      1.0  0.54524  0.35363  0.20962  1.0000
  N   N40       1.0  0.52605  0.18332  0.46606  1.0000
  Fe  Fe78      1.0  0.59515  0.46380  0.21567  1.0000
  S   S152      1.0  0.56319  0.44956  0.21974  1.0000
  S   S153      1.0  0.62619  0.44790  0.20922  1.0000
  C   C444      1.0  0.56846  0.37092  0.16077  1.0000
  S   S154      1.0  0.58324  0.21225  0.46240  1.0000
  S   S155      1.0  0.63809  0.18251  0.47116  1.0000
  H   H443      1.0  0.58257  0.02411  0.44139  1.0000
  S   S156      1.0  0.49947  0.20376  0.36957  1.0000
  H   H444      1.0  0.52097  0.06880  0.34639  1.0000
  H   H445      1.0  0.51447  0.13919  0.28705  1.0000
  C   C445      1.0  0.68892  0.45926  0.29019  1.0000
  H   H446      1.0  0.49929  0.45597  0.25080  1.0000
  H   H447      1.0  0.73278  0.31696  0.45010  1.0000
  C   C446      1.0  0.55039  0.38041  0.21136  1.0000
  C   C447      1.0  0.57100  0.38676  0.21374  1.0000
  C   C448      1.0  0.57537  0.40805  0.21548  1.0000
  C   C449      1.0  0.55907  0.42306  0.21495  1.0000
  C   C450      1.0  0.53859  0.41674  0.21198  1.0000
  C   C451      1.0  0.53424  0.39551  0.21025  1.0000
  H   H448      1.0  0.58360  0.37515  0.21452  1.0000
  H   H449      1.0  0.59122  0.41276  0.21779  1.0000
  H   H450      1.0  0.52591  0.42827  0.21141  1.0000
  H   H451      1.0  0.51832  0.39086  0.20838  1.0000
  C   C452      1.0  0.55451  0.17637  0.40969  1.0000
  C   C453      1.0  0.54746  0.19671  0.41402  1.0000
  C   C454      1.0  0.55669  0.20775  0.42992  1.0000
  C   C455      1.0  0.57290  0.19850  0.44167  1.0000
  C   C456      1.0  0.57991  0.17818  0.43734  1.0000
  C   C457      1.0  0.57082  0.16722  0.42134  1.0000
  H   H452      1.0  0.53490  0.20389  0.40517  1.0000
  H   H453      1.0  0.55118  0.22346  0.43323  1.0000
  H   H454      1.0  0.59235  0.17088  0.44631  1.0000
  H   H455      1.0  0.57636  0.15150  0.41808  1.0000
  H   H456      1.0  0.71053  0.45762  0.31575  1.0000
  H   H457      1.0  0.51340  0.44966  0.01402  1.0000
  C   C458      1.0  0.62863  0.07925  0.47772  1.0000
  C   C459      1.0  0.72725  0.37540  0.43423  1.0000
  H   H458      1.0  0.59658  0.44840  0.16187  1.0000
  H   H459      1.0  0.57133  0.36441  0.14501  1.0000
  H   H460      1.0  0.72735  0.36183  0.38733  1.0000
  C   C460      1.0  0.67417  0.14120  0.45133  1.0000
  N   N41       1.0  0.57603  0.39229  0.16119  1.0000
  H   H461      1.0  0.50987  0.02816  0.38802  1.0000
  C   C461      1.0  0.51083  0.27036  0.32336  1.0000
  Fe  Fe79      1.0  0.63996  0.47136  0.23049  1.0000
  H   H462      1.0  0.54545  0.02668  0.44391  1.0000
  H   H463      1.0  0.50651  0.31834  0.13417  1.0000
  H   H464      1.0  0.62748  0.04552  0.47750  1.0000
  C   C462      1.0  0.72440  0.34778  0.46056  1.0000
  C   C463      1.0  0.53322  0.40593  0.99451  1.0000
  H   H465      1.0  0.53854  0.37514  0.00813  1.0000
  S   S157      1.0  0.50015  0.31334  0.19834  1.0000
  C   C464      1.0  0.56938  0.42927  0.16364  1.0000
  H   H466      1.0  0.50826  0.27090  0.25390  1.0000
  H   H467      1.0  0.52558  0.38328  0.26163  1.0000
  H   H468      1.0  0.52161  0.24162  0.27669  1.0000
  C   C465      1.0  0.63104  0.05892  0.48652  1.0000
  H   H469      1.0  0.50561  0.10484  0.34805  1.0000
  H   H470      1.0  0.58763  0.04789  0.42643  1.0000
  H   H471      1.0  0.57629  0.38027  0.01370  1.0000
  H   H472      1.0  0.60804  0.38241  0.15759  1.0000
  C   C466      1.0  0.63461  0.45959  0.10812  1.0000
  C   C467      1.0  0.63092  0.46852  0.08806  1.0000
  H   H473      1.0  0.63938  0.44330  0.10960  1.0000
  H   H474      1.0  0.63287  0.45911  0.07433  1.0000
  C   C468      1.0  0.56674  0.39281  0.00699  1.0000
  S   S158      1.0  0.59872  0.00435  0.48870  1.0000
  C   C469      1.0  0.70695  0.46492  0.30076  1.0000
  H   H475      1.0  0.66428  0.12962  0.44490  1.0000
  C   C470      1.0  0.69206  0.17379  0.44814  1.0000
  C   C471      1.0  0.73585  0.34045  0.42517  1.0000
  S   S159      1.0  0.65979  0.46183  0.25904  1.0000
  S   S160      1.0  0.50252  0.21515  0.30847  1.0000
  C   C472      1.0  0.54539  0.38989  0.00379  1.0000
  H   H476      1.0  0.70824  0.18243  0.47535  1.0000
  C   C473      1.0  0.50486  0.43999  0.25349  1.0000
  H   H477      1.0  0.59557  0.02254  0.41651  1.0000
  C   C474      1.0  0.50516  0.24602  0.27747  1.0000
  H   H478      1.0  0.55608  0.40982  0.28415  1.0000
  H   H479      1.0  0.54555  0.40635  0.16502  1.0000
  H   H480      1.0  0.72617  0.39194  0.43011  1.0000
  H   H481      1.0  0.62144  0.41835  0.15786  1.0000
  C   C475      1.0  0.56312  0.42824  0.99325  1.0000
  H   H482      1.0  0.53617  0.44867  0.25982  1.0000
  H   H483      1.0  0.67881  0.44761  0.29726  1.0000
  H   H484      1.0  0.72105  0.34254  0.47658  1.0000
  H   H485      1.0  0.57652  0.36082  0.17266  1.0000
  Fe  Fe80      1.0  0.62976  0.47234  0.18320  1.0000
  H   H486      1.0  0.51259  0.21283  0.47451  1.0000
  H   H487      1.0  0.56503  0.42413  0.26091  1.0000
  S   S161      1.0  0.58852  0.46953  0.02529  1.0000
  S   S162      1.0  0.63857  0.45984  0.15093  1.0000
  S   S163      1.0  0.51391  0.34050  0.99831  1.0000
  C   C476      1.0  0.49888  0.40299  0.25461  1.0000
  H   H488      1.0  0.67610  0.12514  0.48115  1.0000
  H   H489      1.0  0.49390  0.27468  0.07602  1.0000
  H   H490      1.0  0.50936  0.48695  0.00350  1.0000
  N   N42       1.0  0.69254  0.15372  0.48048  1.0000
  C   C477      1.0  0.58312  0.03136  0.42536  1.0000
  H   H491      1.0  0.55849  0.44235  0.16590  1.0000
  S   S164      1.0  0.50285  0.02845  0.34319  1.0000
  C   C478      1.0  0.49952  0.28566  0.31204  1.0000
  C   C479      1.0  0.56221  0.40886  0.16323  1.0000
  H   H492      1.0  0.56098  0.39682  0.25959  1.0000
  C   C480      1.0  0.50052  0.25816  0.33863  1.0000
  Fe  Fe81      1.0  0.61781  0.48710  0.02933  1.0000
  S   S165      1.0  0.50626  0.31989  0.05727  1.0000
  H   H493      1.0  0.55143  0.37021  0.16470  1.0000
  Fe  Fe82      1.0  0.49313  0.33294  0.02659  1.0000
  C   C481      1.0  0.59707  0.39551  0.15924  1.0000
  H   H494      1.0  0.54253  0.03234  0.36677  1.0000
  C   C482      1.0  0.52557  0.02736  0.41743  1.0000
  Fe  Fe83      1.0  0.49530  0.37055  0.99648  1.0000
  C   C483      1.0  0.54316  0.03120  0.38374  1.0000
  Fe  Fe84      1.0  0.60718  0.19567  0.48299  1.0000
  C   C484      1.0  0.55481  0.41137  0.26690  1.0000
  C   C485      1.0  0.52569  0.43575  0.25869  1.0000
  H   H495      1.0  0.49837  0.26888  0.11404  1.0000
  S   S166      1.0  0.63135  0.12198  0.47660  1.0000
  C   C486      1.0  0.50415  0.07114  0.34704  1.0000
  C   C487      1.0  0.49584  0.18310  0.43571  1.0000
  C   C488      1.0  0.63341  0.09688  0.48909  1.0000
  C   C489      1.0  0.59078  0.43267  0.16165  1.0000
  C   C490      1.0  0.54492  0.02821  0.42700  1.0000
  C   C491      1.0  0.49838  0.45761  0.01655  1.0000
  C   C492      1.0  0.49796  0.32347  0.12053  1.0000
  C   C493      1.0  0.56226  0.03191  0.39380  1.0000
  C   C494      1.0  0.51024  0.16645  0.43766  1.0000
  C   C495      1.0  0.69706  0.48363  0.26184  1.0000
  N   N43       1.0  0.53296  0.41558  0.26145  1.0000
  H   H496      1.0  0.67407  0.16121  0.42369  1.0000
  H   H497      1.0  0.51136  0.02500  0.42679  1.0000
  N   N44       1.0  0.73393  0.36122  0.41971  1.0000
  C   C496      1.0  0.60475  0.41573  0.15942  1.0000
  H   H498      1.0  0.73847  0.38541  0.39613  1.0000
  C   C497      1.0  0.52527  0.16677  0.45310  1.0000
  C   C498      1.0  0.49763  0.26268  0.26449  1.0000
  H   H499      1.0  0.62316  0.08133  0.46194  1.0000
  C   C499      1.0  0.68368  0.46868  0.27076  1.0000
  H   H500      1.0  0.71803  0.38031  0.46652  1.0000
  S   S167      1.0  0.60810  0.48529  0.23893  1.0000
  H   H501      1.0  0.55596  0.17433  0.47787  1.0000
  H   H502      1.0  0.57652  0.03369  0.38441  1.0000
  C   C500      1.0  0.50703  0.32111  0.10031  1.0000
  Fe  Fe85      1.0  0.60759  0.44993  0.00311  1.0000
  C   C501      1.0  0.73880  0.36808  0.39807  1.0000
  H   H503      1.0  0.53669  0.15396  0.45420  1.0000
  C   C502      1.0  0.69863  0.17077  0.46870  1.0000
  C   C503      1.0  0.49666  0.19985  0.44903  1.0000
  H   H504      1.0  0.54624  0.19914  0.48595  1.0000
  C   C504      1.0  0.51980  0.39929  0.25971  1.0000
  C   C505      1.0  0.73105  0.33341  0.44564  1.0000
  H   H505      1.0  0.65438  0.48649  0.32065  1.0000
  H   H506      1.0  0.50083  0.41966  0.03186  1.0000
  C   C506      1.0  0.49577  0.32669  0.08231  1.0000
  H   H507      1.0  0.50755  0.29463  0.29976  1.0000
  H   H508      1.0  0.50900  0.24575  0.34696  1.0000
  C   C507      1.0  0.49548  0.09161  0.34796  1.0000
  S   S168      1.0  0.59793  0.48691  0.18879  1.0000
  S   S169      1.0  0.60260  0.41542  0.00376  1.0000
  H   H509      1.0  0.69627  0.18776  0.43918  1.0000
  H   H510      1.0  0.52731  0.26740  0.31981  1.0000
  C   C508      1.0  0.72020  0.48004  0.29196  1.0000
  H   H511      1.0  0.50684  0.17725  0.28351  1.0000
  C   C509      1.0  0.67965  0.15891  0.43946  1.0000
  C   C510      1.0  0.49618  0.47874  0.01056  1.0000
  C   C511      1.0  0.49847  0.14502  0.28905  1.0000
  H   H512      1.0  0.50134  0.10603  0.30554  1.0000
  C   C512      1.0  0.57567  0.41197  0.00149  1.0000
  C   C513      1.0  0.49427  0.16652  0.28695  1.0000
  C   C514      1.0  0.49173  0.23527  0.29168  1.0000
  Fe  Fe86      1.0  0.49209  0.19446  0.33688  1.0000
  C   C515      1.0  0.49142  0.42346  0.25139  1.0000
  C   C516      1.0  0.62552  0.48977  0.08578  1.0000
  C   C517      1.0  0.49125  0.05373  0.34659  1.0000
  H   H513      1.0  0.53521  0.21610  0.71358  1.0000
  C   C518      1.0  0.68422  0.25324  0.49590  1.0000
  H   H514      1.0  0.68796  0.46915  0.93878  1.0000
  S   S170      1.0  0.64343  0.03049  0.51774  1.0000
  S   S171      1.0  0.49555  0.99365  0.61608  1.0000
  H   H515      1.0  0.69865  0.16639  0.51002  1.0000
  H   H516      1.0  0.50753  0.19438  0.72260  1.0000
  H   H517      1.0  0.58408  0.99079  0.55353  1.0000
  S   S172      1.0  0.60215  0.47625  0.82609  1.0000
  S   S173      1.0  0.49571  0.22241  0.68389  1.0000
  Fe  Fe87      1.0  0.64583  0.46522  0.78226  1.0000
  S   S174      1.0  0.61152  0.45917  0.77834  1.0000
  H   H518      1.0  0.68458  0.28681  0.49152  1.0000
  Fe  Fe88      1.0  0.61093  0.44586  0.81108  1.0000
  S   S175      1.0  0.59546  0.41634  0.82352  1.0000
  S   S176      1.0  0.64557  0.44933  0.81435  1.0000
  H   H519      1.0  0.57971  0.13632  0.55381  1.0000
  C   C519      1.0  0.49929  0.25492  0.71092  1.0000
  S   S177      1.0  0.53216  0.36418  0.77298  1.0000
  H   H520      1.0  0.66757  0.25236  0.49369  1.0000
  S   S178      1.0  0.50714  0.19142  0.58568  1.0000
  S   S179      1.0  0.51215  0.17570  0.64771  1.0000
  H   H521      1.0  0.50361  0.30716  0.87280  1.0000
  H   H522      1.0  0.70760  0.30326  0.53757  1.0000
  C   C520      1.0  0.53316  0.14941  0.69138  1.0000
  H   H523      1.0  0.54014  0.13695  0.68213  1.0000
  H   H524      1.0  0.54456  0.14566  0.55976  1.0000
  S   S180      1.0  0.62099  0.21117  0.51056  1.0000
  H   H525      1.0  0.65297  0.44370  0.90582  1.0000
  Fe  Fe89      1.0  0.61468  0.18066  0.52760  1.0000
  S   S181      1.0  0.60310  0.17653  0.56126  1.0000
  S   S182      1.0  0.64613  0.16618  0.51895  1.0000
  C   C521      1.0  0.68452  0.45575  0.92886  1.0000
  C   C522      1.0  0.71989  0.30529  0.54864  1.0000
  H   H526      1.0  0.68315  0.46219  0.91259  1.0000
  C   C523      1.0  0.56054  0.38367  0.95505  1.0000
  H   H527      1.0  0.64449  0.10735  0.51834  1.0000
  H   H528      1.0  0.64949  0.07141  0.53365  1.0000
  C   C524      1.0  0.53403  0.18828  0.57933  1.0000
  C   C525      1.0  0.54107  0.19166  0.55853  1.0000
  C   C526      1.0  0.56229  0.18838  0.55280  1.0000
  C   C527      1.0  0.57659  0.18182  0.56792  1.0000
  C   C528      1.0  0.56957  0.17857  0.58874  1.0000
  C   C529      1.0  0.54835  0.18176  0.59444  1.0000
  H   H529      1.0  0.53007  0.19676  0.54678  1.0000
  H   H530      1.0  0.56760  0.19097  0.53674  1.0000
  H   H531      1.0  0.58059  0.17352  0.60048  1.0000
  H   H532      1.0  0.54309  0.17911  0.61048  1.0000
  C   C530      1.0  0.57560  0.40382  0.81037  1.0000
  C   C531      1.0  0.56953  0.41045  0.79037  1.0000
  C   C532      1.0  0.55564  0.39850  0.77931  1.0000
  C   C533      1.0  0.54719  0.38024  0.78840  1.0000
  C   C534      1.0  0.55250  0.37418  0.80878  1.0000
  C   C535      1.0  0.56681  0.38582  0.81962  1.0000
  H   H533      1.0  0.57609  0.42437  0.78317  1.0000
  H   H534      1.0  0.55154  0.40330  0.76356  1.0000
  H   H535      1.0  0.54621  0.36006  0.81587  1.0000
  H   H536      1.0  0.57140  0.38059  0.83510  1.0000
  C   C536      1.0  0.72184  0.47764  0.71140  1.0000
  H   H537      1.0  0.51567  0.35357  0.91500  1.0000
  H   H538      1.0  0.55977  0.20369  0.70614  1.0000
  C   C537      1.0  0.68882  0.46330  0.73893  1.0000
  S   S183      1.0  0.68482  0.20945  0.50097  1.0000
  H   H539      1.0  0.56962  0.44317  0.98935  1.0000
  C   C538      1.0  0.63871  0.05593  0.50668  1.0000
  C   C539      1.0  0.62893  0.42665  0.95090  1.0000
  H   H540      1.0  0.50321  0.28050  0.73186  1.0000
  C   C540      1.0  0.51379  0.36387  0.92868  1.0000
  C   C541      1.0  0.49200  0.00020  0.55586  1.0000
  C   C542      1.0  0.65066  0.44027  0.92245  1.0000
  N   N45       1.0  0.56140  0.12481  0.58023  1.0000
  H   H541      1.0  0.59669  0.37513  0.77656  1.0000
  H   H542      1.0  0.56876  0.33139  0.96258  1.0000
  C   C543      1.0  0.61094  0.38387  0.77719  1.0000
  C   C544      1.0  0.64347  0.07357  0.51808  1.0000
  C   C545      1.0  0.64065  0.09397  0.50944  1.0000
  C   C546      1.0  0.64663  0.40699  0.78009  1.0000
  C   C547      1.0  0.54391  0.13564  0.57372  1.0000
  H   H543      1.0  0.61963  0.48043  0.92614  1.0000
  C   C548      1.0  0.69761  0.45058  0.72310  1.0000
  C   C549      1.0  0.50511  0.16253  0.71380  1.0000
  H   H544      1.0  0.72711  0.22252  0.50551  1.0000
  H   H545      1.0  0.56703  0.39851  0.95879  1.0000
  N   N46       1.0  0.66518  0.44592  0.93637  1.0000
  C   C550      1.0  0.54298  0.20526  0.70229  1.0000
  C   C551      1.0  0.63220  0.43080  0.92951  1.0000
  H   H546      1.0  0.50853  0.37958  0.92284  1.0000
  H   H547      1.0  0.52516  0.07467  0.65479  1.0000
  C   C552      1.0  0.63327  0.48582  0.89490  1.0000
  S   S184      1.0  0.50723  0.40228  0.98803  1.0000
  Fe  Fe90      1.0  0.62835  0.48645  0.98142  1.0000
  S   S185      1.0  0.59828  0.16664  0.50115  1.0000
  C   C553      1.0  0.71391  0.45767  0.70942  1.0000
  C   C554      1.0  0.56150  0.34603  0.95725  1.0000
  H   H548      1.0  0.58447  0.36532  0.97062  1.0000
  Fe  Fe91      1.0  0.50591  0.34416  0.78652  1.0000
  H   H549      1.0  0.69778  0.44422  0.92931  1.0000
  S   S186      1.0  0.50690  0.31399  0.80593  1.0000
  H   H550      1.0  0.62044  0.42699  0.91848  1.0000
  H   H551      1.0  0.55683  0.48300  0.81165  1.0000
  S   S187      1.0  0.59980  0.46914  0.97438  1.0000
  C   C555      1.0  0.54083  0.48243  0.80539  1.0000
  C   C556      1.0  0.64404  0.43202  0.96489  1.0000
  Fe  Fe92      1.0  0.62907  0.00138  0.50517  1.0000
  H   H552      1.0  0.59307  0.13386  0.57791  1.0000
  C   C557      1.0  0.73693  0.29124  0.54918  1.0000
  C   C558      1.0  0.56063  0.11260  0.59815  1.0000
  C   C559      1.0  0.52505  0.13450  0.58532  1.0000
  C   C560      1.0  0.54198  0.11098  0.61004  1.0000
  C   C561      1.0  0.52412  0.12201  0.60353  1.0000
  H   H553      1.0  0.69169  0.43512  0.72132  1.0000
  H   H554      1.0  0.72030  0.44767  0.69735  1.0000
  H   H555      1.0  0.57453  0.10411  0.60336  1.0000
  C   C562      1.0  0.49951  0.05346  0.65533  1.0000
  C   C563      1.0  0.71907  0.32215  0.56206  1.0000
  C   C564      1.0  0.54244  0.16891  0.69171  1.0000
  H   H556      1.0  0.71559  0.14463  0.50233  1.0000
  H   H557      1.0  0.67343  0.44669  0.96840  1.0000
  C   C565      1.0  0.54175  0.38311  0.94447  1.0000
  S   S188      1.0  0.49914  0.31003  0.94979  1.0000
  N   N47       1.0  0.53340  0.36442  0.93987  1.0000
  H   H558      1.0  0.65089  0.39105  0.80984  1.0000
  H   H559      1.0  0.68892  0.14055  0.51147  1.0000
  C   C566      1.0  0.62351  0.38091  0.79460  1.0000
  H   H560      1.0  0.53337  0.46804  0.81168  1.0000
  H   H561      1.0  0.50953  0.03962  0.65435  1.0000
  C   C567      1.0  0.69603  0.23487  0.49979  1.0000
  C   C568      1.0  0.51432  0.14628  0.70242  1.0000
  C   C569      1.0  0.72745  0.25614  0.50144  1.0000
  C   C570      1.0  0.50147  0.30849  0.90666  1.0000
  N   N48       1.0  0.53331  0.18477  0.70292  1.0000
  S   S189      1.0  0.66833  0.45318  0.75586  1.0000
  C   C571      1.0  0.63356  0.40977  0.76303  1.0000
  N   N49       1.0  0.61596  0.39831  0.76178  1.0000
  C   C572      1.0  0.60191  0.40247  0.74435  1.0000
  H   H562      1.0  0.63740  0.42150  0.75102  1.0000
  H   H563      1.0  0.58988  0.39034  0.74354  1.0000
  H   H564      1.0  0.59367  0.41782  0.74639  1.0000
  H   H565      1.0  0.61092  0.40283  0.72922  1.0000
  H   H566      1.0  0.66040  0.41637  0.78115  1.0000
  H   H567      1.0  0.72044  0.34007  0.60174  1.0000
  H   H568      1.0  0.53377  0.39774  0.94029  1.0000
  H   H569      1.0  0.50905  0.26174  0.69856  1.0000
  H   H570      1.0  0.55675  0.17143  0.68258  1.0000
  H   H571      1.0  0.51502  0.29828  0.90897  1.0000
  C   C573      1.0  0.49559  0.09162  0.65706  1.0000
  C   C574      1.0  0.49607  0.26560  0.72985  1.0000
  H   H572      1.0  0.70589  0.33315  0.56137  1.0000
  H   H573      1.0  0.54146  0.21263  0.68642  1.0000
  H   H574      1.0  0.54131  0.10139  0.62433  1.0000
  H   H575      1.0  0.62074  0.47873  0.88690  1.0000
  C   C575      1.0  0.63260  0.48688  0.91712  1.0000
  C   C576      1.0  0.71565  0.27449  0.49743  1.0000
  H   H576      1.0  0.53280  0.43757  0.98216  1.0000
  C   C577      1.0  0.66210  0.44188  0.95734  1.0000
  Fe  Fe93      1.0  0.65161  0.19608  0.49996  1.0000
  H   H577      1.0  0.50962  0.12093  0.61270  1.0000
  H   H578      1.0  0.61885  0.37028  0.80730  1.0000
  S   S190      1.0  0.50753  0.11631  0.65855  1.0000
  C   C578      1.0  0.64139  0.39267  0.79609  1.0000
  H   H579      1.0  0.58726  0.11075  0.56368  1.0000
  H   H580      1.0  0.50134  0.35758  0.93932  1.0000
  C   C579      1.0  0.54301  0.34603  0.94612  1.0000
  C   C580      1.0  0.57032  0.36501  0.96168  1.0000
  H   H581      1.0  0.50671  0.13137  0.70179  1.0000
  C   C581      1.0  0.54209  0.42512  0.98940  1.0000
  C   C582      1.0  0.58127  0.12644  0.56832  1.0000
  C   C583      1.0  0.50833  0.07341  0.65557  1.0000
  Fe  Fe94      1.0  0.63002  0.15408  0.49124  1.0000
  H   H582      1.0  0.51137  0.14359  0.58041  1.0000
  H   H583      1.0  0.54293  0.48156  0.78810  1.0000
  Fe  Fe95      1.0  0.49497  0.18231  0.61815  1.0000
  H   H584      1.0  0.61464  0.41953  0.95676  1.0000
  H   H585      1.0  0.53624  0.33122  0.94269  1.0000
  C   C584      1.0  0.49506  0.31352  0.88612  1.0000
  C   C585      1.0  0.51492  0.18176  0.71395  1.0000
  H   H586      1.0  0.64159  0.42884  0.98153  1.0000
  C   C586      1.0  0.69677  0.48327  0.74090  1.0000
  H   H587      1.0  0.73794  0.27836  0.53852  1.0000
  S   S191      1.0  0.72694  0.29985  0.49562  1.0000
  N   N50       1.0  0.73475  0.32488  0.57573  1.0000
  H   H588      1.0  0.53475  0.17572  0.49721  1.0000
  C   C587      1.0  0.69397  0.27283  0.49467  1.0000
  C   C588      1.0  0.69933  0.15112  0.50212  1.0000
  C   C589      1.0  0.71772  0.23654  0.50255  1.0000
  Fe  Fe96      1.0  0.63672  0.48074  0.82733  1.0000
  H   H589      1.0  0.50781  0.00648  0.55247  1.0000
  H   H590      1.0  0.73009  0.35730  0.58085  1.0000
  C   C590      1.0  0.73321  0.34250  0.58986  1.0000
  Fe  Fe97      1.0  0.49120  0.14796  0.65204  1.0000
  C   C591      1.0  0.56515  0.97896  0.45141  1.0000
  C   C592      1.0  0.54402  0.57294  0.99549  1.0000
  C   C593      1.0  0.56541  0.54141  0.17577  1.0000
  H   H591      1.0  0.63252  0.91032  0.47664  1.0000
  C   C594      1.0  0.56578  0.92696  0.44404  1.0000
  H   H592      1.0  0.68213  0.76067  0.47808  1.0000
  C   C595      1.0  0.50428  0.61500  0.11335  1.0000
  H   H593      1.0  0.51030  0.69751  0.35222  1.0000
  S   S192      1.0  0.63352  0.83355  0.47602  1.0000
  S   S193      1.0  0.50743  0.61674  0.15599  1.0000
  C   C596      1.0  0.54588  0.53562  0.18392  1.0000
  C   C597      1.0  0.53440  0.57181  0.18228  1.0000
  S   S194      1.0  0.54185  0.59990  0.99946  1.0000
  S   S195      1.0  0.57979  0.74509  0.46780  1.0000
  C   C598      1.0  0.49576  0.62358  0.13183  1.0000
  Fe  Fe98      1.0  0.51307  0.77641  0.37328  1.0000
  S   S196      1.0  0.54684  0.78094  0.38090  1.0000
  C   C599      1.0  0.63215  0.87652  0.47680  1.0000
  Fe  Fe99      1.0  0.61214  0.97853  0.46912  1.0000
  S   S197      1.0  0.51473  0.56959  0.24444  1.0000
  S   S198      1.0  0.51367  0.62657  0.21609  1.0000
  C   C600      1.0  0.52987  0.72285  0.34168  1.0000
  H   H594      1.0  0.70121  0.53085  0.30304  1.0000
  H   H595      1.0  0.69345  0.49093  0.24687  1.0000
  S   S199      1.0  0.60512  0.97920  0.43501  1.0000
  S   S200      1.0  0.55035  0.50211  0.99335  1.0000
  C   C601      1.0  0.69486  0.61240  0.48512  1.0000
  S   S201      1.0  0.51288  0.97445  0.36730  1.0000
  Fe  Fe100     1.0  0.61350  0.50703  0.21142  1.0000
  S   S202      1.0  0.60621  0.54171  0.21311  1.0000
  C   C602      1.0  0.55077  0.52677  0.04963  1.0000
  C   C603      1.0  0.53021  0.55089  0.18712  1.0000
  H   H596      1.0  0.56656  0.74600  0.32208  1.0000
  C   C604      1.0  0.55272  0.75175  0.33131  1.0000
  H   H597      1.0  0.54823  0.57933  0.04175  1.0000
  H   H598      1.0  0.58060  0.59072  0.02607  1.0000
  C   C605      1.0  0.68651  0.80589  0.47936  1.0000
  C   C606      1.0  0.54055  0.56237  0.23652  1.0000
  C   C607      1.0  0.55456  0.57707  0.22829  1.0000
  C   C608      1.0  0.57491  0.57067  0.22180  1.0000
  C   C609      1.0  0.58123  0.54951  0.22308  1.0000
  C   C610      1.0  0.56727  0.53485  0.23143  1.0000
  C   C611      1.0  0.54710  0.54131  0.23834  1.0000
  H   H599      1.0  0.54976  0.59337  0.22711  1.0000
  H   H600      1.0  0.58568  0.58210  0.21549  1.0000
  H   H601      1.0  0.57194  0.51851  0.23247  1.0000
  H   H602      1.0  0.53638  0.52989  0.24479  1.0000
  H   H603      1.0  0.55265  0.78678  0.47634  1.0000
  H   H604      1.0  0.57468  0.60286  0.17231  1.0000
  H   H605      1.0  0.52532  0.54958  0.04981  1.0000
  C   C612      1.0  0.54210  0.54696  0.04808  1.0000
  C   C613      1.0  0.57099  0.75529  0.44362  1.0000
  C   C614      1.0  0.55325  0.74687  0.43503  1.0000
  C   C615      1.0  0.54532  0.75511  0.41616  1.0000
  C   C616      1.0  0.55554  0.77134  0.40537  1.0000
  C   C617      1.0  0.57342  0.77959  0.41383  1.0000
  C   C618      1.0  0.58095  0.77183  0.43308  1.0000
  H   H606      1.0  0.54540  0.73417  0.44321  1.0000
  H   H607      1.0  0.53149  0.74869  0.40985  1.0000
  H   H608      1.0  0.58143  0.79212  0.40553  1.0000
  H   H609      1.0  0.59463  0.77842  0.43960  1.0000
  S   S203      1.0  0.61138  0.50954  0.00224  1.0000
  C   C619      1.0  0.51020  0.75786  0.48542  1.0000
  C   C620      1.0  0.58611  0.92695  0.43554  1.0000
  N   N51       1.0  0.55379  0.57741  0.17490  1.0000
  H   H610      1.0  0.61919  0.51822  0.10229  1.0000
  H   H611      1.0  0.70403  0.77166  0.46346  1.0000
  H   H612      1.0  0.52067  0.93576  0.40237  1.0000
  H   H613      1.0  0.57794  0.52979  0.17385  1.0000
  H   H614      1.0  0.57931  0.50809  0.04853  1.0000
  C   C621      1.0  0.55793  0.59949  0.17033  1.0000
  N   N52       1.0  0.57616  0.56037  0.03992  1.0000
  S   S204      1.0  0.50773  0.91822  0.34908  1.0000
  H   H615      1.0  0.54869  0.60971  0.18117  1.0000
  Fe  Fe101     1.0  0.49842  0.59837  0.23060  1.0000
  H   H616      1.0  0.60507  0.92693  0.40717  1.0000
  C   C622      1.0  0.52674  0.78579  0.45587  1.0000
  C   C623      1.0  0.50757  0.77684  0.45238  1.0000
  C   C624      1.0  0.58489  0.54073  0.04221  1.0000
  C   C625      1.0  0.55515  0.56372  0.04341  1.0000
  H   H617      1.0  0.68963  0.61162  0.46919  1.0000
  N   N53       1.0  0.55212  0.92673  0.40943  1.0000
  H   H618      1.0  0.74074  0.53654  0.44575  1.0000
  H   H619      1.0  0.54010  0.75652  0.32044  1.0000
  C   C626      1.0  0.53339  0.70428  0.37483  1.0000
  H   H620      1.0  0.60255  0.57307  0.02351  1.0000
  C   C627      1.0  0.52335  0.70712  0.35584  1.0000
  S   S205      1.0  0.50717  0.97500  0.42963  1.0000
  H   H621      1.0  0.60165  0.53809  0.04008  1.0000
  C   C628      1.0  0.52869  0.53874  0.99825  1.0000
  H   H622      1.0  0.54086  0.51351  0.05266  1.0000
  C   C629      1.0  0.53434  0.97699  0.43063  1.0000
  H   H623      1.0  0.49876  0.71872  0.25778  1.0000
  S   S206      1.0  0.49477  0.74798  0.38155  1.0000
  H   H624      1.0  0.49332  0.73659  0.29162  1.0000
  C   C630      1.0  0.54885  0.92679  0.43067  1.0000
  H   H625      1.0  0.69547  0.64605  0.48462  1.0000
  H   H626      1.0  0.58459  0.56689  0.16571  1.0000
  H   H627      1.0  0.63002  0.87586  0.46012  1.0000
  N   N54       1.0  0.65796  0.51810  0.27746  1.0000
  C   C631      1.0  0.67599  0.52802  0.28155  1.0000
  C   C632      1.0  0.65014  0.50344  0.29132  1.0000
  C   C633      1.0  0.68652  0.52354  0.30011  1.0000
  H   H628      1.0  0.50197  0.61292  0.07978  1.0000
  C   C634      1.0  0.67857  0.50873  0.31441  1.0000
  C   C635      1.0  0.64786  0.52183  0.25736  1.0000
  C   C636      1.0  0.53417  0.92661  0.39569  1.0000
  H   H629      1.0  0.49686  0.97348  0.48952  1.0000
  C   C637      1.0  0.58955  0.57799  0.03437  1.0000
  H   H630      1.0  0.72530  0.50081  0.26525  1.0000
  S   S207      1.0  0.50111  0.77976  0.34048  1.0000
  H   H631      1.0  0.63053  0.52195  0.25937  1.0000
  H   H632      1.0  0.65200  0.53712  0.24995  1.0000
  H   H633      1.0  0.65277  0.50923  0.24655  1.0000
  N   N55       1.0  0.54586  0.73549  0.34639  1.0000
  Fe  Fe102     1.0  0.60320  0.76241  0.48616  1.0000
  C   C638      1.0  0.55613  0.73246  0.36474  1.0000
  C   C639      1.0  0.49919  0.76281  0.46724  1.0000
  C   C640      1.0  0.54996  0.71695  0.37930  1.0000
  H   H634      1.0  0.51532  0.52918  0.00193  1.0000
  C   C641      1.0  0.58930  0.92654  0.41388  1.0000
  H   H635      1.0  0.53378  0.79612  0.44406  1.0000
  H   H636      1.0  0.56885  0.74245  0.36846  1.0000
  C   C642      1.0  0.56912  0.56250  0.17131  1.0000
  H   H637      1.0  0.55780  0.71506  0.39410  1.0000
  S   S208      1.0  0.63615  0.77131  0.47713  1.0000
  H   H638      1.0  0.54313  0.51944  0.18836  1.0000
  C   C643      1.0  0.56880  0.97842  0.41372  1.0000
  H   H639      1.0  0.57462  0.92606  0.38413  1.0000
  H   H640      1.0  0.53377  0.97763  0.46430  1.0000
  H   H641      1.0  0.59937  0.92781  0.44567  1.0000
  C   C644      1.0  0.57202  0.92625  0.40097  1.0000
  H   H642      1.0  0.52231  0.58363  0.18515  1.0000
  H   H643      1.0  0.62503  0.50224  0.13763  1.0000
  H   H644      1.0  0.52182  0.72504  0.32705  1.0000
  Fe  Fe103     1.0  0.50820  0.60705  0.00751  1.0000
  H   H645      1.0  0.52938  0.91034  0.39332  1.0000
  H   H646      1.0  0.51201  0.56722  0.00486  1.0000
  C   C645      1.0  0.69710  0.76882  0.47937  1.0000
  H   H647      1.0  0.59617  0.58418  0.04871  1.0000
  H   H648      1.0  0.68267  0.53902  0.27020  1.0000
  H   H649      1.0  0.52163  0.87577  0.35736  1.0000
  H   H650      1.0  0.53306  0.92745  0.43736  1.0000
  H   H651      1.0  0.51517  0.54673  0.19411  1.0000
  C   C646      1.0  0.62323  0.50176  0.10386  1.0000
  C   C647      1.0  0.66023  0.49863  0.31005  1.0000
  H   H652      1.0  0.55339  0.60375  0.15408  1.0000
  H   H653      1.0  0.56316  0.92779  0.46084  1.0000
  H   H654      1.0  0.53795  0.93387  0.38007  1.0000
  C   C648      1.0  0.57233  0.52366  0.04702  1.0000
  H   H655      1.0  0.67581  0.71918  0.48008  1.0000
  C   C649      1.0  0.54703  0.97751  0.41243  1.0000
  H   H656      1.0  0.55691  0.76605  0.33954  1.0000
  C   C650      1.0  0.49447  0.89428  0.34847  1.0000
  C   C651      1.0  0.49320  0.70995  0.27145  1.0000
  C   C652      1.0  0.57790  0.97892  0.43326  1.0000
  C   C653      1.0  0.50542  0.87542  0.35307  1.0000
  H   H657      1.0  0.54025  0.97711  0.39736  1.0000
  H   H658      1.0  0.52821  0.69240  0.38611  1.0000
  H   H659      1.0  0.57187  0.97959  0.46657  1.0000
  S   S209      1.0  0.62243  0.50230  0.06076  1.0000
  C   C654      1.0  0.54800  0.52938  0.99290  1.0000
  S   S210      1.0  0.64612  0.49450  0.20383  1.0000
  Fe  Fe104     1.0  0.49315  0.62163  0.18865  1.0000
  H   H660      1.0  0.68369  0.80528  0.46274  1.0000
  H   H661      1.0  0.70019  0.69144  0.46661  1.0000
  H   H662      1.0  0.51779  0.60451  0.11415  1.0000
  Fe  Fe105     1.0  0.58338  0.49034  0.99716  1.0000
  H   H663      1.0  0.57857  0.97854  0.39961  1.0000
  C   C655      1.0  0.70175  0.69677  0.48237  1.0000
  S   S211      1.0  0.49316  0.63895  0.01053  1.0000
  C   C656      1.0  0.54345  0.97789  0.45012  1.0000
  Fe  Fe106     1.0  0.49433  0.97433  0.39739  1.0000
  C   C657      1.0  0.49562  0.85604  0.35197  1.0000
  H   H664      1.0  0.50425  0.84168  0.35554  1.0000
  H   H665      1.0  0.69698  0.57898  0.49015  1.0000
  C   C658      1.0  0.52676  0.56042  0.99973  1.0000
  C   C659      1.0  0.53733  0.78047  0.47420  1.0000
  C   C660      1.0  0.62650  0.49272  0.12395  1.0000
  C   C661      1.0  0.49540  0.61982  0.09382  1.0000
  H   H666      1.0  0.63652  0.49473  0.28751  1.0000
  S   S212      1.0  0.49203  0.59324  0.03603  1.0000
  S   S213      1.0  0.64368  0.97699  0.48386  1.0000
  H   H667      1.0  0.70803  0.75812  0.48801  1.0000
  H   H668      1.0  0.68705  0.50455  0.32845  1.0000
  C   C662      1.0  0.63373  0.85783  0.48882  1.0000
  H   H669      1.0  0.49939  0.78042  0.43802  1.0000
  C   C663      1.0  0.63353  0.89610  0.48614  1.0000
  S   S214      1.0  0.73474  0.66800  0.48414  1.0000
  Fe  Fe107     1.0  0.49175  0.94913  0.35780  1.0000
  N   N56       1.0  0.52893  0.76683  0.48879  1.0000
  S   S215      1.0  0.59884  0.95257  0.48906  1.0000
  C   C664      1.0  0.68787  0.71258  0.48997  1.0000
  H   H670      1.0  0.67730  0.83854  0.48076  1.0000
  N   N57       1.0  0.69336  0.78845  0.49029  1.0000
  C   C665      1.0  0.68275  0.82474  0.48948  1.0000
  H   H671      1.0  0.58403  0.82062  0.59368  1.0000
  C   C666      1.0  0.52216  0.53175  0.83102  1.0000
  H   H672      1.0  0.71908  0.50577  0.72911  1.0000
  C   C667      1.0  0.70627  0.59548  0.51718  1.0000
  H   H673      1.0  0.56608  0.92121  0.53539  1.0000
  S   S216      1.0  0.50789  0.76666  0.66423  1.0000
  C   C668      1.0  0.52700  0.61756  0.74438  1.0000
  C   C669      1.0  0.70567  0.71097  0.52274  1.0000
  H   H674      1.0  0.57273  0.60387  0.78073  1.0000
  H   H675      1.0  0.53629  0.60546  0.91266  1.0000
  H   H676      1.0  0.59883  0.77133  0.60228  1.0000
  C   C670      1.0  0.71937  0.69495  0.51524  1.0000
  C   C671      1.0  0.55996  0.76686  0.63918  1.0000
  C   C672      1.0  0.50325  0.53573  0.82114  1.0000
  S   S217      1.0  0.64072  0.92144  0.51965  1.0000
  H   H677      1.0  0.52379  0.64591  0.76133  1.0000
  H   H678      1.0  0.55084  0.77352  0.51219  1.0000
  H   H679      1.0  0.56364  0.57920  0.75368  1.0000
  C   C673      1.0  0.53262  0.63130  0.75971  1.0000
  C   C674      1.0  0.55411  0.97694  0.55048  1.0000
  S   S218      1.0  0.51908  0.73981  0.61052  1.0000
  H   H680      1.0  0.67842  0.51121  0.92334  1.0000
  Fe  Fe108     1.0  0.50919  0.60440  0.81287  1.0000
  S   S219      1.0  0.54238  0.59326  0.81911  1.0000
  C   C675      1.0  0.71812  0.61575  0.54642  1.0000
  Fe  Fe109     1.0  0.60475  0.78083  0.52930  1.0000
  S   S220      1.0  0.58553  0.79181  0.55743  1.0000
  S   S221      1.0  0.63792  0.79098  0.52391  1.0000
  C   C676      1.0  0.55469  0.64091  0.78850  1.0000
  C   C677      1.0  0.50171  0.66968  0.91248  1.0000
  C   C678      1.0  0.57175  0.92435  0.55078  1.0000
  Fe  Fe110     1.0  0.62900  0.95264  0.50562  1.0000
  C   C679      1.0  0.53546  0.75451  0.59332  1.0000
  C   C680      1.0  0.55005  0.74416  0.58010  1.0000
  C   C681      1.0  0.56474  0.75550  0.56787  1.0000
  C   C682      1.0  0.56493  0.77726  0.56888  1.0000
  C   C683      1.0  0.54976  0.78764  0.58137  1.0000
  C   C684      1.0  0.53511  0.77633  0.59355  1.0000
  H   H681      1.0  0.55041  0.72728  0.57984  1.0000
  H   H682      1.0  0.57647  0.74733  0.55842  1.0000
  H   H683      1.0  0.54974  0.80447  0.58218  1.0000
  H   H684      1.0  0.52402  0.78448  0.60367  1.0000
  H   H685      1.0  0.60049  0.82475  0.61574  1.0000
  C   C685      1.0  0.63709  0.89719  0.50756  1.0000
  S   S222      1.0  0.57890  0.50980  0.77919  1.0000
  H   H686      1.0  0.49617  0.66598  0.89670  1.0000
  C   C686      1.0  0.56908  0.53294  0.79059  1.0000
  C   C687      1.0  0.55047  0.54220  0.78317  1.0000
  C   C688      1.0  0.54188  0.56040  0.79214  1.0000
  C   C689      1.0  0.55212  0.56977  0.80828  1.0000
  C   C690      1.0  0.57080  0.56059  0.81561  1.0000
  C   C691      1.0  0.57916  0.54209  0.80695  1.0000
  H   H687      1.0  0.54256  0.53513  0.77055  1.0000
  H   H688      1.0  0.52747  0.56730  0.78638  1.0000
  H   H689      1.0  0.57886  0.56777  0.82807  1.0000
  H   H690      1.0  0.59354  0.53509  0.81275  1.0000
  H   H691      1.0  0.57835  0.74444  0.62159  1.0000
  C   C692      1.0  0.53442  0.51414  0.82568  1.0000
  C   C693      1.0  0.58725  0.77614  0.61406  1.0000
  H   H692      1.0  0.69330  0.80781  0.53897  1.0000
  N   N58       1.0  0.59908  0.93623  0.57209  1.0000
  H   H693      1.0  0.53006  0.75712  0.52108  1.0000
  C   C694      1.0  0.68520  0.82551  0.51102  1.0000
  H   H694      1.0  0.51981  0.63627  0.89476  1.0000
  H   H695      1.0  0.73150  0.68839  0.52508  1.0000
  H   H696      1.0  0.54153  0.65189  0.79259  1.0000
  C   C695      1.0  0.55221  0.97573  0.59436  1.0000
  H   H697      1.0  0.56391  0.81936  0.63356  1.0000
  C   C696      1.0  0.59455  0.81290  0.60526  1.0000
  H   H698      1.0  0.55086  0.74680  0.50419  1.0000
  H   H699      1.0  0.60188  0.93349  0.53893  1.0000
  C   C697      1.0  0.56763  0.80294  0.63130  1.0000
  N   N59       1.0  0.58314  0.79689  0.61739  1.0000
  H   H700      1.0  0.55047  0.75511  0.64710  1.0000
  S   S223      1.0  0.55157  0.97311  0.62172  1.0000
  C   C698      1.0  0.57573  0.76084  0.62491  1.0000
  H   H701      1.0  0.54342  0.79303  0.65325  1.0000
  S   S224      1.0  0.61154  0.74856  0.51775  1.0000
  C   C699      1.0  0.55591  0.78805  0.64249  1.0000
  H   H702      1.0  0.52362  0.96356  0.55261  1.0000
  H   H703      1.0  0.70888  0.64761  0.52030  1.0000
  H   H704      1.0  0.50436  0.49419  0.78943  1.0000
  S   S225      1.0  0.65362  0.49261  0.85543  1.0000
  Fe  Fe111     1.0  0.58821  0.97824  0.51011  1.0000
  C   C700      1.0  0.56004  0.60797  0.77035  1.0000
  H   H705      1.0  0.70982  0.58118  0.52604  1.0000
  H   H706      1.0  0.63794  0.84468  0.51980  1.0000
  H   H707      1.0  0.60811  0.80607  0.59628  1.0000
  H   H708      1.0  0.62739  0.93877  0.58847  1.0000
  C   C701      1.0  0.69579  0.78904  0.51146  1.0000
  S   S226      1.0  0.55537  0.97619  0.52315  1.0000
  S   S227      1.0  0.61749  0.97686  0.52837  1.0000
  C   C702      1.0  0.65033  0.49390  0.88314  1.0000
  H   H709      1.0  0.55574  0.92621  0.60186  1.0000
  C   C703      1.0  0.51984  0.63542  0.91175  1.0000
  H   H710      1.0  0.54278  0.91710  0.56706  1.0000
  C   C704      1.0  0.70565  0.63250  0.51404  1.0000
  Fe  Fe112     1.0  0.51787  0.97096  0.63161  1.0000
  H   H711      1.0  0.52760  0.54260  0.84225  1.0000
  H   H712      1.0  0.55894  0.63235  0.80322  1.0000
  Fe  Fe113     1.0  0.60519  0.49012  0.79349  1.0000
  H   H713      1.0  0.50310  0.66227  0.95371  1.0000
  C   C705      1.0  0.63863  0.87849  0.51960  1.0000
  N   N60       1.0  0.70945  0.61452  0.52553  1.0000
  C   C706      1.0  0.66566  0.50418  0.91561  1.0000
  H   H714      1.0  0.70742  0.71649  0.53840  1.0000
  S   S228      1.0  0.50001  0.94255  0.62479  1.0000
  C   C707      1.0  0.63670  0.85892  0.51036  1.0000
  S   S229      1.0  0.59398  0.79377  0.49844  1.0000
  C   C708      1.0  0.55873  0.92203  0.56853  1.0000
  C   C709      1.0  0.53533  0.96911  0.58307  1.0000
  C   C710      1.0  0.59200  0.93149  0.55286  1.0000
  H   H715      1.0  0.61872  0.96206  0.57414  1.0000
  S   S230      1.0  0.65150  0.49541  0.95527  1.0000
  H   H716      1.0  0.50375  0.74666  0.49673  1.0000
  H   H717      1.0  0.67943  0.50963  0.88494  1.0000
  C   C711      1.0  0.49540  0.98645  0.52040  1.0000
  C   C712      1.0  0.52914  0.61793  0.92176  1.0000
  C   C713      1.0  0.64909  0.49582  0.92756  1.0000
  H   H718      1.0  0.53378  0.58778  0.73051  1.0000
  C   C714      1.0  0.68980  0.71992  0.51021  1.0000
  H   H719      1.0  0.64142  0.87914  0.53617  1.0000
  Fe  Fe114     1.0  0.64416  0.75932  0.50960  1.0000
  H   H720      1.0  0.52172  0.96297  0.59113  1.0000
  C   C715      1.0  0.57072  0.98425  0.56171  1.0000
  Fe  Fe115     1.0  0.49709  0.75703  0.63292  1.0000
  C   C716      1.0  0.51059  0.64997  0.94460  1.0000
  N   N61       1.0  0.51062  0.65108  0.92319  1.0000
  H   H721      1.0  0.56822  0.65003  0.78258  1.0000
  C   C717      1.0  0.50209  0.89094  0.65863  1.0000
  H   H722      1.0  0.71588  0.60104  0.55580  1.0000
  C   C718      1.0  0.69172  0.80754  0.52214  1.0000
  C   C719      1.0  0.53637  0.96952  0.56119  1.0000
  S   S231      1.0  0.67367  0.74085  0.52031  1.0000
  C   C720      1.0  0.50943  0.50467  0.80118  1.0000
  C   C721      1.0  0.58628  0.93434  0.58953  1.0000
  S   S232      1.0  0.50952  0.82775  0.65636  1.0000
  H   H723      1.0  0.58283  0.98886  0.59234  1.0000
  C   C722      1.0  0.53818  0.59871  0.74215  1.0000
  C   C723      1.0  0.55493  0.59392  0.75508  1.0000
  C   C724      1.0  0.51009  0.87059  0.65507  1.0000
  H   H724      1.0  0.70061  0.77508  0.52026  1.0000
  H   H725      1.0  0.63052  0.94015  0.56058  1.0000
  H   H726      1.0  0.52539  0.86849  0.64766  1.0000
  H   H727      1.0  0.59141  0.93921  0.60462  1.0000
  N   N62       1.0  0.54875  0.62625  0.77267  1.0000
  C   C725      1.0  0.56603  0.92698  0.58806  1.0000
  C   C726      1.0  0.61995  0.94473  0.57393  1.0000
  C   C727      1.0  0.51996  0.63283  0.95509  1.0000
  H   H728      1.0  0.51219  0.98831  0.52071  1.0000
  H   H729      1.0  0.51383  0.62146  0.73452  1.0000
  H   H730      1.0  0.54937  0.51147  0.83304  1.0000
  S   S233      1.0  0.63940  0.49719  0.79541  1.0000
  C   C728      1.0  0.54069  0.76076  0.50748  1.0000
  S   S234      1.0  0.50413  0.97450  0.66417  1.0000
  H   H731      1.0  0.53649  0.60333  0.95167  1.0000
  C   C729      1.0  0.52922  0.61670  0.94359  1.0000
  H   H732      1.0  0.71055  0.62875  0.55520  1.0000
  H   H733      1.0  0.73521  0.61823  0.54494  1.0000
  Fe  Fe116     1.0  0.62740  0.80204  0.49224  1.0000
  H   H734      1.0  0.68166  0.83993  0.51906  1.0000
  C   C730      1.0  0.56987  0.98344  0.58367  1.0000
  H   H735      1.0  0.57659  0.57326  0.98588  1.0000
  H   H736      1.0  0.52011  0.63204  0.97204  1.0000
  N   N63       1.0  0.52803  0.50095  0.81082  1.0000
  H   H737      1.0  0.49344  0.98743  0.56789  1.0000
  H   H738      1.0  0.51133  0.90429  0.65412  1.0000
  S   S235      1.0  0.49968  0.63849  0.81241  1.0000
  C   C731      1.0  0.69897  0.59412  0.49687  1.0000
  H   H739      1.0  0.49992  0.97200  0.72438  1.0000
  C   C732      1.0  0.66628  0.50321  0.89375  1.0000
  H   H740      1.0  0.49370  0.54948  0.82486  1.0000
  C   C733      1.0  0.69809  0.63172  0.49378  1.0000
  C   C734      1.0  0.71764  0.68783  0.49488  1.0000
  C   C735      1.0  0.49854  0.85298  0.66117  1.0000
  C   C736      1.0  0.49678  0.52212  0.80615  1.0000
  H   H741      1.0  0.51361  0.68191  0.91071  1.0000
  C   C737      1.0  0.71318  0.49029  0.72733  1.0000
  Fe  Fe117     1.0  0.49159  0.79748  0.65636  1.0000
  H   H742      1.0  0.69031  0.49331  0.75292  1.0000
  C   C738      1.0  0.56321  0.56367  0.98938  1.0000
  H   H743      1.0  0.57998  0.53474  0.98328  1.0000
  C   C739      1.0  0.56521  0.54186  0.98814  1.0000
  S   S236      1.0  0.74276  0.48861  0.30491  1.0000
  C   C740      1.0  0.94071  0.38317  0.40752  1.0000
  H   H744      1.0  0.93286  0.42927  0.43063  1.0000
  C   C741      1.0  0.94299  0.39006  0.38662  1.0000
  Fe  Fe118     1.0  0.77256  0.44901  0.37070  1.0000
  S   S237      1.0  0.78689  0.45910  0.33945  1.0000
  S   S238      1.0  0.77431  0.41510  0.38172  1.0000
  Fe  Fe119     1.0  0.95536  0.47151  0.36017  1.0000
  S   S239      1.0  0.77666  0.33179  0.47518  1.0000
  H   H745      1.0  0.94610  0.37897  0.37436  1.0000
  H   H746      1.0  0.75760  0.43973  0.41610  1.0000
  C   C742      1.0  0.77287  0.41030  0.40904  1.0000
  C   C743      1.0  0.76329  0.42483  0.42239  1.0000
  C   C744      1.0  0.76041  0.41982  0.44382  1.0000
  C   C745      1.0  0.76721  0.40034  0.45206  1.0000
  C   C746      1.0  0.77730  0.38601  0.43883  1.0000
  C   C747      1.0  0.78008  0.39098  0.41737  1.0000
  Fe  Fe120     1.0  0.80121  0.48453  0.35741  1.0000
  H   H747      1.0  0.75485  0.36263  0.39328  1.0000
  H   H748      1.0  0.94295  0.41702  0.36553  1.0000
  C   C748      1.0  0.98725  0.38104  0.43604  1.0000
  H   H749      1.0  0.96115  0.48958  0.43682  1.0000
  C   C749      1.0  0.94131  0.41139  0.38167  1.0000
  C   C750      1.0  0.81054  0.45941  0.28973  1.0000
  H   H750      1.0  0.87868  0.32136  0.46499  1.0000
  C   C751      1.0  0.98548  0.41527  0.45134  1.0000
  H   H751      1.0  0.94010  0.40071  0.45590  1.0000
  S   S240      1.0  0.76145  0.39387  0.47858  1.0000
  H   H752      1.0  0.78271  0.37099  0.44504  1.0000
  H   H753      1.0  0.84195  0.45381  0.30045  1.0000
  C   C752      1.0  0.85849  0.48700  0.35518  1.0000
  C   C753      1.0  0.88191  0.45679  0.35029  1.0000
  C   C754      1.0  0.86148  0.46567  0.35162  1.0000
  H   H754      1.0  0.88408  0.44035  0.34722  1.0000
  H   H755      1.0  0.84810  0.45607  0.34957  1.0000
  H   H756      1.0  0.98362  0.42476  0.46503  1.0000
  Fe  Fe121     1.0  0.75800  0.48016  0.33654  1.0000
  H   H757      1.0  0.78771  0.37976  0.40715  1.0000
  S   S241      1.0  0.92501  0.45727  0.35018  1.0000
  C   C755      1.0  0.93756  0.42553  0.39760  1.0000
  H   H758      1.0  0.80849  0.44341  0.28524  1.0000
  H   H759      1.0  0.94216  0.37439  0.44759  1.0000
  H   H760      1.0  0.93626  0.44213  0.39382  1.0000
  H   H761      1.0  0.91687  0.38766  0.44818  1.0000
  C   C756      1.0  0.93552  0.41813  0.41834  1.0000
  S   S242      1.0  0.83655  0.31881  0.48155  1.0000
  C   C757      1.0  0.98527  0.39353  0.45359  1.0000
  N   N64       1.0  0.93714  0.39718  0.42306  1.0000
  C   C758      1.0  0.87947  0.32159  0.48185  1.0000
  H   H762      1.0  0.94222  0.36657  0.41130  1.0000
  C   C759      1.0  0.89956  0.46901  0.35286  1.0000
  S   S243      1.0  0.78888  0.47285  0.38862  1.0000
  C   C760      1.0  0.82928  0.46522  0.29825  1.0000
  C   C761      1.0  0.93383  0.38964  0.44475  1.0000
  H   H763      1.0  0.75255  0.43097  0.45396  1.0000
  Fe  Fe122     1.0  0.98450  0.46549  0.39673  1.0000
  Fe  Fe123     1.0  0.98162  0.34682  0.47350  1.0000
  S   S244      1.0  0.95636  0.48624  0.39137  1.0000
  S   S245      1.0  0.74289  0.46833  0.36677  1.0000
  H   H764      1.0  0.98305  0.38661  0.46898  1.0000
  S   S246      1.0  0.98015  0.31490  0.48901  1.0000
  S   S247      1.0  0.98619  0.45203  0.42936  1.0000
  H   H765      1.0  0.91331  0.32223  0.48158  1.0000
  S   S248      1.0  0.98472  0.35390  0.43903  1.0000
  C   C762      1.0  0.99027  0.41232  0.41389  1.0000
  S   S249      1.0  0.98237  0.44898  0.36651  1.0000
  H   H766      1.0  0.74128  0.32923  0.41372  1.0000
  C   C763      1.0  0.79420  0.47414  0.28761  1.0000
  H   H767      1.0  0.77931  0.46970  0.28160  1.0000
  H   H768      1.0  0.97954  0.48035  0.46942  1.0000
  C   C764      1.0  0.98770  0.42473  0.43150  1.0000
  C   C765      1.0  0.99006  0.39045  0.41616  1.0000
  C   C766      1.0  0.83144  0.48580  0.30438  1.0000
  C   C767      1.0  0.77853  0.45911  0.72032  1.0000
  H   H769      1.0  0.91538  0.36632  0.54610  1.0000
  C   C768      1.0  0.78941  0.41401  0.52535  1.0000
  Fe  Fe124     1.0  0.77141  0.36200  0.49159  1.0000
  S   S250      1.0  0.95571  0.36092  0.49324  1.0000
  S   S251      1.0  0.75316  0.48791  0.63312  1.0000
  H   H770      1.0  0.94134  0.37405  0.53754  1.0000
  S   S252      1.0  0.95687  0.46385  0.61673  1.0000
  N   N65       1.0  0.93278  0.38099  0.56910  1.0000
  Fe  Fe125     1.0  0.95586  0.33012  0.51057  1.0000
  S   S253      1.0  0.92492  0.32007  0.52564  1.0000
  Fe  Fe126     1.0  0.95744  0.48128  0.64645  1.0000
  Fe  Fe127     1.0  0.76803  0.45709  0.62364  1.0000
  S   S254      1.0  0.77613  0.44669  0.65645  1.0000
  C   C769      1.0  0.86366  0.48204  0.66122  1.0000
  Fe  Fe128     1.0  0.76290  0.47832  0.66578  1.0000
  Fe  Fe129     1.0  0.80670  0.46294  0.64945  1.0000
  S   S255      1.0  0.83891  0.44783  0.65488  1.0000
  S   S256      1.0  0.79934  0.47061  0.61604  1.0000
  Fe  Fe130     1.0  0.78011  0.34215  0.53424  1.0000
  S   S257      1.0  0.78591  0.30994  0.52142  1.0000
  S   S258      1.0  0.78413  0.34998  0.56815  1.0000
  H   H771      1.0  0.98762  0.37433  0.59906  1.0000
  H   H772      1.0  0.98145  0.43686  0.55177  1.0000
  H   H773      1.0  0.93291  0.35538  0.59119  1.0000
  S   S259      1.0  0.80037  0.35855  0.51030  1.0000
  H   H774      1.0  0.74129  0.41477  0.56422  1.0000
  C   C770      1.0  0.76097  0.41401  0.59103  1.0000
  C   C771      1.0  0.77616  0.40244  0.60201  1.0000
  C   C772      1.0  0.78317  0.38279  0.59487  1.0000
  C   C773      1.0  0.77551  0.37491  0.57642  1.0000
  C   C774      1.0  0.76052  0.38660  0.56531  1.0000
  H   H775      1.0  0.74849  0.45569  0.55484  1.0000
  H   H776      1.0  0.78237  0.40855  0.61608  1.0000
  H   H777      1.0  0.79470  0.37376  0.60360  1.0000
  S   S260      1.0  0.98632  0.41105  0.62407  1.0000
  C   C775      1.0  0.80386  0.40811  0.54048  1.0000
  C   C776      1.0  0.90044  0.32150  0.51305  1.0000
  C   C777      1.0  0.93182  0.36766  0.55094  1.0000
  C   C778      1.0  0.86211  0.32112  0.51592  1.0000
  C   C779      1.0  0.88181  0.32111  0.52531  1.0000
  H   H778      1.0  0.84795  0.32048  0.52555  1.0000
  H   H779      1.0  0.88260  0.32048  0.54218  1.0000
  H   H780      1.0  0.74413  0.25696  0.50342  1.0000
  H   H781      1.0  0.74803  0.34453  0.59815  1.0000
  C   C780      1.0  0.79264  0.43804  0.56038  1.0000
  C   C781      1.0  0.93374  0.41527  0.58328  1.0000
  S   S261      1.0  0.75066  0.34786  0.51677  1.0000
  H   H782      1.0  0.93296  0.40915  0.55047  1.0000
  H   H783      1.0  0.93815  0.35163  0.55443  1.0000
  H   H784      1.0  0.76404  0.31330  0.58713  1.0000
  Fe  Fe131     1.0  0.98135  0.48573  0.60478  1.0000
  H   H785      1.0  0.76633  0.28345  0.56348  1.0000
  C   C782      1.0  0.86084  0.32100  0.49410  1.0000
  C   C783      1.0  0.86289  0.46112  0.65563  1.0000
  C   C784      1.0  0.88176  0.45011  0.65117  1.0000
  C   C785      1.0  0.90119  0.45986  0.65216  1.0000
  H   H786      1.0  0.88136  0.43388  0.64702  1.0000
  H   H787      1.0  0.91557  0.45115  0.64876  1.0000
  Fe  Fe132     1.0  0.98137  0.36887  0.51431  1.0000
  H   H788      1.0  0.76494  0.43583  0.51667  1.0000
  H   H789      1.0  0.78781  0.40462  0.51168  1.0000
  C   C786      1.0  0.98411  0.42548  0.58358  1.0000
  Fe  Fe133     1.0  0.98405  0.44542  0.62979  1.0000
  C   C787      1.0  0.90200  0.48063  0.65817  1.0000
  H   H790      1.0  0.98377  0.44095  0.58967  1.0000
  N   N66       1.0  0.77836  0.44361  0.54555  1.0000
  C   C788      1.0  0.75142  0.31102  0.57653  1.0000
  C   C789      1.0  0.76386  0.46142  0.54888  1.0000
  H   H791      1.0  0.81335  0.39390  0.53881  1.0000
  H   H792      1.0  0.78087  0.42804  0.70810  1.0000
  C   C790      1.0  0.80555  0.42020  0.55811  1.0000
  C   C791      1.0  0.75304  0.40591  0.57279  1.0000
  C   C792      1.0  0.78880  0.44255  0.71013  1.0000
  S   S262      1.0  0.98327  0.46116  0.66086  1.0000
  H   H793      1.0  0.76964  0.47210  0.56072  1.0000
  H   H794      1.0  0.93469  0.43205  0.58087  1.0000
  H   H795      1.0  0.83443  0.46627  0.69747  1.0000
  C   C793      1.0  0.93284  0.40223  0.56617  1.0000
  N   N67       1.0  0.78818  0.47772  0.72228  1.0000
  H   H796      1.0  0.89917  0.48499  0.61097  1.0000
  H   H797      1.0  0.79341  0.44683  0.57457  1.0000
  H   H798      1.0  0.76254  0.45719  0.72605  1.0000
  S   S263      1.0  0.98034  0.33901  0.53312  1.0000
  C   C794      1.0  0.93309  0.37222  0.58886  1.0000
  C   C795      1.0  0.93455  0.40644  0.60346  1.0000
  S   S264      1.0  0.75220  0.43905  0.59880  1.0000
  H   H799      1.0  0.81618  0.41534  0.57033  1.0000
  H   H800      1.0  0.75447  0.38067  0.55111  1.0000
  Fe  Fe134     1.0  0.75754  0.31687  0.50165  1.0000
  S   S265      1.0  0.74309  0.48732  0.69522  1.0000
  H   H801      1.0  0.93617  0.41631  0.61681  1.0000
  H   H802      1.0  0.93521  0.37782  0.62194  1.0000
  C   C796      1.0  0.75282  0.29407  0.56321  1.0000
  H   H803      1.0  0.81711  0.43256  0.69366  1.0000
  C   C797      1.0  0.77658  0.43180  0.52823  1.0000
  C   C798      1.0  0.80908  0.44510  0.70200  1.0000
  C   C799      1.0  0.98523  0.38561  0.56704  1.0000
  C   C800      1.0  0.93417  0.38479  0.60632  1.0000
  C   C801      1.0  0.80803  0.48037  0.71428  1.0000
  H   H804      1.0  0.98582  0.37023  0.56077  1.0000
  H   H805      1.0  0.86210  0.47526  0.60926  1.0000
  C   C802      1.0  0.98333  0.40324  0.55371  1.0000
  C   C803      1.0  0.98635  0.38795  0.58872  1.0000
  C   C804      1.0  0.98281  0.42315  0.56202  1.0000
  C   C805      1.0  0.81881  0.46409  0.70412  1.0000
  C   C806      1.0  0.98571  0.40793  0.59700  1.0000
  Fe  Fe135     1.0  0.80454  0.32716  0.49607  1.0000
  S   S266      1.0  0.98155  0.40113  0.52664  1.0000
  H   H806      1.0  0.76166  0.47068  0.53412  1.0000
  C   C807      1.0  0.89915  0.32212  0.49123  1.0000
  S   S267      1.0  0.83328  0.49947  0.35512  1.0000
  S   S268      1.0  0.97706  0.54208  0.38318  1.0000
  C   C808      1.0  0.87346  0.67897  0.47559  1.0000
  C   C809      1.0  0.81331  0.55249  0.46564  1.0000
  Fe  Fe136     1.0  0.76061  0.49326  0.38238  1.0000
  C   C810      1.0  0.82955  0.53326  0.41262  1.0000
  H   H807      1.0  0.82022  0.56811  0.46284  1.0000
  N   N68       1.0  0.81452  0.54008  0.44673  1.0000
  Fe  Fe137     1.0  0.97937  0.50792  0.37623  1.0000
  Fe  Fe138     1.0  0.78362  0.60748  0.46922  1.0000
  H   H808      1.0  0.83691  0.55947  0.43096  1.0000
  S   S269      1.0  0.79080  0.59341  0.43755  1.0000
  C   C811      1.0  0.81748  0.52161  0.30909  1.0000
  S   S270      1.0  0.97642  0.49511  0.34412  1.0000
  C   C812      1.0  0.94488  0.55644  0.45826  1.0000
  S   S271      1.0  0.92673  0.62852  0.47439  1.0000
  H   H809      1.0  0.90522  0.67550  0.46416  1.0000
  S   S272      1.0  0.77363  0.50659  0.35216  1.0000
  S   S273      1.0  0.75209  0.61028  0.48507  1.0000
  C   C813      1.0  0.79684  0.49454  0.29410  1.0000
  H   H810      1.0  0.79157  0.51888  0.45840  1.0000
  C   C814      1.0  0.80385  0.51029  0.42820  1.0000
  C   C815      1.0  0.98650  0.54738  0.40790  1.0000
  H   H811      1.0  0.80731  0.52423  0.32321  1.0000
  C   C816      1.0  0.77710  0.57171  0.42929  1.0000
  C   C817      1.0  0.76193  0.56212  0.44217  1.0000
  H   H812      1.0  0.81299  0.53302  0.29650  1.0000
  C   C818      1.0  0.75805  0.53521  0.41636  1.0000
  C   C819      1.0  0.77303  0.54497  0.40338  1.0000
  C   C820      1.0  0.78244  0.56319  0.40980  1.0000
  H   H813      1.0  0.77745  0.53841  0.38845  1.0000
  H   H814      1.0  0.79414  0.57056  0.39974  1.0000
  C   C821      1.0  0.81749  0.51556  0.41157  1.0000
  C   C822      1.0  0.82786  0.54544  0.43044  1.0000
  H   H815      1.0  0.83379  0.52469  0.31345  1.0000
  C   C823      1.0  0.87611  0.49921  0.35774  1.0000
  H   H816      1.0  0.79671  0.55545  0.47059  1.0000
  H   H817      1.0  0.87402  0.51576  0.36033  1.0000
  S   S274      1.0  0.79127  0.64096  0.47461  1.0000
  S   S275      1.0  0.74664  0.51173  0.40931  1.0000
  H   H818      1.0  0.75767  0.56857  0.45720  1.0000
  H   H819      1.0  0.95506  0.56842  0.46449  1.0000
  H   H820      1.0  0.94309  0.56050  0.44137  1.0000
  H   H821      1.0  0.81844  0.50620  0.39770  1.0000
  H   H822      1.0  0.90991  0.49990  0.35866  1.0000
  C   C824      1.0  0.80259  0.52278  0.44578  1.0000
  C   C825      1.0  0.75238  0.54397  0.43567  1.0000
  H   H823      1.0  0.86687  0.67794  0.46024  1.0000
  H   H824      1.0  0.83983  0.53764  0.39952  1.0000
  H   H825      1.0  0.88556  0.62639  0.45794  1.0000
  C   C826      1.0  0.89515  0.67762  0.47793  1.0000
  H   H826      1.0  0.82165  0.54422  0.47854  1.0000
  H   H827      1.0  0.84997  0.62891  0.47452  1.0000
  H   H828      1.0  0.84595  0.49008  0.31129  1.0000
  C   C827      1.0  0.96179  0.50092  0.44901  1.0000
  C   C828      1.0  0.88381  0.62662  0.47481  1.0000
  H   H829      1.0  0.97658  0.57979  0.40645  1.0000
  C   C829      1.0  0.86359  0.62800  0.48418  1.0000
  S   S276      1.0  0.98773  0.61927  0.47100  1.0000
  C   C830      1.0  0.99086  0.57161  0.43585  1.0000
  H   H830      1.0  0.92933  0.55751  0.46641  1.0000
  N   N69       1.0  0.95427  0.53547  0.46136  1.0000
  C   C831      1.0  0.89652  0.49026  0.35681  1.0000
  H   H831      1.0  0.78383  0.50573  0.29295  1.0000
  C   C832      1.0  0.97316  0.51049  0.48293  1.0000
  C   C833      1.0  0.96395  0.53036  0.47969  1.0000
  C   C834      1.0  0.95285  0.52095  0.44621  1.0000
  H   H832      1.0  0.94538  0.52499  0.43156  1.0000
  N   N70       1.0  0.81534  0.50017  0.30219  1.0000
  H   H833      1.0  0.93467  0.67328  0.48471  1.0000
  H   H834      1.0  0.98849  0.58702  0.44194  1.0000
  C   C835      1.0  0.90174  0.62640  0.48703  1.0000
  H   H835      1.0  0.79380  0.49701  0.42723  1.0000
  C   C836      1.0  0.97214  0.49573  0.46741  1.0000
  C   C837      1.0  0.98406  0.56749  0.41575  1.0000
  Fe  Fe139     1.0  0.95762  0.62110  0.49028  1.0000
  Fe  Fe140     1.0  0.97922  0.60574  0.52937  1.0000
  C   C838      1.0  0.91397  0.52336  0.61509  1.0000
  C   C839      1.0  0.92616  0.67590  0.49988  1.0000
  H   H836      1.0  0.76164  0.49077  0.73914  1.0000
  S   S277      1.0  0.97268  0.63802  0.51604  1.0000
  H   H837      1.0  0.89723  0.67908  0.53029  1.0000
  H   H838      1.0  0.96554  0.52919  0.60040  1.0000
  Fe  Fe141     1.0  0.78538  0.50054  0.62804  1.0000
  N   N71       1.0  0.89206  0.51759  0.61345  1.0000
  C   C840      1.0  0.85033  0.50696  0.61145  1.0000
  S   S278      1.0  0.83650  0.63626  0.51788  1.0000
  S   S279      1.0  0.79729  0.53018  0.61206  1.0000
  Fe  Fe142     1.0  0.76857  0.60016  0.51442  1.0000
  S   S280      1.0  0.77475  0.63310  0.52332  1.0000
  C   C841      1.0  0.75614  0.54549  0.56624  1.0000
  C   C842      1.0  0.78492  0.54209  0.59019  1.0000
  C   C843      1.0  0.76578  0.53526  0.58336  1.0000
  C   C844      1.0  0.86892  0.68075  0.51307  1.0000
  C   C845      1.0  0.76564  0.56244  0.55568  1.0000
  C   C846      1.0  0.78494  0.56906  0.56231  1.0000
  C   C847      1.0  0.79447  0.55897  0.57956  1.0000
  H   H839      1.0  0.79238  0.58212  0.55434  1.0000
  H   H840      1.0  0.80925  0.56438  0.58478  1.0000
  S   S281      1.0  0.75269  0.57522  0.53462  1.0000
  C   C848      1.0  0.89924  0.62673  0.50883  1.0000
  C   C849      1.0  0.87904  0.62862  0.51816  1.0000
  C   C850      1.0  0.86113  0.62967  0.50589  1.0000
  H   H841      1.0  0.91286  0.62643  0.51847  1.0000
  H   H842      1.0  0.87730  0.62986  0.53497  1.0000
  S   S282      1.0  0.96235  0.58923  0.50484  1.0000
  C   C851      1.0  0.87665  0.53282  0.61459  1.0000
  C   C852      1.0  0.96874  0.55872  0.58398  1.0000
  H   H843      1.0  0.98679  0.56472  0.53367  1.0000
  C   C853      1.0  0.85557  0.52775  0.61356  1.0000
  H   H844      1.0  0.88061  0.54899  0.61648  1.0000
  H   H845      1.0  0.96304  0.56779  0.59708  1.0000
  C   C854      1.0  0.97452  0.56882  0.56508  1.0000
  S   S283      1.0  0.97335  0.59614  0.56291  1.0000
  C   C855      1.0  0.89067  0.67950  0.51484  1.0000
  H   H846      1.0  0.77414  0.50802  0.72057  1.0000
  Fe  Fe143     1.0  0.80510  0.62828  0.50452  1.0000
  H   H847      1.0  0.84326  0.53976  0.61458  1.0000
  H   H848      1.0  0.83402  0.50284  0.61101  1.0000
  S   S284      1.0  0.79952  0.59475  0.49790  1.0000
  H   H849      1.0  0.88357  0.50772  0.66735  1.0000
  C   C856      1.0  0.97031  0.53688  0.58592  1.0000
  H   H850      1.0  0.75823  0.52235  0.59149  1.0000
  S   S285      1.0  0.79439  0.49358  0.66133  1.0000
  C   C857      1.0  0.98183  0.55705  0.54815  1.0000
  Fe  Fe144     1.0  0.76030  0.64318  0.49268  1.0000
  C   C858      1.0  0.97783  0.52514  0.56905  1.0000
  H   H851      1.0  0.78652  0.50123  0.74515  1.0000
  S   S286      1.0  0.98157  0.49801  0.57157  1.0000
  H   H852      1.0  0.91647  0.52971  0.63079  1.0000
  H   H853      1.0  0.98134  0.50674  0.49725  1.0000
  C   C859      1.0  0.77715  0.49528  0.73239  1.0000
  H   H854      1.0  0.92494  0.50969  0.61337  1.0000
  S   S287      1.0  0.98039  0.50480  0.63350  1.0000
  C   C860      1.0  0.98333  0.53524  0.55008  1.0000
  H   H855      1.0  0.91820  0.53522  0.60278  1.0000
  H   H856      1.0  0.93211  0.69020  0.50675  1.0000
  S   S288      1.0  0.92610  0.49352  0.65989  1.0000
  C   C861      1.0  0.88703  0.49716  0.61126  1.0000
  H   H857      1.0  0.92995  0.66215  0.51022  1.0000
  H   H858      1.0  0.85873  0.68090  0.52694  1.0000
  C   C862      1.0  0.86611  0.49154  0.61025  1.0000
  H   H859      1.0  0.98926  0.52622  0.53703  1.0000
  N   N72       1.0  0.90346  0.67785  0.49740  1.0000
  H   H860      1.0  0.96520  0.54188  0.49166  1.0000
  H   H861      1.0  0.81549  0.49526  0.71540  1.0000
  H   H862      1.0  0.84930  0.49074  0.66470  1.0000
  C   C863      1.0  0.88313  0.49164  0.66272  1.0000
  H   H863      1.0  0.74118  0.54032  0.56124  1.0000
  C   C864      1.0  0.86031  0.68043  0.49331  1.0000
  H   H864      1.0  0.84344  0.68034  0.49187  1.0000
