data_image0
_chemical_formula_structural       CHCFe2S2FeS2FeSHFeSFeSFeS3FeSFeSFeSFeS3FeS2FeS2FeSFeS3FeS2FeSHFeSFeS3FeS2FeS2FeSFeS5HFeSC7H4C6H3C6H4C6H2CHC6H5C6H4C6H5C5H2C5HCH2CH2C2HC6H4FeHC8H3CFeH2C2HCNSH5C5HSNHCNH3CNC6H8NC6H8NC6H10CFeSNCSNCHCH2NHCHSHCH4SHSC2FeCHC2H6NH2CHCH2CSCH3C4HC2HCH2CNC2HSC2SHC2FeC4H2SH2CSCHCHSH5CH2C2H2C2H3C3H3NH3CH2CH2C2HSH3CHCH2CH2CNCH3C2H2CFeHCHC2H2SFeS2FeSFe2S2FeS2FeS2FeSFeS4HC6FeS2FeS2FeSFeS3CHC2H2FeSHFeS2FeSFeS3FeCSFeS2FeSFeCS2HCH2NSCNH2C8H5CSC6H4C2H3C3H2C6H4C6H2SHFeSHSHC6H2CHC4H2C3HC2HCSHC6H5C6H5NCHCH4S2HSNC6H8FeC2H3CH2C2H5C2H2CNC3HC2H3CH5CHSCHCNCNC3H2NC6H3CSH4C2HCH2CHSFeCNCHC3SHCHNHC3FeH2C2HCHC5H3CS2H2FeNC6H3C4HNCH3CH3FeHCH2CH2SH6CNH3CHNHSC3SHCHCH2C2FeCHCSCHCNHCSC2H2CHCH2C2HCFeHC2HC2HSC2HCH2CHCFeCHCSHFeHSNCSCFeC2H2SH4CH2CH3CFeC2HCHCH3C2H2CHFeHCH4SCSCHCH3SCH3CNCHCH2CFeS2FeS2FeSFeS3FeS2FeS2FeSFeS3FeS2Fe2S2FeS2FeSFeSFeHS2FeSHFeS2FeSFeHS2FeS2FeS2FeSFeS3C2SC2HFeS2FeS2FeSFeS4C6H3C6H4C6H2CH2C6H5C6H4C6H4C6H4C6H4C6H4CH2C5H2C6H4C2SHCH10C5HSH2CH2C6H5CHCNH7C2HCH3CHNC6H9CHSNC5H4NH2C2H2CH3CH2CH2C4H2FeNC6H8C2H3CHNHCHCNSNC6H8CH6C2HNH5NC6H8C4NCHCHC9HNC3H2C2H2CFe2S2FeS3FeS2FeS2FeSFeS3HFeS2FeCFeS2HS2HSHFeCSH2CFeS2H2C5FeCHSCFeS2FeS2FeSFeS3FeS2FeS2FeSFeS3HCHSC4H4C3H5CSC6H2C5H2C6H4C7SH2NHCSHCHC7H4C6H6C6H4C6H4C6H4SC2HNHSHC2HC2SH2SH3Fe2HCHC2SFeC2H2SHCFeHC2FeC5FeNC6H8NC6H8FeH3CNC2H3SCHC2H3CSHC2H2CNC3HC2H3CSHNC6H8NC6H2CH5NC6H9C6NHSCH2CH4SH2C2HCHNCH2SCH2C4H7CHSCNHCHCH2CHNC2H2SCH2C2H3NH3CHSFeS2FeSHFeS3FeSFeS2FeSFeS3CH2FeSFeS2FeS2FeSFeS3FeS2FeS2FeSFeHS2HC2HCHCHSH2SC2HCS2CS2HC2SCH3NHC3HFeHCH2CN2CSC6H5SNFe2C3H2C6H4C6H4C2SC2HC6H4C2SC3H2CHC2HC6H4C6H5CFeH5C3HC2H2CHCFeHC2H2C4H3CHCHC3H5CH2CSHCHC3HC2HNSNCHC3NC6H5FeH2CSHCHNHCHSH2CHCHC3HCH2C3H4CSH3C3H3C2HC3HCHC2HC5HNCHCH2CH3CH4C2HC2NH2CH2SCSHSC2H2SHCHS2H2CH3FeH5FeHC2H2NCFeCHC2HCHNCHCHCHCH3CHFeSCHCH2CHNHSH2CNHCH2NFeNCSFeS2FeS2CSFeSCSFeS2FeS2FeSFeS3CS3FeS2CFeCSH2SFeHSCFeSCSHFeS2FeS2FeSFeS3CFeS2FeS2FeSFeS3H2C7H4C6H4C6H4C6H4C6H4C7H2SC2FeHFeC2H2CHC5H3C6H4C6H4C6HSHSCHCHCHCFeSC5H3C6H6Fe2NHCH2NC6H8CHCNCFeH6SC2NC6H8NC6H6NCHNHCH4CHCHFeNSCHCHCH2SCHCH2CFeHCHNSNC6H8CH3NCSH2CHCHSHSHFeH5CFeH3FeH2NH2CH2FeC2HSHFeHSHCSHCS2Fe2HCHC2HCHC3HCH2CSCH4C4H5CH5C2NFeCHFeSHFeS2CNC2SFeS2FeSFeS3FeS2FeSFeSFeS3CHNCHFe2S2FeS2FeSFeS3HSC3S3FeSFeSCFeSFeSFeS2FeSHFe2S3C2H2C6H4C6H5FeCH2C6HCH2CHSC2SH4CHC4H4C6H4C2NHC6H4C6H4C6H4C6H4C2HC3H4C3NCNCH2CH4C2H2NC6H8SC2H2SH3CHC4NC6H8NC6H10CHC2H2CNH2C2SCHFeSCH7CHFeSFeC3S2H2CSC4NC6H4CH3SFeNC6H8SNC6H5CHC4HC2NC2H2CH2C2SH2CHSHSH2CHSHCHSHC2SH3C4HNCH2CH2NSCH3SHC2FeHC2H2CSHCHCFeH2CSC2FeS2FeS2FeSFeS3FeS2FeS2FeSFeS3FeS2FeSFeSFeS2FeSFeS2FeSFeS3CNFeS2FeS2FeSFeS3CHC2HSFeSHSH2SHCH3CHC7H3C6H4SC6H4C4H3C6H4C6H4C4H4C4HCH2C2HC6H4C2HSC2H3C6H4C6H3CHSHC2HSCHCHCH4CH4C2HCH2SHC2HFeCHNHNC6H4CH3CH3CH2NC6H9CHCSNCH3SCHCH2CHCHSHCSNCNCHC2NSC2HC2H4C2H2NC6H6CHNC6H10NCH5CSCNC2HCH2CH3CH2SCHCNC6H10CHC2FeHC2NCHC2HC3HC5H2CFeH3C3HCHCH3SHC3HCHFeS2FeHSFeS2FeH2CSNFeCSHSC2SHSHC2FeSNS2H2FeHCFeS2FeS2FeSFeS4HFeS2H2CFeSH2SHCFeCSCHSCH2CSCH2FeH2CH3CHC4HSHNSHNFeCH2CHC6H4C6H6C2SHCH3C2SHCHCH2C6H4C6H4C6HCH2CNHSH2C3H2C3HC2HC2Fe2H2FeH2NCHCNC6H8NC6H8Fe2CSH2C2HC4H2C5HS2H2CH2SC2NSC2HC2H7CFeHC2SCHC3H5SCHSHCSC3FeHSCSNFeS2FeHFeS3HS2H2CHFeCHFe2SHFeC2SH2C2NHSC3HCHCSHCHCSHCHCHFeC2S2H2NH3C3HC3HFe2HCH3C2H3C6HCH4CHCSC3SNC4H3CH2SH2C3HC3H6C3SCHC6HCH2CH3N2C4H2SHCH4CH3FeS2FeS2FeSFeS3FeSC3FeSCSHCH2C2H3CNC2HCSHFeS2FeS2FeSFeCS2HCHSHCHNHC2HCH2C6H5CH2CHCHC6H4C2H2CHCHCNC6H5C6H6CSHCH2CHC3HNC2H3CHC3HC2H7CH3NCHCNCHCH4SC2HCHCHCSH2C2HCSNCHS2CHC2H3CH2CH6FeHNC5FeHSH2FeS2FeS2FeSFeS3HSHCHCFeS2C2SH2NH2CHC2FeS2FeS2FeSFeS3C2HNH2CHC2HC8H4C3NSH3CHFeH4CH2CHCHC2H2CHC8H4C2HSC2HSNHC6H5SH2FeH2C6H5CHCH3S2HCSC6H2CSC3H2FeH2C2HFeHCHC2HSH6CSCNSH2CHCSCFeH3CH2CSCHC2H3C2H2C2SCH2FeHC3NC3SH4FeHFeNH3CHNCFeC3HC2SFeCHFeC2HCNFe2SCFe2S2FeS2FeSFeS5Fe3S2H2CH3CSC2FeS2FeS2FeSFeS3H2SFeC2HSCSCHFeC2H3FeSC4H2CH4C2HC2H3CH2FeHNH3C6H4C3H2NH4C4HC7H4C6H4C6HCH2C5H2C6H6FeHCHNC6H8SC2HS3H2CH2NCH3SFeCSCHNC6H8C2S2HSFeHCS2C4H2CSFeC3SC3H3CH2SNCHFeCH2CNHNC6H9C2NH4SH2SHFeC4HCSHSC3HSHC2H2CHC4SH6CH2CFeSHCH2CSCFeS2FeS2FeSFeS3FeCSH3CH2CFeS2FeS2FeSFeS3CH2CSHFeSCFeSH2CHC3HS2H4C6H4C6H5C9H4C6H4C6H4C6H4SHNH2C2HNCNC2SC2H2CH2CH3CH2C4H2CHCS2H2NH2C2HC2NCFeC2HC2H2C2NCHSHC2HSFeHCH4NC4H3SH3C2HCHCHCH6FeHSHCSHC3HSH2SHCHCHC2H3CH2FeCSHCH3CH3C2HC2SC4H2S2CHCH2C3H2C5NH4C2H2CHCH2CSCSHFeH3C2S2CSH2CHNHCH2SNC4FeSFeHCS2C2FeSHNHC2FeHCFeHC3HSH10NH3C2H2FeC2SC2SH2CH2SHC2HS2NC2H2CSCH2SCFeSHFeSFeSC3H2C2H3SNSHFeS2FeS2FeCFeCS2CHC8H4SC2SCHC2SHC7H3CNC6H4C6H5NH4C6H3SC6H5C3HCHCH2CHCSC3H3CH2FeH2SCFeH6FeHCHC4SH2CH2NHSFeHFeHNC2HCHFeH3SCHCSCFeCH6NCH2C2SH2C3H2SFeC2HCHCHCHCH3CSHFeCFeSHSFeS2FeS2FeSFeS3FeS2FeNSFeSH2S2FeS2FeS2FeHFeS3FeS3FeSFeS2FeS2FeS2Fe2S3H2SHC6H4C6H4C6H4C6H4C6H4C6H4NSCHC4H2C4H2SCHC3HFeHC6H4C6H4CNC2H3SH2C2HNCH2SC3H5C4SH3SCH2CSHC2H4CHC3H2SHSHCSCNC6H8NC6H8SCHC2H4CHNCH5CNC5H2C2H2NC2HNH2C2HCH2C3H2CNC6H8CFeC2H3C2HSCHC2SFeNC6H2CSCHC2HC2FeCHCHSCHCH5C2H2CH2SH2CHCH3C2HC2HSH3C2H2SC2H2C3NSC2H2SH2CHCFeHNC2H2SH3SHCFeH3FeSH2C2FeC2H2CHCFeHSHSNHCNCHCHCHSCHSHS2CFeSC3SFeS2FeCFeS2FeS2FeS2Fe2S2FeS2FeSFeSFeS2FeS2FeS2FeSFeS2FeS2FeS2FeNFeS3HCH2CHCHNC2HCHSCH4C3H5FeH2C6H4C6H4C6H4FeC4H2CHC2H2CHC8H4C6H6SC6H4C14HNHS2H2CFeNHCFeHC2HSH3SH2CHSC2HNC2SH2CNH2NC6H8C2HCH2CHSC3HNC2HC2H3CHCH2CNC6H10SCSC2HCNHFeHCH2CH2C2HCSHSFeH3CHFeHC2HSH4SCNCHCHCHC2HNC4SCHCHCH2CNCHFeHFeNC2HSCSC2HC4H5C3HC4HFeCH4S2CH2NC3H2CH2CSH2SCH3C7FeHCH2CNH2SCHNC3H2C2HCNH3CH3CH4FeHCH2CH2CH6S2C4FeHCSH7CH2CFeS2FeS2FeSFeCS2FeS2FeSCFeSFeS3HCHCNHFeS2FeS2FeS2FeSFeS3FeS2FeSCFeSFeCS2C6H5C3H4C2HCH4C2H2C6H4C5H4C2H3C3HC6H4C6H2CH3C3SH2CHC3NSH5C4SHC3HNCH2C5H3CHNFeC6SHC2H4C5NH5CHCNH5CH2CH4CFeHCHSC2SCHSNHC2H3CHCH2CHC2NC7H2CSCSCHCH4CHCSC2HNHSHCFeHCSCH2C2H2NC2HCHC2HSC3H2C2SFeC2HCH2CNHSH2C3H3C2SH4CH3SHCH2CHCHC2HCHCFeSFeSFeS2FeSFeS2FeSFeS3C2HS2CH3CSHFeS2FeSFe2S3FeS2FeS2FeSFeS3CHCHSHSHC3HC4HCH4C7H5CH4C7H4CH4SC2HC6H4CSHC3H3C6H4C6H4C6H6C5H2C2NS2HCNHCH3CFeH2CNSHCH3NH3NHCH2C4HNH2N2C2H2C2NCSH2CH2NC6H8CSHC4HCHFeH2CHNC6H2SH3FeCH4C2HCHC3HC3HCHCSHFeH3C3H3CSNCNC2HC3H6CHCHCHCH2CHCNC4H3SHC3SCH3C4FeH3CH2CSH2CSCHC3FeHCHCH3CH2C2H2SCHCHC2SC2H4CSCFeS2FeS2FeS3FeS2FeS2FeSFeS3FeHS2FeS2HSFeS2HC2HS2FeS2FeS2FeSFeS3FeS2FeS2FeSFeS4HNCSHFeSCHNCH3C4SFeH2CHC6H4C6H3C6H4C6H4C4HCH2CSHCHSC2H2CHC2HC6H4C6H4C6H5C7H2C7H4C4H4FeC4SH2CFeCH6C2H3CFeHCSCHC3H3C2H5SH3NC5HNCNH2FeCHNC6H6NC6H9C2HC2HNH4C2SH2NC6H10CSHCNC5H6SH4C2N2C2H2C2H2SHCH3CH3C2H4S2CH2C2HC2HC3HCFeCSH4CH3SHC2FeNCNHC3FeS2FeS2FeSFeS3FeSFeS2FeSFeS3CHSFeS2FeS2FeS2FeHFeS3FeS2FeSCFeSFeS3FeS2FeS2FeSFeS3FeS2FeS2FeS2FeS2FeSFeS3CHFeCHCH3C6H4C6H4CH4C2HCHC6H5C2H2C6H4C6H4CHC2HC6H4CHC4HFeH3CNC6H3NC6H4C6H4C6H6CHCSH3CHSH3CHCH3C2H2NC6H8FeHC3SC2H4CSCNC6H10CHC2HCHC2SCHSH2SH4NC2HNC2HCH3C3H2SFeH2CHC2HC2NC6H8NC6H6CH4NC6H12FeH2CH2C2HC2H3NH2NC2HCN2SC2NCHC3H3C2HC3SCH2C3HCSCHCH4C3FeS2FeS2FeSFeS3FeS2FeS2FeSFeCS2NFeS3FeSFeSFeSFeSFeSFeS3NH2FeSFeS2Fe2S3HCHC2SH2Fe2HC2H2CH2SHC6H4C3H2C6H4C2H2CH3CHC6H4C3H3SCHC6H5C4HCH2SCH2C2SNCHSH2CH2FeCFeC2HCH2CH3CH2C2HC3H2CHC2HC2H2C2SH2NC6H2CHC2HCFeH2CNHCHSC2HC3NC6H8CSH2C2HCH3C2H2CH2CSCHC2SNCH3CFeHSHFeH2SHC6N2H3CHCSHS2H2SCH2CHC2HC4HCNH4CH3SHC3NSC2HCH5CSCHCH3SFeH2SHC2HC2H2CNC2H2C4FeCH2CH2CHNHC2H2SHCHCHCHCH2CHCH2CH4SH2C6H3C2H3CFeCHCHFeC4HC2H4NCHCH2CFeSHFeSNFeSHSFeSFeSCFeSFeHSH2S2NCH2CHFeS2FeS2FeSFeS3FeS2FeS2FeSFeS3FeSNFeS2FeSFeS3HNCHSH3CHC8H4C6H4C2HCH2FeHC3HCH2FeC6H5C2H2C2H2C2HCHC2SH3C6H4C6H2C6H6CH2C6H2CHSFeC2HCH5CH2C5HNH2CHNCHC4HC3HSHCH3SCH3NC6H8FeCNH2CHC3H5CHCH2CSH2C2HCHCHS2C2H3NC5HCH2CHC2HC6HCHC2H2NC2H3SC2HCHC3SHCH2NH2CH5CHCHNSNH
_chemical_formula_sum              "C3456 H3456 Fe576 S1152 N288"
_cell_length_a       85.9851
_cell_length_b       85.9066
_cell_length_c       86.1869
_cell_angle_alpha    74.0062
_cell_angle_beta     73.9161
_cell_angle_gamma    74.0186

_space_group_name_H-M_alt    "P 1"
_space_group_IT_number       1

loop_
  _space_group_symop_operation_xyz
  'x, y, z'

loop_
  _atom_site_type_symbol
  _atom_site_label
  _atom_site_symmetry_multiplicity
  _atom_site_fract_x
  _atom_site_fract_y
  _atom_site_fract_z
  _atom_site_occupancy
  C   C1        1.0  0.18948  0.22659  0.98569  1.0000
  H   H1        1.0  0.23162  0.11578  0.41432  1.0000
  C   C2        1.0  0.28688  0.09506  0.21034  1.0000
  Fe  Fe1       1.0  0.29024  0.17326  0.41058  1.0000
  Fe  Fe2       1.0  0.28788  0.14969  0.39031  1.0000
  S   S1        1.0  0.28472  0.16977  0.36799  1.0000
  S   S2        1.0  0.28709  0.12375  0.39012  1.0000
  Fe  Fe3       1.0  0.26769  0.18492  0.38575  1.0000
  S   S3        1.0  0.24208  0.19812  0.38204  1.0000
  S   S4        1.0  0.26919  0.16408  0.40789  1.0000
  Fe  Fe4       1.0  0.29064  0.00544  0.13131  1.0000
  S   S5        1.0  0.26970  0.01602  0.11829  1.0000
  H   H2        1.0  0.02867  0.22353  0.31548  1.0000
  Fe  Fe5       1.0  0.28976  0.03955  0.13772  1.0000
  S   S6        1.0  0.26782  0.05181  0.12595  1.0000
  Fe  Fe6       1.0  0.25817  0.02886  0.13936  1.0000
  S   S7        1.0  0.23240  0.02558  0.15226  1.0000
  Fe  Fe7       1.0  0.28173  0.03768  0.10624  1.0000
  S   S8        1.0  0.28732  0.04843  0.07879  1.0000
  S   S9        1.0  0.27870  0.01766  0.15304  1.0000
  S   S10       1.0  0.30399  0.02606  0.11738  1.0000
  Fe  Fe8       1.0  0.29575  0.15123  0.02186  1.0000
  S   S11       1.0  0.27543  0.15549  0.04381  1.0000
  Fe  Fe9       1.0  0.27187  0.15766  0.99878  1.0000
  S   S12       1.0  0.24964  0.16221  0.01939  1.0000
  Fe  Fe10      1.0  0.26371  0.17686  0.02614  1.0000
  S   S13       1.0  0.25381  0.20245  0.03133  1.0000
  Fe  Fe11      1.0  0.26344  0.14024  0.03519  1.0000
  S   S14       1.0  0.25016  0.12266  0.05577  1.0000
  S   S15       1.0  0.28512  0.17387  0.00466  1.0000
  S   S16       1.0  0.28473  0.13433  0.01411  1.0000
  Fe  Fe12      1.0  0.07339  0.15213  0.25468  1.0000
  S   S17       1.0  0.05018  0.14304  0.26864  1.0000
  S   S18       1.0  0.09987  0.13818  0.25358  1.0000
  Fe  Fe13      1.0  0.05481  0.18781  0.24504  1.0000
  S   S19       1.0  0.03008  0.18188  0.25827  1.0000
  S   S20       1.0  0.05576  0.21453  0.23324  1.0000
  Fe  Fe14      1.0  0.04326  0.16638  0.27839  1.0000
  S   S21       1.0  0.03094  0.16737  0.30484  1.0000
  Fe  Fe15      1.0  0.03905  0.15938  0.24726  1.0000
  S   S22       1.0  0.02484  0.15250  0.23246  1.0000
  S   S23       1.0  0.06715  0.17424  0.26608  1.0000
  S   S24       1.0  0.06307  0.16643  0.23242  1.0000
  Fe  Fe16      1.0  0.17337  0.04289  0.27193  1.0000
  S   S25       1.0  0.16800  0.06279  0.24999  1.0000
  S   S26       1.0  0.17387  0.05389  0.29283  1.0000
  Fe  Fe17      1.0  0.17185  0.01570  0.25565  1.0000
  S   S27       1.0  0.16627  0.03399  0.23260  1.0000
  H   H3        1.0  0.28719  0.12440  0.32416  1.0000
  Fe  Fe18      1.0  0.18581  0.04546  0.23488  1.0000
  S   S28       1.0  0.20441  0.05748  0.21469  1.0000
  Fe  Fe19      1.0  0.14892  0.04973  0.24992  1.0000
  S   S29       1.0  0.12310  0.06335  0.24670  1.0000
  S   S30       1.0  0.19285  0.02628  0.25679  1.0000
  S   S31       1.0  0.15292  0.03060  0.27300  1.0000
  Fe  Fe20      1.0  0.23348  0.11367  0.33419  1.0000
  S   S32       1.0  0.23284  0.13925  0.31843  1.0000
  S   S33       1.0  0.23347  0.10941  0.36122  1.0000
  Fe  Fe21      1.0  0.23551  0.09809  0.30540  1.0000
  S   S34       1.0  0.23598  0.12244  0.28737  1.0000
  S   S35       1.0  0.23812  0.07671  0.29346  1.0000
  Fe  Fe22      1.0  0.25304  0.12618  0.30077  1.0000
  S   S36       1.0  0.27646  0.13531  0.28910  1.0000
  Fe  Fe23      1.0  0.21573  0.13293  0.30674  1.0000
  S   S37       1.0  0.19378  0.15030  0.29771  1.0000
  S   S38       1.0  0.25477  0.10081  0.31710  1.0000
  S   S39       1.0  0.21413  0.10842  0.32426  1.0000
  S   S40       1.0  0.32129  0.19902  0.13238  1.0000
  S   S41       1.0  0.10459  0.19147  0.32698  1.0000
  H   H4        1.0  0.27997  0.08394  0.11847  1.0000
  Fe  Fe24      1.0  0.11785  0.19435  0.34481  1.0000
  S   S42       1.0  0.13797  0.17554  0.35584  1.0000
  C   C3        1.0  0.05451  0.22415  0.30611  1.0000
  C   C4        1.0  0.17810  0.15635  0.31419  1.0000
  C   C5        1.0  0.16306  0.16653  0.31099  1.0000
  C   C6        1.0  0.15085  0.17257  0.32376  1.0000
  C   C7        1.0  0.15338  0.16799  0.33989  1.0000
  C   C8        1.0  0.16831  0.15754  0.34318  1.0000
  C   C9        1.0  0.18074  0.15181  0.33029  1.0000
  H   H5        1.0  0.16092  0.16992  0.29859  1.0000
  H   H6        1.0  0.13945  0.18069  0.32109  1.0000
  H   H7        1.0  0.17029  0.15394  0.35566  1.0000
  H   H8        1.0  0.19234  0.14389  0.33283  1.0000
  C   C10       1.0  0.28694  0.13888  0.23368  1.0000
  C   C11       1.0  0.27069  0.14382  0.24231  1.0000
  C   C12       1.0  0.26744  0.14302  0.25935  1.0000
  C   C13       1.0  0.28047  0.13753  0.26766  1.0000
  C   C14       1.0  0.29676  0.13321  0.25890  1.0000
  C   C15       1.0  0.29997  0.13373  0.24196  1.0000
  H   H9        1.0  0.26060  0.14795  0.23590  1.0000
  H   H10       1.0  0.25489  0.14681  0.26602  1.0000
  H   H11       1.0  0.29420  0.11845  0.04919  1.0000
  C   C16       1.0  0.19199  0.05943  0.29352  1.0000
  C   C17       1.0  0.20764  0.05279  0.28477  1.0000
  C   C18       1.0  0.22174  0.05786  0.28521  1.0000
  C   C19       1.0  0.22029  0.06978  0.29419  1.0000
  C   C20       1.0  0.20464  0.07633  0.30302  1.0000
  C   C21       1.0  0.19059  0.07106  0.30281  1.0000
  H   H12       1.0  0.20891  0.04360  0.27781  1.0000
  H   H13       1.0  0.23381  0.05259  0.27849  1.0000
  H   H14       1.0  0.20337  0.08542  0.31006  1.0000
  H   H15       1.0  0.17858  0.07614  0.30976  1.0000
  C   C22       1.0  0.03927  0.17577  0.31647  1.0000
  C   C23       1.0  0.05576  0.17763  0.31204  1.0000
  C   C24       1.0  0.06162  0.18466  0.32175  1.0000
  C   C25       1.0  0.05091  0.19001  0.33575  1.0000
  C   C26       1.0  0.03457  0.18792  0.34017  1.0000
  C   C27       1.0  0.02883  0.18077  0.33066  1.0000
  H   H16       1.0  0.06401  0.17352  0.30128  1.0000
  H   H17       1.0  0.07430  0.18611  0.31832  1.0000
  C   C28       1.0  0.02681  0.22311  0.16740  1.0000
  H   H18       1.0  0.01614  0.17927  0.33426  1.0000
  C   C29       1.0  0.10600  0.11782  0.25048  1.0000
  C   C30       1.0  0.09456  0.10906  0.25029  1.0000
  C   C31       1.0  0.09994  0.09239  0.24886  1.0000
  C   C32       1.0  0.11671  0.08445  0.24771  1.0000
  C   C33       1.0  0.12808  0.09337  0.24765  1.0000
  C   C34       1.0  0.12275  0.10997  0.24904  1.0000
  H   H19       1.0  0.08159  0.11508  0.25138  1.0000
  H   H20       1.0  0.09108  0.08559  0.24881  1.0000
  H   H21       1.0  0.14100  0.08762  0.24648  1.0000
  H   H22       1.0  0.13163  0.11673  0.24916  1.0000
  H   H23       1.0  0.05559  0.22770  0.31686  1.0000
  C   C35       1.0  0.22562  0.03324  0.17037  1.0000
  C   C36       1.0  0.21188  0.02867  0.18222  1.0000
  C   C37       1.0  0.20585  0.03538  0.19639  1.0000
  C   C38       1.0  0.21332  0.04698  0.19850  1.0000
  C   C39       1.0  0.22721  0.05137  0.18675  1.0000
  C   C40       1.0  0.23347  0.04437  0.17277  1.0000
  H   H24       1.0  0.20588  0.01995  0.18043  1.0000
  H   H25       1.0  0.19520  0.03188  0.20545  1.0000
  H   H26       1.0  0.23302  0.06033  0.18835  1.0000
  H   H27       1.0  0.24412  0.04791  0.16364  1.0000
  C   C41       1.0  0.27663  0.06887  0.07222  1.0000
  C   C42       1.0  0.26255  0.07620  0.08259  1.0000
  C   C43       1.0  0.25432  0.09259  0.07722  1.0000
  C   C44       1.0  0.26026  0.10183  0.06155  1.0000
  C   C45       1.0  0.27426  0.09447  0.05108  1.0000
  C   C46       1.0  0.28237  0.07798  0.05638  1.0000
  H   H28       1.0  0.25784  0.06920  0.09467  1.0000
  H   H29       1.0  0.24340  0.09818  0.08529  1.0000
  H   H30       1.0  0.27874  0.10143  0.03887  1.0000
  H   H31       1.0  0.04465  0.18672  0.20269  1.0000
  H   H32       1.0  0.16825  0.20268  0.26034  1.0000
  C   C47       1.0  0.07209  0.20788  0.18632  1.0000
  C   C48       1.0  0.06958  0.20533  0.20352  1.0000
  C   C49       1.0  0.06069  0.21821  0.21156  1.0000
  C   C50       1.0  0.05233  0.21332  0.27948  1.0000
  C   C51       1.0  0.29045  0.18832  0.46179  1.0000
  H   H33       1.0  0.07873  0.19775  0.18022  1.0000
  H   H34       1.0  0.07461  0.19340  0.21051  1.0000
  C   C52       1.0  0.08211  0.21107  0.26782  1.0000
  C   C53       1.0  0.19853  0.21887  0.03187  1.0000
  C   C54       1.0  0.20564  0.20201  0.03650  1.0000
  C   C55       1.0  0.22256  0.19691  0.03674  1.0000
  C   C56       1.0  0.23242  0.20864  0.03226  1.0000
  H   H35       1.0  0.26625  0.10652  0.26244  1.0000
  C   C57       1.0  0.22774  0.17082  0.36691  1.0000
  H   H36       1.0  0.22794  0.18389  0.04049  1.0000
  H   H37       1.0  0.14798  0.22425  0.29470  1.0000
  C   C58       1.0  0.99661  0.12070  0.28909  1.0000
  H   H38       1.0  0.15384  0.22871  0.36935  1.0000
  H   H39       1.0  0.03514  0.19799  0.21869  1.0000
  C   C59       1.0  0.30789  0.06004  0.15835  1.0000
  C   C60       1.0  0.32004  0.07521  0.17043  1.0000
  H   H40       1.0  0.03192  0.11933  0.25900  1.0000
  C   C61       1.0  0.27327  0.11995  0.38045  1.0000
  C   C62       1.0  0.26815  0.10488  0.38645  1.0000
  C   C63       1.0  0.25652  0.10154  0.37991  1.0000
  C   C64       1.0  0.25033  0.11290  0.36678  1.0000
  C   C65       1.0  0.25602  0.12772  0.36011  1.0000
  C   C66       1.0  0.26726  0.13139  0.36715  1.0000
  H   H41       1.0  0.27280  0.09593  0.39662  1.0000
  H   H42       1.0  0.25211  0.09014  0.38521  1.0000
  H   H43       1.0  0.25115  0.13666  0.35009  1.0000
  H   H44       1.0  0.27120  0.14303  0.36235  1.0000
  Fe  Fe25      1.0  0.30503  0.17786  0.37325  1.0000
  H   H45       1.0  0.19618  0.20523  0.00437  1.0000
  C   C67       1.0  0.25832  0.98315  0.16347  1.0000
  C   C68       1.0  0.29898  0.08045  0.09667  1.0000
  C   C69       1.0  0.28681  0.99049  0.07796  1.0000
  C   C70       1.0  0.12187  0.19935  0.38859  1.0000
  C   C71       1.0  0.99325  0.11225  0.26640  1.0000
  C   C72       1.0  0.23891  0.13925  0.40399  1.0000
  C   C73       1.0  0.23232  0.21462  0.42147  1.0000
  C   C74       1.0  0.03293  0.19479  0.20794  1.0000
  H   H46       1.0  0.29818  0.06556  0.22834  1.0000
  H   H47       1.0  0.26204  0.22130  0.37996  1.0000
  H   H48       1.0  0.01615  0.22452  0.21358  1.0000
  C   C75       1.0  0.22926  0.19761  0.99384  1.0000
  Fe  Fe26      1.0  0.10932  0.21650  0.31325  1.0000
  H   H49       1.0  0.18751  0.18637  0.27737  1.0000
  H   H50       1.0  0.21938  0.18155  0.37192  1.0000
  C   C76       1.0  0.14213  0.20425  0.40017  1.0000
  C   C77       1.0  0.18144  0.20251  0.31081  1.0000
  H   H51       1.0  0.02042  0.12593  0.28688  1.0000
  C   C78       1.0  0.20079  0.21346  0.99298  1.0000
  N   N1        1.0  0.02814  0.20976  0.19560  1.0000
  S   S43       1.0  0.28757  0.19507  0.38915  1.0000
  H   H52       1.0  0.13132  0.22920  0.35638  1.0000
  H   H53       1.0  0.24910  0.99268  0.16974  1.0000
  H   H54       1.0  0.23152  0.99213  0.15086  1.0000
  H   H55       1.0  0.31718  0.11939  0.36363  1.0000
  H   H56       1.0  0.02624  0.19194  0.35098  1.0000
  C   C79       1.0  0.00348  0.15239  0.23895  1.0000
  C   C80       1.0  0.28845  0.22054  0.04052  1.0000
  C   C81       1.0  0.29357  0.13249  0.32661  1.0000
  C   C82       1.0  0.22049  0.12983  0.39375  1.0000
  C   C83       1.0  0.18912  0.19275  0.29913  1.0000
  H   H57       1.0  0.24457  0.16278  0.39052  1.0000
  S   S44       1.0  0.31989  0.20249  0.08726  1.0000
  N   N2        1.0  0.31028  0.13721  0.34239  1.0000
  H   H58       1.0  0.00293  0.14532  0.21700  1.0000
  C   C84       1.0  0.99428  0.15556  0.25432  1.0000
  N   N3        1.0  0.06721  0.21551  0.28039  1.0000
  H   H59       1.0  0.21425  0.12030  0.39405  1.0000
  H   H60       1.0  0.31350  0.17295  0.16023  1.0000
  H   H61       1.0  0.30099  0.17138  0.31284  1.0000
  C   C85       1.0  0.15968  0.21553  0.29576  1.0000
  N   N4        1.0  0.17638  0.06987  0.18456  1.0000
  C   C86       1.0  0.17090  0.05747  0.18195  1.0000
  C   C87       1.0  0.16759  0.07801  0.19694  1.0000
  C   C88       1.0  0.15622  0.05298  0.19187  1.0000
  C   C89       1.0  0.15280  0.07394  0.20699  1.0000
  C   C90       1.0  0.14705  0.06140  0.20436  1.0000
  C   C91       1.0  0.19114  0.07522  0.17339  1.0000
  H   H62       1.0  0.17796  0.05087  0.17226  1.0000
  H   H63       1.0  0.17207  0.08766  0.19916  1.0000
  H   H64       1.0  0.15203  0.04295  0.18998  1.0000
  H   H65       1.0  0.14585  0.08033  0.21686  1.0000
  H   H66       1.0  0.13571  0.05798  0.21227  1.0000
  H   H67       1.0  0.19837  0.07872  0.18030  1.0000
  H   H68       1.0  0.19963  0.06508  0.16748  1.0000
  H   H69       1.0  0.18747  0.08599  0.16354  1.0000
  N   N5        1.0  0.12450  0.08238  0.29339  1.0000
  C   C92       1.0  0.13459  0.08698  0.30034  1.0000
  C   C93       1.0  0.11072  0.09342  0.28909  1.0000
  C   C94       1.0  0.13082  0.10295  0.30338  1.0000
  C   C95       1.0  0.10662  0.10949  0.29188  1.0000
  C   C96       1.0  0.11675  0.11426  0.29906  1.0000
  C   C97       1.0  0.12907  0.06593  0.28949  1.0000
  H   H70       1.0  0.14566  0.07830  0.30354  1.0000
  H   H71       1.0  0.10299  0.08994  0.28313  1.0000
  H   H72       1.0  0.13880  0.10653  0.30896  1.0000
  H   H73       1.0  0.09585  0.11832  0.28814  1.0000
  H   H74       1.0  0.11374  0.12677  0.30113  1.0000
  H   H75       1.0  0.13647  0.06663  0.27664  1.0000
  H   H76       1.0  0.13657  0.05671  0.29798  1.0000
  H   H77       1.0  0.11791  0.06124  0.29052  1.0000
  N   N6        1.0  0.20945  0.08567  0.25380  1.0000
  C   C98       1.0  0.19368  0.09201  0.26155  1.0000
  C   C99       1.0  0.22244  0.09190  0.25388  1.0000
  C   C100      1.0  0.19069  0.10468  0.27002  1.0000
  C   C101      1.0  0.21988  0.10459  0.26215  1.0000
  C   C102      1.0  0.20391  0.11094  0.27038  1.0000
  C   C103      1.0  0.21247  0.07251  0.24484  1.0000
  H   H78       1.0  0.18340  0.08693  0.26168  1.0000
  H   H79       1.0  0.23496  0.08672  0.24794  1.0000
  H   H80       1.0  0.17828  0.10932  0.27662  1.0000
  H   H81       1.0  0.23031  0.10906  0.26262  1.0000
  H   H82       1.0  0.20185  0.12047  0.27727  1.0000
  H   H83       1.0  0.22423  0.06341  0.24644  1.0000
  H   H84       1.0  0.20253  0.06533  0.24953  1.0000
  H   H85       1.0  0.21312  0.07792  0.23146  1.0000
  H   H86       1.0  0.31750  0.18411  0.00640  1.0000
  H   H87       1.0  0.31605  0.08040  0.07321  1.0000
  C   C104      1.0  0.23718  0.21951  0.38142  1.0000
  Fe  Fe27      1.0  0.10103  0.23026  0.34423  1.0000
  S   S45       1.0  0.05677  0.20036  0.34760  1.0000
  N   N7        1.0  0.22843  0.15580  0.38012  1.0000
  C   C105      1.0  0.30506  0.08736  0.08008  1.0000
  S   S46       1.0  0.29081  0.13778  0.21293  1.0000
  N   N8        1.0  0.29712  0.10254  0.07257  1.0000
  C   C106      1.0  0.31869  0.21249  0.03362  1.0000
  H   H88       1.0  0.14978  0.19906  0.27591  1.0000
  C   C107      1.0  0.30127  0.15888  0.32023  1.0000
  H   H89       1.0  0.07907  0.21356  0.25549  1.0000
  H   H90       1.0  0.03935  0.19794  0.17521  1.0000
  N   N9        1.0  0.16729  0.20588  0.28437  1.0000
  H   H91       1.0  0.17636  0.22852  0.99145  1.0000
  C   C108      1.0  0.09998  0.22871  0.08131  1.0000
  H   H92       1.0  0.31387  0.08388  0.14647  1.0000
  S   S47       1.0  0.11672  0.22241  0.28560  1.0000
  H   H93       1.0  0.31325  0.11703  0.05496  1.0000
  C   C109      1.0  0.27932  0.08119  0.26272  1.0000
  H   H94       1.0  0.18674  0.20091  0.32134  1.0000
  H   H95       1.0  0.29965  0.08956  0.20433  1.0000
  H   H96       1.0  0.27724  0.21787  0.03864  1.0000
  H   H97       1.0  0.30686  0.12895  0.26531  1.0000
  S   S48       1.0  0.09485  0.20654  0.36065  1.0000
  H   H98       1.0  0.26533  0.13096  0.97898  1.0000
  S   S49       1.0  0.17626  0.98795  0.25731  1.0000
  C   C110      1.0  0.16669  0.21408  0.30908  1.0000
  C   C111      1.0  0.00959  0.11312  0.25816  1.0000
  Fe  Fe28      1.0  0.08215  0.20594  0.34130  1.0000
  C   C112      1.0  0.23030  0.12726  0.40506  1.0000
  H   H99       1.0  0.26542  0.11138  0.10454  1.0000
  C   C113      1.0  0.24884  0.20890  0.42275  1.0000
  C   C114      1.0  0.21970  0.14424  0.38125  1.0000
  H   H100      1.0  0.29351  0.05708  0.25890  1.0000
  H   H101      1.0  0.30729  0.01500  0.08597  1.0000
  H   H102      1.0  0.22336  0.16937  0.35651  1.0000
  H   H103      1.0  0.15440  0.20094  0.40280  1.0000
  H   H104      1.0  0.27666  0.12311  0.07522  1.0000
  H   H105      1.0  0.01432  0.11087  0.24575  1.0000
  N   N10       1.0  0.21740  0.21121  0.98602  1.0000
  H   H106      1.0  0.02663  0.21385  0.29156  1.0000
  H   H107      1.0  0.31469  0.16747  0.11790  1.0000
  C   C115      1.0  0.27559  0.10176  0.23778  1.0000
  H   H108      1.0  0.31651  0.14041  0.36334  1.0000
  C   C116      1.0  0.11101  0.21377  0.39277  1.0000
  H   H109      1.0  0.30516  0.06833  0.10262  1.0000
  H   H110      1.0  0.21129  0.22194  0.38251  1.0000
  C   C117      1.0  0.13757  0.19469  0.39213  1.0000
  S   S50       1.0  0.06801  0.22562  0.15574  1.0000
  C   C118      1.0  0.20831  0.23061  0.02791  1.0000
  H   H111      1.0  0.25526  0.19637  0.42152  1.0000
  H   H112      1.0  0.02303  0.18757  0.21242  1.0000
  H   H113      1.0  0.30751  0.16647  0.04767  1.0000
  C   C119      1.0  0.28315  0.11121  0.08124  1.0000
  C   C120      1.0  0.03821  0.21633  0.29197  1.0000
  C   C121      1.0  0.03934  0.22180  0.30535  1.0000
  C   C122      1.0  0.29309  0.14854  0.31703  1.0000
  H   H114      1.0  0.29147  0.20021  0.02062  1.0000
  C   C123      1.0  0.22523  0.22550  0.02800  1.0000
  C   C124      1.0  0.28476  0.08921  0.10559  1.0000
  H   H115      1.0  0.31626  0.16106  0.33542  1.0000
  C   C125      1.0  0.32082  0.16321  0.04634  1.0000
  H   H116      1.0  0.24027  0.17367  0.36176  1.0000
  H   H117      1.0  0.31909  0.22026  0.04147  1.0000
  C   C126      1.0  0.01947  0.11794  0.26560  1.0000
  N   N11       1.0  0.28461  0.09043  0.22840  1.0000
  C   C127      1.0  0.30413  0.00381  0.08542  1.0000
  C   C128      1.0  0.06590  0.22338  0.17704  1.0000
  H   H118      1.0  0.19811  0.19287  0.03976  1.0000
  S   S51       1.0  0.17774  0.22513  0.03010  1.0000
  C   C129      1.0  0.29079  0.00495  0.07863  1.0000
  C   C130      1.0  0.03198  0.20915  0.17924  1.0000
  S   S52       1.0  0.08593  0.23101  0.32636  1.0000
  H   H119      1.0  0.28642  0.15291  0.30709  1.0000
  C   C131      1.0  0.30327  0.20137  0.02195  1.0000
  C   C132      1.0  0.24928  0.22777  0.38097  1.0000
  Fe  Fe29      1.0  0.31621  0.12210  0.20699  1.0000
  C   C133      1.0  0.25717  0.21942  0.42541  1.0000
  C   C134      1.0  0.23768  0.15361  0.39145  1.0000
  C   C135      1.0  0.31982  0.13127  0.35537  1.0000
  C   C136      1.0  0.27299  0.09739  0.25504  1.0000
  H   H120      1.0  0.22591  0.20666  0.41892  1.0000
  H   H121      1.0  0.27801  0.09052  0.20640  1.0000
  S   S53       1.0  0.12479  0.21807  0.32956  1.0000
  H   H122      1.0  0.12727  0.22705  0.05727  1.0000
  H   H123      1.0  0.14201  0.99729  0.25297  1.0000
  C   C137      1.0  0.27671  0.10464  0.09783  1.0000
  S   S54       1.0  0.30051  0.05936  0.14135  1.0000
  C   C138      1.0  0.30806  0.04726  0.17252  1.0000
  H   H124      1.0  0.10536  0.21555  0.08054  1.0000
  C   C139      1.0  0.28840  0.06967  0.25306  1.0000
  H   H125      1.0  0.21261  0.14572  0.37210  1.0000
  S   S55       1.0  0.28489  0.17935  0.43601  1.0000
  H   H126      1.0  0.30248  0.11451  0.34681  1.0000
  H   H127      1.0  0.27052  0.11434  0.23193  1.0000
  H   H128      1.0  0.09204  0.22888  0.09392  1.0000
  H   H129      1.0  0.28517  0.10872  0.20570  1.0000
  H   H130      1.0  0.20031  0.18333  0.30060  1.0000
  C   C140      1.0  0.18180  0.19457  0.28594  1.0000
  H   H131      1.0  0.11826  0.19190  0.38241  1.0000
  H   H132      1.0  0.31256  0.12999  0.23538  1.0000
  C   C141      1.0  0.99589  0.14776  0.22892  1.0000
  C   C142      1.0  0.30407  0.10991  0.05539  1.0000
  H   H133      1.0  0.29316  0.07230  0.04823  1.0000
  H   H134      1.0  0.16054  0.22163  0.31818  1.0000
  C   C143      1.0  0.31428  0.04848  0.18558  1.0000
  C   C144      1.0  0.15918  0.20689  0.27114  1.0000
  H   H135      1.0  0.26534  0.98954  0.15170  1.0000
  H   H136      1.0  0.24695  0.13718  0.41243  1.0000
  H   H137      1.0  0.08772  0.19766  0.27136  1.0000
  C   C145      1.0  0.29773  0.18010  0.44865  1.0000
  C   C146      1.0  0.29096  0.07453  0.23580  1.0000
  C   C147      1.0  0.31793  0.19238  0.01372  1.0000
  H   H138      1.0  0.31288  0.14252  0.14083  1.0000
  H   H139      1.0  0.15273  0.21987  0.26670  1.0000
  H   H140      1.0  0.27638  0.99125  0.07281  1.0000
  N   N12       1.0  0.30381  0.21123  0.03178  1.0000
  H   H141      1.0  0.27717  0.07761  0.27613  1.0000
  H   H142      1.0  0.22294  0.18876  0.00399  1.0000
  H   H143      1.0  0.27759  0.19476  0.46333  1.0000
  C   C148      1.0  0.01298  0.12175  0.28118  1.0000
  H   H144      1.0  0.05135  0.20890  0.26922  1.0000
  H   H145      1.0  0.09150  0.21829  0.26656  1.0000
  C   C149      1.0  0.06847  0.22069  0.29357  1.0000
  H   H146      1.0  0.30353  0.03643  0.17337  1.0000
  H   H147      1.0  0.27364  0.98281  0.11971  1.0000
  C   C150      1.0  0.32031  0.06246  0.18458  1.0000
  C   C151      1.0  0.30231  0.12696  0.33932  1.0000
  H   H148      1.0  0.28805  0.21726  0.05401  1.0000
  S   S56       1.0  0.30952  0.15662  0.39484  1.0000
  H   H149      1.0  0.28353  0.01705  0.07400  1.0000
  H   H150      1.0  0.03025  0.22269  0.15440  1.0000
  H   H151      1.0  0.24911  0.22932  0.07849  1.0000
  C   C152      1.0  0.30991  0.15296  0.33301  1.0000
  H   H152      1.0  0.99151  0.12406  0.30102  1.0000
  C   C153      1.0  0.31606  0.17931  0.47172  1.0000
  H   H153      1.0  0.32012  0.16537  0.43682  1.0000
  H   H154      1.0  0.99997  0.15921  0.26211  1.0000
  C   C154      1.0  0.31437  0.17179  0.44684  1.0000
  H   H155      1.0  0.09897  0.21755  0.38957  1.0000
  H   H156      1.0  0.31450  0.03851  0.19645  1.0000
  C   C155      1.0  0.29954  0.18792  0.47326  1.0000
  N   N13       1.0  0.11570  0.22325  0.40035  1.0000
  C   C156      1.0  0.22071  0.22820  0.38229  1.0000
  H   H157      1.0  0.27005  0.21502  0.42639  1.0000
  H   H158      1.0  0.14618  0.18376  0.38847  1.0000
  H   H159      1.0  0.08040  0.22176  0.29466  1.0000
  C   C157      1.0  0.31387  0.07400  0.15741  1.0000
  C   C158      1.0  0.01910  0.22402  0.20061  1.0000
  H   H160      1.0  0.23775  0.19043  0.98466  1.0000
  H   H161      1.0  0.31017  0.10023  0.04803  1.0000
  C   C159      1.0  0.14778  0.98538  0.24974  1.0000
  Fe  Fe30      1.0  0.32042  0.22870  0.07389  1.0000
  H   H162      1.0  0.23673  0.20262  0.99918  1.0000
  C   C160      1.0  0.13089  0.21848  0.40439  1.0000
  H   H163      1.0  0.13470  0.22608  0.41025  1.0000
  C   C161      1.0  0.31322  0.98819  0.09161  1.0000
  C   C162      1.0  0.22433  0.23091  0.42281  1.0000
  H   H164      1.0  0.32096  0.17846  0.06264  1.0000
  H   H165      1.0  0.27754  0.15487  0.47353  1.0000
  S   S57       1.0  0.25085  0.13906  0.69508  1.0000
  Fe  Fe31      1.0  0.21062  0.07065  0.77615  1.0000
  S   S58       1.0  0.23581  0.05764  0.76454  1.0000
  S   S59       1.0  0.19130  0.07947  0.76077  1.0000
  Fe  Fe32      1.0  0.22151  0.07038  0.80716  1.0000
  S   S60       1.0  0.21403  0.07964  0.83096  1.0000
  Fe  Fe33      1.0  0.24525  0.07441  0.77392  1.0000
  Fe  Fe34      1.0  0.23497  0.04115  0.78989  1.0000
  S   S61       1.0  0.22009  0.08893  0.78330  1.0000
  S   S62       1.0  0.20919  0.05335  0.80115  1.0000
  Fe  Fe35      1.0  0.23030  0.15269  0.87794  1.0000
  S   S63       1.0  0.23693  0.12577  0.89002  1.0000
  S   S64       1.0  0.20502  0.16561  0.87340  1.0000
  Fe  Fe36      1.0  0.26550  0.15729  0.86905  1.0000
  S   S65       1.0  0.27533  0.13057  0.87985  1.0000
  S   S66       1.0  0.28116  0.17660  0.85949  1.0000
  Fe  Fe37      1.0  0.25799  0.12477  0.86783  1.0000
  S   S67       1.0  0.26611  0.10538  0.85216  1.0000
  Fe  Fe38      1.0  0.25348  0.13398  0.90115  1.0000
  S   S68       1.0  0.25677  0.12351  0.92765  1.0000
  S   S69       1.0  0.25028  0.15129  0.85508  1.0000
  S   S70       1.0  0.24470  0.16105  0.89105  1.0000
  S   S71       1.0  0.08008  0.18335  0.76836  1.0000
  H   H166      1.0  0.09674  0.20304  0.73840  1.0000
  C   C163      1.0  0.04740  0.19359  0.65442  1.0000
  C   C164      1.0  0.18107  0.19948  0.69282  1.0000
  C   C165      1.0  0.25180  0.22844  0.85950  1.0000
  C   C166      1.0  0.21450  0.00534  0.79616  1.0000
  C   C167      1.0  0.25605  0.12835  0.81439  1.0000
  C   C168      1.0  0.16144  0.22678  0.62676  1.0000
  Fe  Fe39      1.0  0.21763  0.14873  0.64294  1.0000
  S   S72       1.0  0.19248  0.16490  0.64172  1.0000
  S   S73       1.0  0.24453  0.01332  0.79290  1.0000
  Fe  Fe40      1.0  0.20379  0.12043  0.66799  1.0000
  S   S74       1.0  0.17760  0.13440  0.66900  1.0000
  S   S75       1.0  0.20594  0.09575  0.68578  1.0000
  Fe  Fe41      1.0  0.18586  0.14155  0.64147  1.0000
  S   S76       1.0  0.16828  0.14151  0.62668  1.0000
  Fe  Fe42      1.0  0.18665  0.15625  0.66923  1.0000
  S   S77       1.0  0.17263  0.17387  0.68590  1.0000
  S   S78       1.0  0.21160  0.12584  0.64021  1.0000
  S   S79       1.0  0.21235  0.14171  0.67070  1.0000
  C   C169      1.0  0.20401  0.22013  0.85051  1.0000
  H   H167      1.0  0.19650  0.22424  0.57703  1.0000
  C   C170      1.0  0.00264  0.20495  0.73871  1.0000
  C   C171      1.0  0.21982  0.00810  0.75492  1.0000
  H   H168      1.0  0.25576  0.12253  0.64977  1.0000
  H   H169      1.0  0.30993  0.20793  0.80811  1.0000
  Fe  Fe43      1.0  0.13638  0.01023  0.71688  1.0000
  S   S80       1.0  0.12429  0.01418  0.74253  1.0000
  H   H170      1.0  0.19198  0.99353  0.74545  1.0000
  Fe  Fe44      1.0  0.14027  0.04611  0.70407  1.0000
  S   S81       1.0  0.12881  0.05286  0.72862  1.0000
  S   S82       1.0  0.14866  0.06514  0.68178  1.0000
  Fe  Fe45      1.0  0.14388  0.02832  0.73889  1.0000
  S   S83       1.0  0.15858  0.02288  0.75837  1.0000
  Fe  Fe46      1.0  0.11026  0.03843  0.72987  1.0000
  S   S84       1.0  0.08346  0.04911  0.74001  1.0000
  S   S85       1.0  0.15706  0.02279  0.71411  1.0000
  S   S86       1.0  0.12066  0.03327  0.70434  1.0000
  Fe  Fe47      1.0  0.01567  0.14983  0.75152  1.0000
  C   C172      1.0  0.31646  0.18221  0.74494  1.0000
  S   S87       1.0  0.01828  0.15334  0.77549  1.0000
  Fe  Fe48      1.0  0.02983  0.13532  0.72118  1.0000
  S   S88       1.0  0.00686  0.14654  0.71099  1.0000
  S   S89       1.0  0.05182  0.12145  0.70535  1.0000
  Fe  Fe49      1.0  0.00692  0.16925  0.71889  1.0000
  S   S90       1.0  0.99800  0.19452  0.70410  1.0000
  Fe  Fe50      1.0  0.99315  0.13856  0.73697  1.0000
  C   C173      1.0  0.27308  0.21696  0.59324  1.0000
  S   S91       1.0  0.03115  0.15893  0.72671  1.0000
  S   S92       1.0  0.01608  0.12532  0.74672  1.0000
  H   H171      1.0  0.07086  0.14897  0.68233  1.0000
  C   C174      1.0  0.24743  0.16229  0.60895  1.0000
  H   H172      1.0  0.26513  0.17601  0.60854  1.0000
  H   H173      1.0  0.02132  0.11071  0.70079  1.0000
  N   N14       1.0  0.20679  0.00833  0.74860  1.0000
  S   S93       1.0  0.26934  0.20686  0.67703  1.0000
  C   C175      1.0  0.28973  0.15498  0.51334  1.0000
  N   N15       1.0  0.27455  0.13525  0.64832  1.0000
  H   H174      1.0  0.14296  0.19632  0.70382  1.0000
  H   H175      1.0  0.30440  0.17853  0.74763  1.0000
  C   C176      1.0  0.25996  0.12836  0.65744  1.0000
  C   C177      1.0  0.14430  0.19389  0.88917  1.0000
  C   C178      1.0  0.07625  0.06982  0.73060  1.0000
  C   C179      1.0  0.06393  0.08013  0.73997  1.0000
  C   C180      1.0  0.05679  0.09621  0.73240  1.0000
  C   C181      1.0  0.06171  0.10196  0.71536  1.0000
  C   C182      1.0  0.07440  0.09185  0.70604  1.0000
  C   C183      1.0  0.08178  0.07585  0.71367  1.0000
  H   H176      1.0  0.05978  0.07558  0.75311  1.0000
  H   H177      1.0  0.04734  0.10400  0.73978  1.0000
  H   H178      1.0  0.07841  0.09628  0.69286  1.0000
  H   H179      1.0  0.09133  0.06797  0.70637  1.0000
  H   H180      1.0  0.07249  0.17963  0.65288  1.0000
  C   C184      1.0  0.21501  0.12985  0.73603  1.0000
  S   S94       1.0  0.28414  0.16629  0.68753  1.0000
  C   C185      1.0  0.19083  0.08623  0.68451  1.0000
  C   C186      1.0  0.18503  0.09036  0.66995  1.0000
  C   C187      1.0  0.17248  0.08334  0.66906  1.0000
  C   C188      1.0  0.16546  0.07239  0.68282  1.0000
  C   C189      1.0  0.17135  0.06807  0.69738  1.0000
  C   C190      1.0  0.18404  0.07501  0.69821  1.0000
  H   H181      1.0  0.19023  0.09898  0.65930  1.0000
  H   H182      1.0  0.16801  0.08670  0.65776  1.0000
  H   H183      1.0  0.16594  0.05965  0.70807  1.0000
  H   H184      1.0  0.18829  0.07208  0.70957  1.0000
  C   C191      1.0  0.18544  0.18752  0.68323  1.0000
  C   C192      1.0  0.20035  0.18629  0.67142  1.0000
  H   H185      1.0  0.20380  0.17732  0.66379  1.0000
  H   H186      1.0  0.30385  0.15043  0.65516  1.0000
  H   H187      1.0  0.18632  0.17387  0.90590  1.0000
  C   C193      1.0  0.01239  0.20730  0.69529  1.0000
  C   C194      1.0  0.02915  0.20143  0.69586  1.0000
  C   C195      1.0  0.21114  0.19652  0.66955  1.0000
  H   H188      1.0  0.17478  0.03833  0.66866  1.0000
  H   H189      1.0  0.03350  0.18887  0.70209  1.0000
  C   C196      1.0  0.11819  0.15916  0.65889  1.0000
  C   C197      1.0  0.13232  0.16353  0.65976  1.0000
  C   C198      1.0  0.14751  0.15849  0.64944  1.0000
  C   C199      1.0  0.14878  0.14868  0.63845  1.0000
  C   C200      1.0  0.13468  0.14402  0.63770  1.0000
  C   C201      1.0  0.11932  0.14923  0.64799  1.0000
  H   H190      1.0  0.13159  0.17082  0.66843  1.0000
  H   H191      1.0  0.15824  0.16235  0.64995  1.0000
  H   H192      1.0  0.13567  0.13636  0.62924  1.0000
  H   H193      1.0  0.10841  0.14588  0.64718  1.0000
  C   C202      1.0  0.06299  0.17482  0.77057  1.0000
  C   C203      1.0  0.06373  0.16464  0.76005  1.0000
  C   C204      1.0  0.05000  0.15811  0.76141  1.0000
  C   C205      1.0  0.03574  0.16116  0.77375  1.0000
  C   C206      1.0  0.03523  0.17090  0.78459  1.0000
  C   C207      1.0  0.04865  0.17808  0.78274  1.0000
  H   H194      1.0  0.07490  0.16180  0.75084  1.0000
  H   H195      1.0  0.05064  0.15030  0.75323  1.0000
  S   S95       1.0  0.09910  0.16716  0.67077  1.0000
  H   H196      1.0  0.00380  0.19428  0.78429  1.0000
  Fe  Fe51      1.0  0.28036  0.18545  0.66442  1.0000
  S   S96       1.0  0.31617  0.16855  0.53514  1.0000
  H   H197      1.0  0.18686  0.00856  0.67892  1.0000
  S   S97       1.0  0.22156  0.21949  0.67798  1.0000
  H   H198      1.0  0.20871  0.01797  0.79734  1.0000
  C   C208      1.0  0.20541  0.18614  0.86290  1.0000
  C   C209      1.0  0.21912  0.19272  0.86124  1.0000
  C   C210      1.0  0.21843  0.20972  0.85501  1.0000
  C   C211      1.0  0.12482  0.21355  0.72700  1.0000
  C   C212      1.0  0.19092  0.21331  0.85075  1.0000
  C   C213      1.0  0.19157  0.19633  0.85704  1.0000
  H   H199      1.0  0.23002  0.18486  0.86537  1.0000
  H   H200      1.0  0.22871  0.21480  0.85453  1.0000
  C   C214      1.0  0.27344  0.22845  0.57818  1.0000
  H   H201      1.0  0.18116  0.19123  0.85771  1.0000
  C   C215      1.0  0.25797  0.13579  0.94063  1.0000
  C   C216      1.0  0.25783  0.15271  0.93487  1.0000
  C   C217      1.0  0.26052  0.16172  0.94494  1.0000
  C   C218      1.0  0.26349  0.15391  0.96081  1.0000
  H   H202      1.0  0.25604  0.15878  0.92253  1.0000
  H   H203      1.0  0.26072  0.17472  0.94024  1.0000
  C   C219      1.0  0.28831  0.18150  0.83787  1.0000
  C   C220      1.0  0.28488  0.17330  0.82767  1.0000
  C   C221      1.0  0.22023  0.19910  0.58752  1.0000
  H   H204      1.0  0.23669  0.02193  0.75639  1.0000
  C   C222      1.0  0.29679  0.14731  0.48741  1.0000
  C   C223      1.0  0.29746  0.19392  0.83075  1.0000
  H   H205      1.0  0.27817  0.16349  0.83304  1.0000
  C   C224      1.0  0.10515  0.19702  0.72875  1.0000
  S   S98       1.0  0.13101  0.22257  0.85585  1.0000
  H   H206      1.0  0.30068  0.19992  0.83856  1.0000
  C   C225      1.0  0.18192  0.06386  0.76037  1.0000
  C   C226      1.0  0.18455  0.04832  0.77107  1.0000
  C   C227      1.0  0.17691  0.03600  0.77069  1.0000
  C   C228      1.0  0.16684  0.03905  0.75941  1.0000
  C   C229      1.0  0.16439  0.05451  0.74853  1.0000
  C   C230      1.0  0.17182  0.06694  0.74910  1.0000
  H   H207      1.0  0.19240  0.04578  0.77970  1.0000
  H   H208      1.0  0.17895  0.02402  0.77902  1.0000
  H   H209      1.0  0.15681  0.05689  0.73968  1.0000
  H   H210      1.0  0.16982  0.07890  0.74073  1.0000
  H   H211      1.0  0.07937  0.14989  0.66055  1.0000
  C   C231      1.0  0.22871  0.08617  0.83722  1.0000
  C   C232      1.0  0.22344  0.09461  0.85022  1.0000
  C   C233      1.0  0.23480  0.10030  0.85518  1.0000
  C   C234      1.0  0.25158  0.09738  0.84730  1.0000
  C   C235      1.0  0.25692  0.08847  0.83466  1.0000
  C   C236      1.0  0.24553  0.08305  0.82951  1.0000
  H   H212      1.0  0.21047  0.09697  0.85635  1.0000
  H   H213      1.0  0.23056  0.10702  0.86504  1.0000
  H   H214      1.0  0.26988  0.08613  0.82852  1.0000
  H   H215      1.0  0.24979  0.07658  0.81949  1.0000
  H   H216      1.0  0.23137  0.14883  0.60546  1.0000
  N   N16       1.0  0.20251  0.19938  0.59071  1.0000
  C   C237      1.0  0.06787  0.14972  0.67037  1.0000
  H   H217      1.0  0.20524  0.17422  0.60410  1.0000
  C   C238      1.0  0.29053  0.17752  0.81046  1.0000
  H   H218      1.0  0.28359  0.21901  0.69612  1.0000
  H   H219      1.0  0.02197  0.21285  0.78306  1.0000
  H   H220      1.0  0.22172  0.12137  0.80850  1.0000
  H   H221      1.0  0.14330  0.99208  0.65675  1.0000
  S   S99       1.0  0.99144  0.16216  0.74414  1.0000
  S   S100      1.0  0.12129  0.20504  0.65549  1.0000
  H   H222      1.0  0.19004  0.02249  0.73308  1.0000
  S   S101      1.0  0.24720  0.05662  0.79815  1.0000
  N   N17       1.0  0.12559  0.11128  0.69436  1.0000
  C   C239      1.0  0.11031  0.12145  0.69375  1.0000
  C   C240      1.0  0.12780  0.09881  0.70794  1.0000
  C   C241      1.0  0.09687  0.11962  0.70717  1.0000
  C   C242      1.0  0.11465  0.09673  0.72164  1.0000
  C   C243      1.0  0.09910  0.10719  0.72122  1.0000
  C   C244      1.0  0.13944  0.11321  0.68007  1.0000
  H   H223      1.0  0.10844  0.13103  0.68282  1.0000
  H   H224      1.0  0.13976  0.09035  0.70820  1.0000
  H   H225      1.0  0.08475  0.12765  0.70664  1.0000
  H   H226      1.0  0.11643  0.08696  0.73249  1.0000
  H   H227      1.0  0.08875  0.10549  0.73166  1.0000
  H   H228      1.0  0.15145  0.10957  0.68399  1.0000
  H   H229      1.0  0.13987  0.10530  0.67162  1.0000
  H   H230      1.0  0.13831  0.12629  0.67310  1.0000
  Fe  Fe52      1.0  0.25859  0.16335  0.68918  1.0000
  C   C245      1.0  0.03874  0.16416  0.67330  1.0000
  C   C246      1.0  0.02631  0.17833  0.67022  1.0000
  H   H231      1.0  0.03531  0.15279  0.68103  1.0000
  H   H232      1.0  0.01336  0.17801  0.67558  1.0000
  H   H233      1.0  0.06366  0.13834  0.67116  1.0000
  C   C247      1.0  0.23362  0.04192  0.84743  1.0000
  H   H234      1.0  0.28806  0.17097  0.80264  1.0000
  H   H235      1.0  0.27652  0.21354  0.85499  1.0000
  C   C248      1.0  0.26793  0.22460  0.85031  1.0000
  C   C249      1.0  0.23900  0.98349  0.79239  1.0000
  H   H236      1.0  0.20233  0.04910  0.84392  1.0000
  H   H237      1.0  0.26258  0.11888  0.66867  1.0000
  H   H238      1.0  0.20379  0.03081  0.83711  1.0000
  H   H239      1.0  0.11564  0.22546  0.72480  1.0000
  H   H240      1.0  0.31291  0.21158  0.61175  1.0000
  C   C250      1.0  0.25213  0.21753  0.80159  1.0000
  C   C251      1.0  0.13302  0.20565  0.89745  1.0000
  H   H241      1.0  0.26823  0.14043  0.71893  1.0000
  H   H242      1.0  0.24247  0.10833  0.78681  1.0000
  C   C252      1.0  0.19191  0.21332  0.58444  1.0000
  N   N18       1.0  0.19746  0.12135  0.72400  1.0000
  C   C253      1.0  0.19593  0.13625  0.71290  1.0000
  C   C254      1.0  0.20670  0.11813  0.73559  1.0000
  C   C255      1.0  0.20433  0.14812  0.71279  1.0000
  H   H243      1.0  0.20210  0.04731  0.72514  1.0000
  C   C256      1.0  0.29693  0.14687  0.64839  1.0000
  C   C257      1.0  0.18901  0.10878  0.72378  1.0000
  H   H244      1.0  0.18843  0.13896  0.70384  1.0000
  H   H245      1.0  0.20791  0.10631  0.74439  1.0000
  H   H246      1.0  0.25679  0.16862  0.49494  1.0000
  C   C258      1.0  0.29178  0.14603  0.62255  1.0000
  H   H247      1.0  0.29025  0.10875  0.93542  1.0000
  H   H248      1.0  0.30132  0.14241  0.94478  1.0000
  H   H249      1.0  0.18379  0.11193  0.71259  1.0000
  H   H250      1.0  0.19792  0.09662  0.72364  1.0000
  H   H251      1.0  0.04808  0.18571  0.79107  1.0000
  C   C259      1.0  0.29478  0.15016  0.90053  1.0000
  H   H252      1.0  0.26525  0.21918  0.53955  1.0000
  S   S102      1.0  0.24577  0.18263  0.70408  1.0000
  C   C260      1.0  0.01329  0.22943  0.72973  1.0000
  H   H253      1.0  0.17531  0.17432  0.60975  1.0000
  C   C261      1.0  0.16436  0.21850  0.64240  1.0000
  N   N19       1.0  0.15297  0.00434  0.66909  1.0000
  C   C262      1.0  0.29882  0.16038  0.92222  1.0000
  N   N20       1.0  0.05507  0.16464  0.66676  1.0000
  C   C263      1.0  0.20702  0.20818  0.67933  1.0000
  C   C264      1.0  0.27362  0.16260  0.51122  1.0000
  C   C265      1.0  0.26088  0.16557  0.57482  1.0000
  H   H254      1.0  0.24961  0.13850  0.66141  1.0000
  H   H255      1.0  0.16959  0.20050  0.70200  1.0000
  N   N21       1.0  0.02144  0.08934  0.72045  1.0000
  C   C266      1.0  0.00649  0.09528  0.72999  1.0000
  C   C267      1.0  0.03232  0.07594  0.72716  1.0000
  C   C268      1.0  0.00236  0.08816  0.74685  1.0000
  C   C269      1.0  0.02862  0.06854  0.74399  1.0000
  C   C270      1.0  0.01357  0.07477  0.75390  1.0000
  C   C271      1.0  0.02546  0.09699  0.70280  1.0000
  H   H256      1.0  0.99767  0.10568  0.72463  1.0000
  H   H257      1.0  0.04416  0.07111  0.71962  1.0000
  H   H258      1.0  0.31027  0.16768  0.72410  1.0000
  C   C272      1.0  0.30216  0.22756  0.57646  1.0000
  S   S103      1.0  0.30648  0.19508  0.78181  1.0000
  H   H259      1.0  0.26187  0.21253  0.59982  1.0000
  H   H260      1.0  0.03908  0.09438  0.69771  1.0000
  H   H261      1.0  0.01933  0.09225  0.69584  1.0000
  H   H262      1.0  0.31107  0.15655  0.62449  1.0000
  C   C273      1.0  0.12649  0.18148  0.70419  1.0000
  C   C274      1.0  0.20470  0.99438  0.79679  1.0000
  H   H263      1.0  0.29531  0.17556  0.89836  1.0000
  C   C275      1.0  0.29628  0.16323  0.90626  1.0000
  H   H264      1.0  0.14854  0.04607  0.65893  1.0000
  H   H265      1.0  0.13177  0.99375  0.67753  1.0000
  C   C276      1.0  0.17986  0.18540  0.60271  1.0000
  H   H266      1.0  0.17655  0.21752  0.66133  1.0000
  S   S104      1.0  0.26880  0.16542  0.97202  1.0000
  Fe  Fe53      1.0  0.31618  0.18671  0.51061  1.0000
  C   C277      1.0  0.29976  0.14441  0.93225  1.0000
  N   N22       1.0  0.22634  0.03328  0.84134  1.0000
  C   C278      1.0  0.23587  0.02214  0.83193  1.0000
  H   H267      1.0  0.31198  0.10747  0.93395  1.0000
  C   C279      1.0  0.25316  0.01980  0.82799  1.0000
  C   C280      1.0  0.25086  0.03998  0.84364  1.0000
  C   C281      1.0  0.26067  0.02888  0.83380  1.0000
  S   S105      1.0  0.05472  0.21854  0.79570  1.0000
  H   H268      1.0  0.23017  0.01519  0.82713  1.0000
  C   C282      1.0  0.01676  0.19610  0.74478  1.0000
  H   H269      1.0  0.26061  0.01130  0.82010  1.0000
  N   N23       1.0  0.30115  0.14773  0.50138  1.0000
  H   H270      1.0  0.27403  0.02746  0.83051  1.0000
  C   C283      1.0  0.29572  0.13437  0.91091  1.0000
  C   C284      1.0  0.30099  0.15031  0.63115  1.0000
  C   C285      1.0  0.20823  0.03566  0.84543  1.0000
  Fe  Fe54      1.0  0.31490  0.21920  0.77211  1.0000
  H   H271      1.0  0.30448  0.19370  0.67101  1.0000
  H   H272      1.0  0.22953  0.22189  0.81984  1.0000
  C   C286      1.0  0.28735  0.21116  0.59975  1.0000
  C   C287      1.0  0.28354  0.13939  0.65683  1.0000
  H   H273      1.0  0.28067  0.20262  0.74843  1.0000
  C   C288      1.0  0.28165  0.20904  0.72226  1.0000
  H   H274      1.0  0.27710  0.17869  0.57853  1.0000
  C   C289      1.0  0.30281  0.19839  0.81351  1.0000
  C   C290      1.0  0.24790  0.15720  0.58249  1.0000
  C   C291      1.0  0.14620  0.02067  0.66354  1.0000
  C   C292      1.0  0.24119  0.15552  0.59956  1.0000
  C   C293      1.0  0.28394  0.22125  0.70771  1.0000
  H   H275      1.0  0.29304  0.15507  0.52457  1.0000
  H   H276      1.0  0.02441  0.17297  0.79441  1.0000
  H   H277      1.0  0.25650  0.04729  0.84809  1.0000
  C   C294      1.0  0.11688  0.22949  0.84252  1.0000
  S   S106      1.0  0.23967  0.16032  0.63032  1.0000
  S   S107      1.0  0.26455  0.08965  0.76170  1.0000
  H   H278      1.0  0.24783  0.22030  0.87124  1.0000
  H   H279      1.0  0.27299  0.21628  0.78084  1.0000
  Fe  Fe55      1.0  0.07281  0.20869  0.77421  1.0000
  N   N24       1.0  0.16450  0.19289  0.90410  1.0000
  C   C295      1.0  0.15349  0.20441  0.91233  1.0000
  C   C296      1.0  0.16007  0.18758  0.89268  1.0000
  C   C297      1.0  0.13756  0.21087  0.90922  1.0000
  C   C298      1.0  0.15404  0.03309  0.66311  1.0000
  C   C299      1.0  0.16881  0.02873  0.66856  1.0000
  C   C300      1.0  0.22319  0.22192  0.97192  1.0000
  H   H280      1.0  0.15714  0.20917  0.92091  1.0000
  H   H281      1.0  0.11081  0.98804  0.71318  1.0000
  H   H282      1.0  0.12911  0.22044  0.91534  1.0000
  C   C301      1.0  0.18156  0.18717  0.90647  1.0000
  C   C302      1.0  0.20735  0.03624  0.73330  1.0000
  C   C303      1.0  0.28647  0.22658  0.73737  1.0000
  C   C304      1.0  0.22670  0.02206  0.75088  1.0000
  H   H283      1.0  0.22526  0.04733  0.73708  1.0000
  N   N25       1.0  0.29803  0.13171  0.92660  1.0000
  C   C305      1.0  0.26315  0.13710  0.96677  1.0000
  H   H284      1.0  0.18923  0.99576  0.76624  1.0000
  H   H285      1.0  0.99274  0.19869  0.74039  1.0000
  H   H286      1.0  0.03702  0.22747  0.73488  1.0000
  C   C306      1.0  0.16890  0.19971  0.59673  1.0000
  H   H287      1.0  0.22606  0.05072  0.85495  1.0000
  H   H288      1.0  0.05346  0.20698  0.68790  1.0000
  H   H289      1.0  0.13714  0.21601  0.71988  1.0000
  Fe  Fe56      1.0  0.07538  0.22768  0.66336  1.0000
  H   H290      1.0  0.17998  0.22119  0.84664  1.0000
  C   C307      1.0  0.25525  0.12522  0.71331  1.0000
  H   H291      1.0  0.29966  0.17050  0.92697  1.0000
  H   H292      1.0  0.18970  0.19450  0.89649  1.0000
  C   C308      1.0  0.22033  0.03626  0.74005  1.0000
  H   H293      1.0  0.14103  0.19018  0.87962  1.0000
  H   H294      1.0  0.28022  0.13711  0.67022  1.0000
  S   S108      1.0  0.14627  0.98491  0.71057  1.0000
  H   H295      1.0  0.29367  0.19413  0.48339  1.0000
  H   H296      1.0  0.26475  0.16864  0.52062  1.0000
  H   H297      1.0  0.23241  0.13500  0.84008  1.0000
  H   H298      1.0  0.12201  0.20584  0.83591  1.0000
  H   H299      1.0  0.27373  0.12073  0.74495  1.0000
  H   H300      1.0  0.02120  0.20430  0.65856  1.0000
  C   C309      1.0  0.16751  0.99994  0.67439  1.0000
  N   N26       1.0  0.30155  0.21664  0.59145  1.0000
  H   H301      1.0  0.28106  0.12036  0.80108  1.0000
  H   H302      1.0  0.22270  0.19532  0.66048  1.0000
  H   H303      1.0  0.04007  0.19751  0.74846  1.0000
  C   C310      1.0  0.26803  0.12086  0.80237  1.0000
  H   H304      1.0  0.27116  0.13553  0.62463  1.0000
  N   N27       1.0  0.12033  0.20085  0.72170  1.0000
  H   H305      1.0  0.22105  0.15368  0.72402  1.0000
  S   S109      1.0  0.12145  0.22973  0.68684  1.0000
  C   C311      1.0  0.26032  0.12812  0.95673  1.0000
  C   C312      1.0  0.28074  0.15468  0.48494  1.0000
  C   C313      1.0  0.20064  0.02211  0.73778  1.0000
  S   S110      1.0  0.28922  0.19840  0.51730  1.0000
  H   H306      1.0  0.03755  0.05820  0.74931  1.0000
  C   C314      1.0  0.04049  0.21171  0.68776  1.0000
  H   H307      1.0  0.13454  0.02418  0.65960  1.0000
  C   C315      1.0  0.13103  0.19312  0.70968  1.0000
  H   H308      1.0  0.24315  0.15186  0.57524  1.0000
  H   H309      1.0  0.22277  0.12701  0.74489  1.0000
  C   C316      1.0  0.21400  0.14482  0.72438  1.0000
  C   C317      1.0  0.10319  0.22348  0.82403  1.0000
  Fe  Fe57      1.0  0.09856  0.19436  0.66529  1.0000
  C   C318      1.0  0.00694  0.22356  0.68702  1.0000
  H   H310      1.0  0.20364  0.15964  0.70354  1.0000
  C   C319      1.0  0.19182  0.20996  0.69074  1.0000
  S   S111      1.0  0.08562  0.21082  0.64548  1.0000
  C   C320      1.0  0.29948  0.19008  0.80336  1.0000
  H   H311      1.0  0.23612  0.22266  0.55503  1.0000
  C   C321      1.0  0.11093  0.17766  0.71116  1.0000
  N   N28       1.0  0.00113  0.22136  0.73114  1.0000
  H   H312      1.0  0.25790  0.20647  0.80947  1.0000
  C   C322      1.0  0.03070  0.19310  0.66065  1.0000
  S   S112      1.0  0.26916  0.16740  0.55347  1.0000
  C   C323      1.0  0.05951  0.17915  0.65764  1.0000
  C   C324      1.0  0.26693  0.11787  0.73763  1.0000
  H   H313      1.0  0.17887  0.10734  0.73497  1.0000
  H   H314      1.0  0.22518  0.19266  0.59881  1.0000
  C   C325      1.0  0.28259  0.21192  0.73711  1.0000
  H   H315      1.0  0.19139  0.99866  0.79849  1.0000
  C   C326      1.0  0.26029  0.17077  0.60128  1.0000
  H   H316      1.0  0.28703  0.20228  0.61151  1.0000
  H   H317      1.0  0.24770  0.08817  0.73757  1.0000
  C   C327      1.0  0.26703  0.17236  0.58428  1.0000
  C   C328      1.0  0.10021  0.18539  0.72362  1.0000
  H   H318      1.0  0.15835  0.20838  0.64958  1.0000
  C   C329      1.0  0.26309  0.11366  0.79235  1.0000
  Fe  Fe58      1.0  0.29782  0.21531  0.52727  1.0000
  H   H319      1.0  0.24970  0.22487  0.70341  1.0000
  C   C330      1.0  0.17471  0.22369  0.64902  1.0000
  C   C331      1.0  0.27852  0.13845  0.63140  1.0000
  H   H320      1.0  0.15573  0.19991  0.59919  1.0000
  C   C332      1.0  0.11473  0.21841  0.83431  1.0000
  C   C333      1.0  0.23171  0.99993  0.79395  1.0000
  H   H321      1.0  0.22338  0.14997  0.82388  1.0000
  S   S113      1.0  0.08678  0.21031  0.68382  1.0000
  C   C334      1.0  0.23469  0.12152  0.80669  1.0000
  C   C335      1.0  0.25222  0.09952  0.73352  1.0000
  H   H322      1.0  0.18865  0.21898  0.69836  1.0000
  C   C336      1.0  0.24633  0.11405  0.79446  1.0000
  H   H323      1.0  0.22720  0.19252  0.57739  1.0000
  H   H324      1.0  0.18245  0.18846  0.91865  1.0000
  C   C337      1.0  0.26915  0.16250  0.49688  1.0000
  H   H325      1.0  0.21621  0.13089  0.83368  1.0000
  C   C338      1.0  0.22729  0.13653  0.82909  1.0000
  Fe  Fe59      1.0  0.28965  0.18154  0.54228  1.0000
  C   C339      1.0  0.26100  0.10319  0.74302  1.0000
  H   H326      1.0  0.24293  0.10745  0.71114  1.0000
  C   C340      1.0  0.26387  0.12899  0.72289  1.0000
  S   S114      1.0  0.30078  0.18671  0.64159  1.0000
  H   H327      1.0  0.26033  0.11506  0.96134  1.0000
  Fe  Fe60      1.0  0.24514  0.20038  0.67966  1.0000
  H   H328      1.0  0.26003  0.13360  0.82237  1.0000
  S   S115      1.0  0.29573  0.19959  0.55290  1.0000
  N   N29       1.0  0.23965  0.12842  0.81656  1.0000
  C   C341      1.0  0.24961  0.11039  0.71853  1.0000
  S   S116      1.0  0.25592  0.18067  0.66482  1.0000
  C   C342      1.0  0.29925  0.11498  0.93711  1.0000
  Fe  Fe61      1.0  0.27104  0.18735  0.70028  1.0000
  C   C343      1.0  0.19676  0.18542  0.59949  1.0000
  C   C344      1.0  0.31767  0.19054  0.64649  1.0000
  H   H329      1.0  0.05093  0.20516  0.64740  1.0000
  H   H330      1.0  0.22477  0.99715  0.76336  1.0000
  S   S117      1.0  0.27846  0.18970  0.72239  1.0000
  H   H331      1.0  0.12500  0.20965  0.74036  1.0000
  H   H332      1.0  0.01767  0.18323  0.75107  1.0000
  H   H333      1.0  0.20399  0.02927  0.85841  1.0000
  H   H334      1.0  0.22261  0.21185  0.58393  1.0000
  C   C345      1.0  0.02929  0.20417  0.74332  1.0000
  H   H335      1.0  0.17263  0.98704  0.67930  1.0000
  H   H336      1.0  0.12100  0.21111  0.89431  1.0000
  C   C346      1.0  0.26064  0.22308  0.78552  1.0000
  H   H337      1.0  0.27221  0.10762  0.78307  1.0000
  H   H338      1.0  0.29613  0.11534  0.95044  1.0000
  H   H339      1.0  0.08813  0.18246  0.72931  1.0000
  C   C347      1.0  0.31622  0.21040  0.59865  1.0000
  Fe  Fe62      1.0  0.10747  0.22297  0.63708  1.0000
  C   C348      1.0  0.17560  0.01206  0.67427  1.0000
  C   C349      1.0  0.17497  0.21373  0.58743  1.0000
  H   H340      1.0  0.13500  0.17564  0.69447  1.0000
  C   C350      1.0  0.14436  0.99166  0.66941  1.0000
  H   H341      1.0  0.01062  0.06924  0.76700  1.0000
  C   C351      1.0  0.23613  0.22630  0.80736  1.0000
  H   H342      1.0  0.10717  0.16882  0.70683  1.0000
  H   H343      1.0  0.29464  0.14887  0.60913  1.0000
  H   H344      1.0  0.29419  0.12431  0.90652  1.0000
  C   C352      1.0  0.99996  0.20752  0.78008  1.0000
  C   C353      1.0  0.01029  0.21801  0.77924  1.0000
  H   H345      1.0  0.10166  0.21485  0.81778  1.0000
  H   H346      1.0  0.29273  0.15232  0.88816  1.0000
  C   C354      1.0  0.19855  0.99428  0.75456  1.0000
  H   H347      1.0  0.16891  0.17868  0.88595  1.0000
  Fe  Fe63      1.0  0.10811  0.22279  0.67189  1.0000
  H   H348      1.0  0.20757  0.98232  0.75711  1.0000
  C   C355      1.0  0.02756  0.22096  0.73575  1.0000
  H   H349      1.0  0.15298  0.22325  0.62174  1.0000
  H   H350      1.0  0.99056  0.09311  0.75438  1.0000
  H   H351      1.0  0.28778  0.22831  0.74880  1.0000
  H   H352      1.0  0.31367  0.19541  0.74576  1.0000
  S   S118      1.0  0.09177  0.22328  0.77202  1.0000
  C   C356      1.0  0.31603  0.19373  0.66199  1.0000
  S   S119      1.0  0.12272  0.22654  0.61100  1.0000
  C   C357      1.0  0.03500  0.22799  0.67946  1.0000
  H   H353      1.0  0.16666  0.22484  0.58247  1.0000
  C   C358      1.0  0.32173  0.17208  0.71951  1.0000
  H   H354      1.0  0.23638  0.22025  0.96656  1.0000
  H   H355      1.0  0.99402  0.22813  0.68644  1.0000
  H   H356      1.0  0.30587  0.14172  0.47784  1.0000
  S   S120      1.0  0.06061  0.22711  0.75485  1.0000
  C   C359      1.0  0.31796  0.13970  0.50383  1.0000
  H   H357      1.0  0.32169  0.14577  0.51167  1.0000
  H   H358      1.0  0.32133  0.19714  0.59811  1.0000
  H   H359      1.0  0.31867  0.12639  0.50974  1.0000
  C   C360      1.0  0.25842  0.23125  0.54172  1.0000
  N   N30       1.0  0.13679  0.32755  0.43062  1.0000
  C   C361      1.0  0.15336  0.45542  0.31750  1.0000
  H   H360      1.0  0.04829  0.24399  0.20839  1.0000
  C   C362      1.0  0.23672  0.44419  0.19240  1.0000
  H   H361      1.0  0.20898  0.43028  0.30692  1.0000
  H   H362      1.0  0.31271  0.27078  0.07236  1.0000
  C   C363      1.0  0.01612  0.27325  0.07606  1.0000
  Fe  Fe64      1.0  0.16462  0.30759  0.38555  1.0000
  S   S121      1.0  0.14736  0.29264  0.40457  1.0000
  S   S122      1.0  0.15292  0.33223  0.37101  1.0000
  Fe  Fe65      1.0  0.19487  0.28147  0.39232  1.0000
  S   S123      1.0  0.18024  0.26454  0.41176  1.0000
  S   S124      1.0  0.22254  0.27347  0.38625  1.0000
  Fe  Fe66      1.0  0.16353  0.27101  0.39388  1.0000
  S   S125      1.0  0.15682  0.24944  0.38873  1.0000
  Fe  Fe67      1.0  0.16564  0.28755  0.42074  1.0000
  S   S126      1.0  0.15639  0.28692  0.44832  1.0000
  S   S127      1.0  0.17943  0.28632  0.37370  1.0000
  S   S128      1.0  0.18159  0.30420  0.40252  1.0000
  Fe  Fe68      1.0  0.18414  0.38695  0.28635  1.0000
  S   S129      1.0  0.15761  0.40036  0.29137  1.0000
  S   S130      1.0  0.19634  0.37042  0.30708  1.0000
  Fe  Fe69      1.0  0.18810  0.39991  0.24906  1.0000
  S   S131      1.0  0.16170  0.41417  0.25163  1.0000
  S   S132      1.0  0.20122  0.40086  0.22242  1.0000
  Fe  Fe70      1.0  0.16665  0.42183  0.27251  1.0000
  S   S133      1.0  0.15717  0.44796  0.27723  1.0000
  Fe  Fe71      1.0  0.15574  0.39128  0.26999  1.0000
  S   S134      1.0  0.13707  0.37602  0.27291  1.0000
  S   S135      1.0  0.19350  0.40896  0.26876  1.0000
  S   S136      1.0  0.18185  0.37655  0.26611  1.0000
  Fe  Fe72      1.0  0.28861  0.39551  0.17582  1.0000
  S   S137      1.0  0.27274  0.41717  0.16229  1.0000
  S   S138      1.0  0.27924  0.38518  0.20284  1.0000
  Fe  Fe73      1.0  0.29548  0.42786  0.15216  1.0000
  Fe  Fe74      1.0  0.28127  0.40371  0.14151  1.0000
  S   S139      1.0  0.26074  0.40262  0.13026  1.0000
  S   S140      1.0  0.29561  0.38113  0.15588  1.0000
  Fe  Fe75      1.0  0.18667  0.28273  0.01104  1.0000
  S   S141      1.0  0.17081  0.27037  0.03362  1.0000
  S   S142      1.0  0.20871  0.29064  0.01355  1.0000
  Fe  Fe76      1.0  0.16722  0.27830  0.98780  1.0000
  S   S143      1.0  0.14950  0.26583  0.00903  1.0000
  Fe  Fe77      1.0  0.14947  0.28528  0.02206  1.0000
  S   S144      1.0  0.12916  0.29939  0.03924  1.0000
  Fe  Fe78      1.0  0.17243  0.25227  0.01869  1.0000
  H   H363      1.0  0.22164  0.25917  0.44010  1.0000
  S   S145      1.0  0.16534  0.29904  0.00013  1.0000
  S   S146      1.0  0.19015  0.26331  0.99677  1.0000
  Fe  Fe79      1.0  0.05692  0.25051  0.14176  1.0000
  S   S147      1.0  0.03900  0.27136  0.15241  1.0000
  H   H364      1.0  0.27193  0.31138  0.10249  1.0000
  Fe  Fe80      1.0  0.05813  0.26957  0.10623  1.0000
  S   S148      1.0  0.04040  0.29214  0.11387  1.0000
  S   S149      1.0  0.06860  0.26607  0.08005  1.0000
  Fe  Fe81      1.0  0.05507  0.28738  0.13337  1.0000
  S   S150      1.0  0.06629  0.30666  0.13711  1.0000
  Fe  Fe82      1.0  0.02595  0.27396  0.13212  1.0000
  H   H365      1.0  0.12722  0.30603  0.43577  1.0000
  S   S151      1.0  0.07393  0.26618  0.12409  1.0000
  S   S152      1.0  0.04270  0.25177  0.12309  1.0000
  Fe  Fe83      1.0  0.21497  0.33117  0.08294  1.0000
  S   S153      1.0  0.20627  0.31457  0.10710  1.0000
  S   S154      1.0  0.19889  0.33476  0.06479  1.0000
  Fe  Fe84      1.0  0.24262  0.33728  0.09539  1.0000
  S   S155      1.0  0.23591  0.32075  0.12013  1.0000
  S   S156      1.0  0.26571  0.34648  0.09280  1.0000
  Fe  Fe85      1.0  0.23324  0.30372  0.10600  1.0000
  S   S157      1.0  0.24270  0.27630  0.11395  1.0000
  Fe  Fe86      1.0  0.20978  0.33338  0.11866  1.0000
  S   S158      1.0  0.19274  0.34341  0.14028  1.0000
  S   S159      1.0  0.24201  0.31910  0.08108  1.0000
  S   S160      1.0  0.21643  0.35115  0.09465  1.0000
  C   C364      1.0  0.01927  0.28238  0.08552  1.0000
  C   C365      1.0  0.23034  0.38275  0.15655  1.0000
  S   S161      1.0  0.09974  0.25233  0.35442  1.0000
  C   C366      1.0  0.14177  0.33418  0.41416  1.0000
  C   C367      1.0  0.11161  0.24923  0.08683  1.0000
  H   H366      1.0  0.11344  0.32513  0.42844  1.0000
  Fe  Fe87      1.0  0.11197  0.34243  0.21257  1.0000
  S   S162      1.0  0.13097  0.31992  0.22031  1.0000
  S   S163      1.0  0.11798  0.36717  0.21011  1.0000
  Fe  Fe88      1.0  0.08865  0.32175  0.21097  1.0000
  S   S164      1.0  0.10577  0.29785  0.21922  1.0000
  S   S165      1.0  0.06533  0.31695  0.20767  1.0000
  Fe  Fe89      1.0  0.10927  0.31028  0.23726  1.0000
  S   S166      1.0  0.10947  0.29970  0.26405  1.0000
  Fe  Fe90      1.0  0.12558  0.30996  0.20142  1.0000
  S   S167      1.0  0.14499  0.29604  0.18394  1.0000
  S   S168      1.0  0.09032  0.33336  0.23078  1.0000
  S   S169      1.0  0.10836  0.33326  0.19187  1.0000
  S   S170      1.0  0.30026  0.24465  0.06112  1.0000
  C   C368      1.0  0.11855  0.25131  0.26250  1.0000
  C   C369      1.0  0.11719  0.26853  0.25761  1.0000
  C   C370      1.0  0.11352  0.27803  0.26951  1.0000
  C   C371      1.0  0.11189  0.27024  0.28624  1.0000
  C   C372      1.0  0.11334  0.25306  0.29111  1.0000
  C   C373      1.0  0.25392  0.44212  0.18968  1.0000
  H   H367      1.0  0.11889  0.27442  0.24467  1.0000
  H   H368      1.0  0.10918  0.27753  0.29548  1.0000
  H   H369      1.0  0.21023  0.46295  0.27154  1.0000
  C   C374      1.0  0.17988  0.32994  0.15266  1.0000
  C   C375      1.0  0.16616  0.33571  0.16442  1.0000
  C   C376      1.0  0.15551  0.32523  0.17411  1.0000
  C   C377      1.0  0.15858  0.30896  0.17210  1.0000
  C   C378      1.0  0.17244  0.30310  0.16053  1.0000
  C   C379      1.0  0.18314  0.31358  0.15086  1.0000
  H   H370      1.0  0.16358  0.34837  0.16578  1.0000
  H   H371      1.0  0.14481  0.32984  0.18298  1.0000
  H   H372      1.0  0.17494  0.29048  0.15907  1.0000
  H   H373      1.0  0.19395  0.30893  0.14213  1.0000
  C   C380      1.0  0.25813  0.26723  0.09902  1.0000
  C   C381      1.0  0.26000  0.27486  0.08224  1.0000
  C   C382      1.0  0.27256  0.26751  0.07050  1.0000
  C   C383      1.0  0.28349  0.25272  0.07559  1.0000
  C   C384      1.0  0.28143  0.24487  0.09232  1.0000
  C   C385      1.0  0.26858  0.25201  0.10401  1.0000
  H   H374      1.0  0.25170  0.28629  0.07823  1.0000
  H   H375      1.0  0.27411  0.27354  0.05753  1.0000
  C   C386      1.0  0.15560  0.34142  0.40847  1.0000
  H   H376      1.0  0.26700  0.24593  0.11697  1.0000
  H   H377      1.0  0.17555  0.34671  0.41537  1.0000
  C   C387      1.0  0.06540  0.30957  0.15688  1.0000
  C   C388      1.0  0.07512  0.31968  0.15818  1.0000
  C   C389      1.0  0.07549  0.32166  0.17372  1.0000
  C   C390      1.0  0.06571  0.31396  0.18808  1.0000
  C   C391      1.0  0.05582  0.30399  0.18679  1.0000
  C   C392      1.0  0.05582  0.30162  0.17125  1.0000
  H   H378      1.0  0.08246  0.32597  0.14711  1.0000
  H   H379      1.0  0.08293  0.32958  0.17454  1.0000
  H   H380      1.0  0.04814  0.29809  0.19783  1.0000
  H   H381      1.0  0.04825  0.29385  0.17039  1.0000
  H   H382      1.0  0.28313  0.32016  0.07262  1.0000
  C   C393      1.0  0.20250  0.32000  0.05274  1.0000
  C   C394      1.0  0.21800  0.31565  0.04245  1.0000
  C   C395      1.0  0.21981  0.30644  0.03062  1.0000
  C   C396      1.0  0.20617  0.30149  0.02902  1.0000
  C   C397      1.0  0.19085  0.30518  0.03982  1.0000
  C   C398      1.0  0.18908  0.31431  0.05171  1.0000
  H   H383      1.0  0.22839  0.32012  0.04303  1.0000
  H   H384      1.0  0.23173  0.30353  0.02237  1.0000
  H   H385      1.0  0.18031  0.30121  0.03888  1.0000
  H   H386      1.0  0.17713  0.31740  0.05982  1.0000
  C   C399      1.0  0.11192  0.29056  0.05006  1.0000
  C   C400      1.0  0.10803  0.27848  0.04461  1.0000
  C   C401      1.0  0.09433  0.27148  0.05359  1.0000
  C   C402      1.0  0.08472  0.27619  0.06829  1.0000
  C   C403      1.0  0.08862  0.28824  0.07377  1.0000
  C   C404      1.0  0.10206  0.29555  0.06455  1.0000
  H   H387      1.0  0.11545  0.27469  0.03337  1.0000
  H   H388      1.0  0.09131  0.26225  0.04922  1.0000
  H   H389      1.0  0.08125  0.29198  0.08507  1.0000
  H   H390      1.0  0.10496  0.30495  0.06879  1.0000
  C   C405      1.0  0.26254  0.38690  0.11983  1.0000
  C   C406      1.0  0.24862  0.38599  0.11489  1.0000
  C   C407      1.0  0.24933  0.37337  0.10705  1.0000
  C   C408      1.0  0.26416  0.36182  0.10361  1.0000
  C   C409      1.0  0.27815  0.36279  0.10842  1.0000
  C   C410      1.0  0.27730  0.37514  0.11670  1.0000
  H   H391      1.0  0.23721  0.39514  0.11708  1.0000
  H   H392      1.0  0.23853  0.37288  0.10323  1.0000
  H   H393      1.0  0.28971  0.35399  0.10566  1.0000
  H   H394      1.0  0.28814  0.37578  0.12036  1.0000
  C   C411      1.0  0.22284  0.39436  0.21749  1.0000
  C   C412      1.0  0.23093  0.39649  0.20080  1.0000
  C   C413      1.0  0.24826  0.39295  0.19630  1.0000
  C   C414      1.0  0.25761  0.38739  0.20845  1.0000
  C   C415      1.0  0.24954  0.38452  0.22519  1.0000
  C   C416      1.0  0.23212  0.38801  0.22974  1.0000
  H   H395      1.0  0.22377  0.40130  0.19132  1.0000
  H   H396      1.0  0.25435  0.39474  0.18342  1.0000
  H   H397      1.0  0.25675  0.38002  0.23464  1.0000
  H   H398      1.0  0.22590  0.38620  0.24267  1.0000
  C   C417      1.0  0.13224  0.37364  0.25517  1.0000
  C   C418      1.0  0.13285  0.38601  0.24067  1.0000
  C   C419      1.0  0.12807  0.38410  0.22705  1.0000
  C   C420      1.0  0.12314  0.36962  0.22766  1.0000
  C   C421      1.0  0.12277  0.35716  0.24209  1.0000
  C   C422      1.0  0.12711  0.35926  0.25585  1.0000
  H   H399      1.0  0.13652  0.39726  0.24012  1.0000
  H   H400      1.0  0.12813  0.39390  0.21604  1.0000
  H   H401      1.0  0.11887  0.34600  0.24277  1.0000
  H   H402      1.0  0.12645  0.34969  0.26705  1.0000
  C   C423      1.0  0.14263  0.25222  0.37631  1.0000
  H   H403      1.0  0.20663  0.39594  0.15077  1.0000
  H   H404      1.0  0.30120  0.26262  0.10237  1.0000
  C   C424      1.0  0.11705  0.25284  0.36135  1.0000
  C   C425      1.0  0.11656  0.26621  0.36803  1.0000
  C   C426      1.0  0.12934  0.26593  0.37547  1.0000
  C   C427      1.0  0.21500  0.28002  0.08543  1.0000
  C   C428      1.0  0.23666  0.42693  0.21970  1.0000
  H   H405      1.0  0.10599  0.27655  0.36795  1.0000
  H   H406      1.0  0.12850  0.27593  0.38124  1.0000
  C   C429      1.0  0.16527  0.34298  0.35364  1.0000
  C   C430      1.0  0.15746  0.35619  0.34271  1.0000
  C   C431      1.0  0.16685  0.36462  0.32841  1.0000
  C   C432      1.0  0.18417  0.36017  0.32509  1.0000
  C   C433      1.0  0.19200  0.34718  0.33622  1.0000
  C   C434      1.0  0.18259  0.33847  0.35037  1.0000
  H   H407      1.0  0.14406  0.35973  0.34517  1.0000
  H   H408      1.0  0.16062  0.37452  0.31998  1.0000
  H   H409      1.0  0.20539  0.34365  0.33376  1.0000
  H   H410      1.0  0.18874  0.32830  0.35872  1.0000
  C   C435      1.0  0.22829  0.25307  0.38331  1.0000
  C   C436      1.0  0.24484  0.24452  0.38196  1.0000
  S   S171      1.0  0.30269  0.41641  0.12983  1.0000
  H   H411      1.0  0.25419  0.25079  0.38189  1.0000
  C   C437      1.0  0.21627  0.24495  0.38321  1.0000
  H   H412      1.0  0.99401  0.24108  0.10442  1.0000
  H   H413      1.0  0.18596  0.45469  0.30997  1.0000
  H   H414      1.0  0.14448  0.45628  0.30989  1.0000
  H   H415      1.0  0.14213  0.34626  0.06190  1.0000
  H   H416      1.0  0.00932  0.25306  0.11712  1.0000
  H   H417      1.0  0.28794  0.23408  0.03606  1.0000
  H   H418      1.0  0.11193  0.24722  0.30408  1.0000
  H   H419      1.0  0.26610  0.28859  0.12544  1.0000
  H   H420      1.0  0.01348  0.24861  0.16330  1.0000
  H   H421      1.0  0.99741  0.26750  0.06775  1.0000
  C   C438      1.0  0.25391  0.42477  0.21640  1.0000
  C   C439      1.0  0.99595  0.25656  0.11942  1.0000
  C   C440      1.0  0.18728  0.45647  0.27285  1.0000
  C   C441      1.0  0.17003  0.46166  0.27543  1.0000
  C   C442      1.0  0.30196  0.46479  0.15962  1.0000
  H   H422      1.0  0.28693  0.28343  0.12897  1.0000
  S   S172      1.0  0.31100  0.40684  0.16713  1.0000
  H   H423      1.0  0.19316  0.44409  0.27096  1.0000
  H   H424      1.0  0.13240  0.29640  0.15385  1.0000
  C   C443      1.0  0.22807  0.43646  0.20751  1.0000
  H   H425      1.0  0.23018  0.45161  0.18280  1.0000
  H   H426      1.0  0.25948  0.37904  0.16205  1.0000
  C   C444      1.0  0.16357  0.42581  0.31790  1.0000
  C   C445      1.0  0.19625  0.42885  0.31024  1.0000
  C   C446      1.0  0.13079  0.23957  0.36143  1.0000
  C   C447      1.0  0.00610  0.29284  0.09384  1.0000
  C   C448      1.0  0.18166  0.29705  0.45471  1.0000
  C   C449      1.0  0.16711  0.29100  0.46118  1.0000
  H   H427      1.0  0.18581  0.32226  0.00522  1.0000
  H   H428      1.0  0.28981  0.23336  0.09629  1.0000
  H   H429      1.0  0.20038  0.30588  0.46012  1.0000
  H   H430      1.0  0.18699  0.29879  0.44158  1.0000
  H   H431      1.0  0.23189  0.39293  0.16075  1.0000
  C   C450      1.0  0.21769  0.26781  0.06207  1.0000
  H   H432      1.0  0.15776  0.46724  0.31316  1.0000
  C   C451      1.0  0.16386  0.35000  0.04277  1.0000
  N   N31       1.0  0.28566  0.28642  0.10407  1.0000
  H   H433      1.0  0.26857  0.36063  0.15440  1.0000
  H   H434      1.0  0.30356  0.29968  0.05725  1.0000
  H   H435      1.0  0.21477  0.43763  0.20975  1.0000
  H   H436      1.0  0.11089  0.24745  0.40508  1.0000
  H   H437      1.0  0.20892  0.27860  0.05742  1.0000
  H   H438      1.0  0.23003  0.42081  0.23144  1.0000
  H   H439      1.0  0.23179  0.26708  0.41896  1.0000
  C   C452      1.0  0.15948  0.33459  0.43642  1.0000
  C   C453      1.0  0.98993  0.29404  0.09253  1.0000
  H   H440      1.0  0.25043  0.34479  0.15012  1.0000
  C   C454      1.0  0.28718  0.30746  0.07899  1.0000
  H   H441      1.0  0.26054  0.44823  0.17792  1.0000
  H   H442      1.0  0.16992  0.33571  0.99472  1.0000
  H   H443      1.0  0.21214  0.26199  0.42302  1.0000
  C   C455      1.0  0.22658  0.35729  0.14488  1.0000
  H   H444      1.0  0.09569  0.23515  0.41679  1.0000
  N   N32       1.0  0.14935  0.33898  0.31345  1.0000
  C   C456      1.0  0.16270  0.34353  0.30180  1.0000
  C   C457      1.0  0.15161  0.32651  0.32703  1.0000
  C   C458      1.0  0.17885  0.33567  0.30365  1.0000
  C   C459      1.0  0.16759  0.31828  0.32920  1.0000
  C   C460      1.0  0.18127  0.32296  0.31745  1.0000
  C   C461      1.0  0.13262  0.34772  0.31121  1.0000
  H   H445      1.0  0.16086  0.35351  0.29114  1.0000
  H   H446      1.0  0.14108  0.32305  0.33648  1.0000
  H   H447      1.0  0.18939  0.33976  0.29471  1.0000
  H   H448      1.0  0.16932  0.30873  0.34022  1.0000
  H   H449      1.0  0.19372  0.31707  0.31929  1.0000
  H   H450      1.0  0.13114  0.36127  0.30987  1.0000
  H   H451      1.0  0.13055  0.34576  0.29977  1.0000
  H   H452      1.0  0.12285  0.34345  0.32179  1.0000
  H   H453      1.0  0.22117  0.25676  0.04136  1.0000
  C   C462      1.0  0.28082  0.30242  0.09593  1.0000
  H   H454      1.0  0.18609  0.34386  0.99689  1.0000
  S   S173      1.0  0.28968  0.45519  0.15328  1.0000
  N   N33       1.0  0.26232  0.43220  0.20148  1.0000
  C   C463      1.0  0.29727  0.27526  0.09587  1.0000
  C   C464      1.0  0.25733  0.36677  0.16237  1.0000
  C   C465      1.0  0.18315  0.44262  0.31200  1.0000
  C   C466      1.0  0.17789  0.33495  0.00321  1.0000
  C   C467      1.0  0.19693  0.46718  0.27324  1.0000
  H   H455      1.0  0.02631  0.26501  0.06966  1.0000
  H   H456      1.0  0.14678  0.45435  0.33067  1.0000
  H   H457      1.0  0.18483  0.35081  0.02235  1.0000
  H   H458      1.0  0.15083  0.42457  0.32051  1.0000
  N   N34       1.0  0.22190  0.26639  0.07665  1.0000
  H   H459      1.0  0.20351  0.25153  0.38391  1.0000
  H   H460      1.0  0.12197  0.26821  0.08973  1.0000
  C   C468      1.0  0.22458  0.25541  0.05299  1.0000
  C   C469      1.0  0.28035  0.42999  0.19850  1.0000
  H   H461      1.0  0.20277  0.40248  0.31117  1.0000
  H   H462      1.0  0.20291  0.24365  0.02462  1.0000
  C   C470      1.0  0.15358  0.33269  0.02602  1.0000
  H   H463      1.0  0.11634  0.32012  0.44924  1.0000
  H   H464      1.0  0.27817  0.26816  0.12534  1.0000
  H   H465      1.0  0.28345  0.43813  0.20468  1.0000
  C   C471      1.0  0.17636  0.41174  0.31660  1.0000
  H   H466      1.0  0.10083  0.25143  0.09673  1.0000
  H   H467      1.0  0.12110  0.24402  0.25330  1.0000
  C   C472      1.0  0.21419  0.37171  0.14501  1.0000
  H   H468      1.0  0.20328  0.37293  0.14039  1.0000
  H   H469      1.0  0.14598  0.26445  0.06613  1.0000
  C   C473      1.0  0.11636  0.24364  0.27929  1.0000
  C   C474      1.0  0.21604  0.38455  0.15089  1.0000
  C   C475      1.0  0.13842  0.24507  0.06050  1.0000
  C   C476      1.0  0.19279  0.41331  0.31258  1.0000
  H   H470      1.0  0.28601  0.43306  0.18509  1.0000
  H   H471      1.0  0.14874  0.24347  0.05003  1.0000
  Fe  Fe91      1.0  0.31662  0.39446  0.14572  1.0000
  N   N35       1.0  0.10889  0.29008  0.16371  1.0000
  C   C477      1.0  0.10715  0.28356  0.18031  1.0000
  C   C478      1.0  0.10161  0.28471  0.15448  1.0000
  C   C479      1.0  0.09740  0.27180  0.18823  1.0000
  C   C480      1.0  0.09184  0.27289  0.16199  1.0000
  C   C481      1.0  0.08966  0.26649  0.17899  1.0000
  C   C482      1.0  0.11902  0.30253  0.15582  1.0000
  H   H472      1.0  0.11322  0.28760  0.18751  1.0000
  H   H473      1.0  0.10272  0.29004  0.14136  1.0000
  H   H474      1.0  0.09578  0.26698  0.20146  1.0000
  H   H475      1.0  0.08556  0.26917  0.15473  1.0000
  H   H476      1.0  0.08187  0.25754  0.18497  1.0000
  H   H477      1.0  0.11675  0.31148  0.16382  1.0000
  H   H478      1.0  0.11601  0.30987  0.14381  1.0000
  H   H479      1.0  0.14196  0.32175  0.45466  1.0000
  C   C483      1.0  0.05506  0.23393  0.20223  1.0000
  C   C484      1.0  0.23302  0.25273  0.08257  1.0000
  H   H480      1.0  0.15962  0.34644  0.39535  1.0000
  H   H481      1.0  0.13523  0.33366  0.40526  1.0000
  H   H482      1.0  0.00832  0.29970  0.10158  1.0000
  C   C485      1.0  0.22412  0.25816  0.42703  1.0000
  H   H483      1.0  0.22527  0.34734  0.14020  1.0000
  N   N36       1.0  0.11309  0.23789  0.07777  1.0000
  H   H484      1.0  0.21625  0.27601  0.09854  1.0000
  C   C486      1.0  0.24074  0.35593  0.15055  1.0000
  H   H485      1.0  0.22156  0.29033  0.07923  1.0000
  C   C487      1.0  0.29868  0.29602  0.07043  1.0000
  N   N37       1.0  0.24252  0.36863  0.15618  1.0000
  S   S174      1.0  0.99789  0.27785  0.13757  1.0000
  N   N38       1.0  0.16320  0.36128  0.20720  1.0000
  C   C488      1.0  0.15955  0.37517  0.19530  1.0000
  C   C489      1.0  0.17011  0.36187  0.21950  1.0000
  C   C490      1.0  0.16266  0.39023  0.19563  1.0000
  C   C491      1.0  0.17343  0.37669  0.22017  1.0000
  C   C492      1.0  0.16965  0.39095  0.20817  1.0000
  C   C493      1.0  0.16036  0.34548  0.20644  1.0000
  H   H486      1.0  0.15377  0.37475  0.18575  1.0000
  H   H487      1.0  0.17289  0.35089  0.22900  1.0000
  H   H488      1.0  0.15938  0.40131  0.18643  1.0000
  H   H489      1.0  0.17873  0.37722  0.23002  1.0000
  H   H490      1.0  0.17202  0.40254  0.20874  1.0000
  H   H491      1.0  0.15607  0.33830  0.21907  1.0000
  H   H492      1.0  0.15047  0.34749  0.19963  1.0000
  H   H493      1.0  0.17189  0.33808  0.20006  1.0000
  C   C494      1.0  0.12353  0.25879  0.08292  1.0000
  H   H494      1.0  0.16657  0.33416  0.44524  1.0000
  H   H495      1.0  0.20160  0.28489  0.08549  1.0000
  H   H496      1.0  0.17359  0.39969  0.31849  1.0000
  H   H497      1.0  0.25595  0.35947  0.17530  1.0000
  H   H498      1.0  0.26059  0.41675  0.22569  1.0000
  H   H499      1.0  0.23642  0.25158  0.09412  1.0000
  C   C495      1.0  0.14407  0.33548  0.04143  1.0000
  C   C496      1.0  0.24880  0.23563  0.42670  1.0000
  H   H500      1.0  0.16841  0.35619  0.04949  1.0000
  N   N39       1.0  0.16706  0.44100  0.31562  1.0000
  H   H501      1.0  0.28616  0.41683  0.20318  1.0000
  H   H502      1.0  0.00674  0.24958  0.19304  1.0000
  H   H503      1.0  0.14955  0.32565  0.01974  1.0000
  H   H504      1.0  0.03188  0.28124  0.08648  1.0000
  H   H505      1.0  0.05301  0.24856  0.17791  1.0000
  N   N40       1.0  0.06690  0.30459  0.26618  1.0000
  C   C497      1.0  0.06398  0.30413  0.25150  1.0000
  C   C498      1.0  0.07228  0.29020  0.27676  1.0000
  C   C499      1.0  0.06644  0.28897  0.24713  1.0000
  C   C500      1.0  0.07485  0.27482  0.27279  1.0000
  C   C501      1.0  0.07199  0.27424  0.25782  1.0000
  C   C502      1.0  0.06501  0.32051  0.27041  1.0000
  H   H506      1.0  0.05996  0.31551  0.24293  1.0000
  H   H507      1.0  0.07529  0.29060  0.28806  1.0000
  H   H508      1.0  0.06431  0.28875  0.23535  1.0000
  H   H509      1.0  0.07965  0.26351  0.28101  1.0000
  H   H510      1.0  0.07432  0.26245  0.25438  1.0000
  H   H511      1.0  0.07745  0.32275  0.26935  1.0000
  H   H512      1.0  0.05851  0.33104  0.26205  1.0000
  H   H513      1.0  0.05779  0.32046  0.28328  1.0000
  C   C503      1.0  0.17312  0.34691  0.02737  1.0000
  C   C504      1.0  0.14924  0.34424  0.04981  1.0000
  C   C505      1.0  0.18921  0.30109  0.46525  1.0000
  C   C506      1.0  0.13696  0.25672  0.06962  1.0000
  N   N41       1.0  0.16781  0.33856  0.01909  1.0000
  C   C507      1.0  0.27897  0.28143  0.12185  1.0000
  H   H514      1.0  0.13289  0.33061  0.04688  1.0000
  C   C508      1.0  0.14548  0.32763  0.44171  1.0000
  H   H515      1.0  0.23283  0.23461  0.02433  1.0000
  C   C509      1.0  0.24021  0.24006  0.07380  1.0000
  C   C510      1.0  0.12272  0.31935  0.43627  1.0000
  C   C511      1.0  0.31875  0.45794  0.15942  1.0000
  C   C512      1.0  0.99979  0.27474  0.07502  1.0000
  C   C513      1.0  0.01757  0.23769  0.17238  1.0000
  C   C514      1.0  0.16454  0.34154  0.41969  1.0000
  C   C515      1.0  0.30386  0.27983  0.07892  1.0000
  C   C516      1.0  0.23590  0.24141  0.05893  1.0000
  C   C517      1.0  0.16261  0.47783  0.27785  1.0000
  H   H516      1.0  0.25537  0.24378  0.42871  1.0000
  N   N42       1.0  0.23262  0.24120  0.42532  1.0000
  C   C518      1.0  0.14354  0.23930  0.36883  1.0000
  C   C519      1.0  0.29493  0.48036  0.16374  1.0000
  C   C520      1.0  0.10413  0.23831  0.40461  1.0000
  H   H517      1.0  0.24131  0.23163  0.05203  1.0000
  H   H518      1.0  0.09665  0.24456  0.39505  1.0000
  C   C521      1.0  0.12624  0.23577  0.06470  1.0000
  C   C522      1.0  0.01375  0.23822  0.18909  1.0000
  H   H519      1.0  0.09185  0.23456  0.07230  1.0000
  H   H520      1.0  0.21160  0.23537  0.42141  1.0000
  C   C523      1.0  0.05764  0.23651  0.18497  1.0000
  Fe  Fe92      1.0  0.19776  0.27637  0.55374  1.0000
  Fe  Fe93      1.0  0.16295  0.29635  0.55764  1.0000
  S   S175      1.0  0.17001  0.31814  0.53806  1.0000
  S   S176      1.0  0.13811  0.29725  0.57524  1.0000
  Fe  Fe94      1.0  0.19135  0.31383  0.55010  1.0000
  S   S177      1.0  0.19477  0.33758  0.55418  1.0000
  S   S178      1.0  0.17703  0.27774  0.54198  1.0000
  S   S179      1.0  0.18309  0.29340  0.57067  1.0000
  Fe  Fe95      1.0  0.24296  0.36964  0.59850  1.0000
  S   S180      1.0  0.22918  0.39554  0.58958  1.0000
  S   S181      1.0  0.24840  0.34758  0.58666  1.0000
  Fe  Fe96      1.0  0.24604  0.37759  0.62974  1.0000
  S   S182      1.0  0.23167  0.40362  0.62393  1.0000
  S   S183      1.0  0.25482  0.36845  0.65358  1.0000
  Fe  Fe97      1.0  0.21503  0.39307  0.61587  1.0000
  S   S184      1.0  0.18792  0.40434  0.62243  1.0000
  Fe  Fe98      1.0  0.24719  0.40414  0.59833  1.0000
  S   S185      1.0  0.22773  0.36673  0.62449  1.0000
  S   S186      1.0  0.26270  0.37835  0.60453  1.0000
  S   S187      1.0  0.20144  0.24171  0.84653  1.0000
  H   H521      1.0  0.23179  0.25723  0.77401  1.0000
  Fe  Fe99      1.0  0.30259  0.41519  0.68032  1.0000
  S   S188      1.0  0.28101  0.42472  0.69931  1.0000
  S   S189      1.0  0.29898  0.41560  0.65544  1.0000
  Fe  Fe100     1.0  0.29780  0.43953  0.70169  1.0000
  C   C524      1.0  0.21244  0.46721  0.62200  1.0000
  Fe  Fe101     1.0  0.29333  0.40399  0.71730  1.0000
  S   S190      1.0  0.28174  0.38604  0.73886  1.0000
  S   S191      1.0  0.30795  0.41978  0.72170  1.0000
  H   H522      1.0  0.23556  0.26973  0.81857  1.0000
  S   S192      1.0  0.16844  0.28365  0.96010  1.0000
  S   S193      1.0  0.06010  0.25515  0.77376  1.0000
  H   H523      1.0  0.26284  0.27098  0.53391  1.0000
  S   S194      1.0  0.15511  0.25797  0.84209  1.0000
  H   H524      1.0  0.26350  0.30933  0.69918  1.0000
  Fe  Fe102     1.0  0.31239  0.25351  0.77660  1.0000
  C   C525      1.0  0.29958  0.45843  0.62238  1.0000
  S   S195      1.0  0.28987  0.46730  0.69939  1.0000
  H   H525      1.0  0.13964  0.29780  0.74937  1.0000
  H   H526      1.0  0.10611  0.26853  0.79956  1.0000
  C   C526      1.0  0.26039  0.45698  0.58848  1.0000
  Fe  Fe103     1.0  0.14312  0.27670  0.85789  1.0000
  S   S196      1.0  0.13201  0.30231  0.84548  1.0000
  S   S197      1.0  0.12744  0.26055  0.87742  1.0000
  H   H527      1.0  0.20571  0.25635  0.79348  1.0000
  H   H528      1.0  0.21274  0.25790  0.81079  1.0000
  C   C527      1.0  0.24341  0.32078  0.52330  1.0000
  C   C528      1.0  0.21016  0.43897  0.58957  1.0000
  C   C529      1.0  0.26590  0.24492  0.53553  1.0000
  C   C530      1.0  0.21823  0.47200  0.60498  1.0000
  C   C531      1.0  0.28171  0.32309  0.73669  1.0000
  Fe  Fe104     1.0  0.14912  0.25298  0.88990  1.0000
  C   C532      1.0  0.28884  0.23879  0.72292  1.0000
  H   H529      1.0  0.24998  0.28736  0.78167  1.0000
  S   S198      1.0  0.16375  0.27075  0.87134  1.0000
  C   C533      1.0  0.23733  0.24598  0.78179  1.0000
  Fe  Fe105     1.0  0.22176  0.33375  0.74575  1.0000
  S   S199      1.0  0.24089  0.31302  0.75595  1.0000
  S   S200      1.0  0.22950  0.35472  0.72532  1.0000
  Fe  Fe106     1.0  0.19375  0.31629  0.76511  1.0000
  S   S201      1.0  0.21052  0.29379  0.77678  1.0000
  S   S202      1.0  0.16622  0.31925  0.76985  1.0000
  Fe  Fe107     1.0  0.22246  0.31235  0.78012  1.0000
  S   S203      1.0  0.22998  0.30831  0.80402  1.0000
  Fe  Fe108     1.0  0.22731  0.29637  0.75171  1.0000
  S   S204      1.0  0.24197  0.27473  0.74047  1.0000
  S   S205      1.0  0.20437  0.33488  0.77044  1.0000
  S   S206      1.0  0.20946  0.31718  0.73947  1.0000
  Fe  Fe109     1.0  0.16445  0.32390  0.67104  1.0000
  S   S207      1.0  0.18454  0.31302  0.65155  1.0000
  S   S208      1.0  0.14964  0.35001  0.66886  1.0000
  Fe  Fe110     1.0  0.16549  0.29094  0.69602  1.0000
  S   S209      1.0  0.18567  0.27734  0.67864  1.0000
  S   S210      1.0  0.15664  0.27641  0.72169  1.0000
  Fe  Fe111     1.0  0.19703  0.29935  0.67266  1.0000
  S   S211      1.0  0.22456  0.29487  0.67024  1.0000
  Fe  Fe112     1.0  0.17125  0.29216  0.65945  1.0000
  S   S212      1.0  0.16434  0.28120  0.64226  1.0000
  S   S213      1.0  0.17791  0.31203  0.69156  1.0000
  S   S214      1.0  0.15015  0.30412  0.67713  1.0000
  H   H530      1.0  0.16672  0.24662  0.60575  1.0000
  C   C534      1.0  0.23743  0.27918  0.72097  1.0000
  H   H531      1.0  0.18528  0.25502  0.61788  1.0000
  S   S215      1.0  0.30432  0.26891  0.79578  1.0000
  C   C535      1.0  0.22958  0.28823  0.68975  1.0000
  C   C536      1.0  0.24615  0.28244  0.69116  1.0000
  C   C537      1.0  0.25006  0.27759  0.70683  1.0000
  C   C538      1.0  0.23406  0.26769  0.83215  1.0000
  H   H532      1.0  0.25936  0.33098  0.69937  1.0000
  H   H533      1.0  0.25592  0.28166  0.68017  1.0000
  H   H534      1.0  0.26285  0.27299  0.70792  1.0000
  H   H535      1.0  0.20722  0.35125  0.49662  1.0000
  C   C539      1.0  0.25756  0.28835  0.78930  1.0000
  C   C540      1.0  0.25073  0.29765  0.80152  1.0000
  C   C541      1.0  0.26039  0.29804  0.81200  1.0000
  H   H536      1.0  0.22280  0.46574  0.58142  1.0000
  H   H537      1.0  0.28416  0.33304  0.74054  1.0000
  H   H538      1.0  0.25514  0.30515  0.82153  1.0000
  H   H539      1.0  0.28930  0.24561  0.69682  1.0000
  H   H540      1.0  0.28447  0.28969  0.81811  1.0000
  C   C542      1.0  0.28807  0.23376  0.56969  1.0000
  S   S216      1.0  0.19216  0.30474  0.49500  1.0000
  C   C543      1.0  0.14156  0.25103  0.68156  1.0000
  C   C544      1.0  0.15085  0.26268  0.67172  1.0000
  C   C545      1.0  0.15197  0.26728  0.65462  1.0000
  C   C546      1.0  0.14349  0.26042  0.64742  1.0000
  C   C547      1.0  0.13438  0.24857  0.65724  1.0000
  C   C548      1.0  0.16916  0.23987  0.61780  1.0000
  H   H541      1.0  0.15716  0.26799  0.67747  1.0000
  H   H542      1.0  0.14413  0.26409  0.63423  1.0000
  C   C549      1.0  0.25327  0.23747  0.77557  1.0000
  C   C550      1.0  0.15261  0.25658  0.92949  1.0000
  C   C551      1.0  0.15997  0.27020  0.92186  1.0000
  C   C552      1.0  0.16465  0.27833  0.93144  1.0000
  C   C553      1.0  0.16202  0.27300  0.94875  1.0000
  H   H543      1.0  0.16201  0.27451  0.90858  1.0000
  H   H544      1.0  0.17030  0.28888  0.92541  1.0000
  C   C554      1.0  0.14140  0.30611  0.82440  1.0000
  C   C555      1.0  0.15811  0.29897  0.81896  1.0000
  C   C556      1.0  0.16586  0.30302  0.80221  1.0000
  C   C557      1.0  0.15681  0.31387  0.79082  1.0000
  C   C558      1.0  0.14002  0.32070  0.79622  1.0000
  C   C559      1.0  0.13240  0.31704  0.81303  1.0000
  H   H545      1.0  0.16519  0.29073  0.82776  1.0000
  H   H546      1.0  0.17878  0.29765  0.79815  1.0000
  H   H547      1.0  0.13297  0.32909  0.78745  1.0000
  H   H548      1.0  0.11949  0.32260  0.81723  1.0000
  C   C560      1.0  0.10744  0.26231  0.72810  1.0000
  C   C561      1.0  0.11813  0.25321  0.73866  1.0000
  C   C562      1.0  0.13339  0.25739  0.73654  1.0000
  C   C563      1.0  0.13790  0.27072  0.72394  1.0000
  C   C564      1.0  0.12700  0.27993  0.71370  1.0000
  C   C565      1.0  0.11190  0.27569  0.71568  1.0000
  C   C566      1.0  0.10734  0.24567  0.84042  1.0000
  S   S217      1.0  0.07838  0.24673  0.80985  1.0000
  H   H549      1.0  0.12992  0.29068  0.70457  1.0000
  H   H550      1.0  0.10350  0.28305  0.70777  1.0000
  N   N43       1.0  0.10950  0.27787  0.77354  1.0000
  H   H551      1.0  0.22251  0.31549  0.49135  1.0000
  C   C567      1.0  0.15003  0.25118  0.94681  1.0000
  S   S218      1.0  0.01697  0.24879  0.77429  1.0000
  H   H552      1.0  0.31710  0.36831  0.73207  1.0000
  C   C568      1.0  0.28391  0.28041  0.79751  1.0000
  H   H553      1.0  0.14654  0.29326  0.77665  1.0000
  C   C569      1.0  0.15468  0.25935  0.95641  1.0000
  C   C570      1.0  0.26699  0.37770  0.73503  1.0000
  C   C571      1.0  0.26247  0.38268  0.71972  1.0000
  C   C572      1.0  0.25067  0.37584  0.71694  1.0000
  C   C573      1.0  0.24344  0.36391  0.72941  1.0000
  C   C574      1.0  0.24804  0.35883  0.74468  1.0000
  C   C575      1.0  0.25976  0.36575  0.74749  1.0000
  H   H554      1.0  0.26799  0.39188  0.71004  1.0000
  H   H555      1.0  0.24719  0.37978  0.70508  1.0000
  H   H556      1.0  0.24253  0.34963  0.75436  1.0000
  H   H557      1.0  0.26319  0.36190  0.75936  1.0000
  C   C576      1.0  0.26693  0.38158  0.65439  1.0000
  C   C577      1.0  0.27167  0.39353  0.64037  1.0000
  C   C578      1.0  0.28147  0.40393  0.64086  1.0000
  C   C579      1.0  0.28647  0.40253  0.65541  1.0000
  C   C580      1.0  0.28158  0.39071  0.66954  1.0000
  C   C581      1.0  0.27189  0.38016  0.66899  1.0000
  H   H558      1.0  0.26799  0.39470  0.62903  1.0000
  H   H559      1.0  0.28522  0.41304  0.62990  1.0000
  H   H560      1.0  0.28543  0.38958  0.68080  1.0000
  H   H561      1.0  0.26826  0.37093  0.67987  1.0000
  H   H562      1.0  0.24828  0.44515  0.63628  1.0000
  H   H563      1.0  0.25194  0.42451  0.61992  1.0000
  C   C582      1.0  0.17654  0.38926  0.63377  1.0000
  C   C583      1.0  0.16075  0.39394  0.64341  1.0000
  C   C584      1.0  0.15227  0.38179  0.65380  1.0000
  C   C585      1.0  0.15970  0.36497  0.65471  1.0000
  C   C586      1.0  0.17529  0.36033  0.64475  1.0000
  C   C587      1.0  0.18356  0.37247  0.63408  1.0000
  H   H564      1.0  0.15520  0.40693  0.64310  1.0000
  H   H565      1.0  0.14015  0.38541  0.66146  1.0000
  H   H566      1.0  0.18108  0.34742  0.64530  1.0000
  H   H567      1.0  0.19531  0.36882  0.62605  1.0000
  C   C588      1.0  0.13434  0.27748  0.58543  1.0000
  C   C589      1.0  0.14005  0.26438  0.57721  1.0000
  C   C590      1.0  0.13617  0.24889  0.58514  1.0000
  C   C591      1.0  0.12706  0.24625  0.60149  1.0000
  C   C592      1.0  0.12175  0.25922  0.60990  1.0000
  C   C593      1.0  0.12519  0.27489  0.60180  1.0000
  H   H568      1.0  0.14681  0.26639  0.56449  1.0000
  H   H569      1.0  0.14066  0.24762  0.69480  1.0000
  H   H570      1.0  0.11477  0.25730  0.62250  1.0000
  H   H571      1.0  0.12071  0.28501  0.60818  1.0000
  C   C594      1.0  0.20951  0.33959  0.56392  1.0000
  C   C595      1.0  0.22298  0.32670  0.56732  1.0000
  C   C596      1.0  0.23482  0.32925  0.57435  1.0000
  C   C597      1.0  0.23309  0.34456  0.57832  1.0000
  C   C598      1.0  0.21945  0.35730  0.57519  1.0000
  C   C599      1.0  0.20785  0.35488  0.56783  1.0000
  H   H572      1.0  0.22439  0.31487  0.56436  1.0000
  H   H573      1.0  0.24536  0.31934  0.57673  1.0000
  H   H574      1.0  0.21803  0.36916  0.57808  1.0000
  H   H575      1.0  0.19757  0.36499  0.56508  1.0000
  S   S219      1.0  0.14658  0.24586  0.91792  1.0000
  C   C600      1.0  0.13339  0.24391  0.67432  1.0000
  C   C601      1.0  0.25694  0.26050  0.53839  1.0000
  H   H576      1.0  0.12953  0.27864  0.80199  1.0000
  N   N44       1.0  0.26946  0.31433  0.71949  1.0000
  H   H577      1.0  0.14907  0.28425  0.48342  1.0000
  S   S220      1.0  0.24899  0.47935  0.62740  1.0000
  H   H578      1.0  0.27945  0.27321  0.77739  1.0000
  C   C602      1.0  0.21703  0.28889  0.70402  1.0000
  C   C603      1.0  0.24339  0.30637  0.50290  1.0000
  H   H579      1.0  0.20427  0.24050  0.81197  1.0000
  C   C604      1.0  0.25893  0.46867  0.59781  1.0000
  C   C605      1.0  0.21386  0.24719  0.70471  1.0000
  S   S221      1.0  0.29498  0.25648  0.72340  1.0000
  H   H580      1.0  0.18721  0.25460  0.71137  1.0000
  H   H581      1.0  0.26892  0.33961  0.71828  1.0000
  S   S222      1.0  0.08845  0.25737  0.72996  1.0000
  H   H582      1.0  0.14428  0.24071  0.95285  1.0000
  H   H583      1.0  0.29333  0.30351  0.75443  1.0000
  H   H584      1.0  0.09275  0.27592  0.76003  1.0000
  Fe  Fe113     1.0  0.14100  0.24127  0.86244  1.0000
  Fe  Fe114     1.0  0.17432  0.25039  0.85724  1.0000
  H   H585      1.0  0.27146  0.28826  0.72356  1.0000
  C   C606      1.0  0.16800  0.29272  0.48885  1.0000
  H   H586      1.0  0.08785  0.26299  0.82944  1.0000
  C   C607      1.0  0.27698  0.28939  0.81000  1.0000
  C   C608      1.0  0.09341  0.23957  0.82224  1.0000
  S   S223      1.0  0.25695  0.42736  0.58455  1.0000
  Fe  Fe115     1.0  0.07784  0.24249  0.75445  1.0000
  C   C609      1.0  0.25411  0.46457  0.61508  1.0000
  C   C610      1.0  0.28707  0.45449  0.63615  1.0000
  H   H587      1.0  0.22815  0.24542  0.86048  1.0000
  H   H588      1.0  0.27004  0.44380  0.66606  1.0000
  S   S224      1.0  0.29461  0.24195  0.77131  1.0000
  H   H589      1.0  0.20146  0.44911  0.64160  1.0000
  C   C611      1.0  0.30910  0.46912  0.62259  1.0000
  Fe  Fe116     1.0  0.07282  0.23486  0.79191  1.0000
  H   H590      1.0  0.01387  0.24649  0.67288  1.0000
  C   C612      1.0  0.09550  0.25058  0.83056  1.0000
  C   C613      1.0  0.24075  0.24263  0.85332  1.0000
  Fe  Fe117     1.0  0.04381  0.23803  0.77582  1.0000
  C   C614      1.0  0.20508  0.34015  0.50650  1.0000
  C   C615      1.0  0.99011  0.24164  0.76886  1.0000
  C   C616      1.0  0.22843  0.31719  0.50020  1.0000
  C   C617      1.0  0.27056  0.45706  0.66377  1.0000
  C   C618      1.0  0.25177  0.44852  0.62292  1.0000
  Fe  Fe118     1.0  0.18604  0.29932  0.52330  1.0000
  N   N45       1.0  0.07987  0.26303  0.68558  1.0000
  C   C619      1.0  0.07143  0.27120  0.67332  1.0000
  C   C620      1.0  0.09443  0.26672  0.68535  1.0000
  C   C621      1.0  0.07798  0.28285  0.65996  1.0000
  C   C622      1.0  0.10132  0.27833  0.67225  1.0000
  C   C623      1.0  0.09309  0.28632  0.65940  1.0000
  C   C624      1.0  0.07301  0.25067  0.69937  1.0000
  H   H591      1.0  0.05976  0.26843  0.67360  1.0000
  H   H592      1.0  0.10104  0.26036  0.69516  1.0000
  H   H593      1.0  0.29084  0.47698  0.66073  1.0000
  H   H594      1.0  0.11310  0.28084  0.67200  1.0000
  H   H595      1.0  0.20427  0.29267  0.70320  1.0000
  H   H596      1.0  0.08314  0.24071  0.70394  1.0000
  H   H597      1.0  0.26555  0.25727  0.81767  1.0000
  H   H598      1.0  0.06518  0.24467  0.69554  1.0000
  N   N46       1.0  0.15383  0.31989  0.60960  1.0000
  C   C625      1.0  0.15128  0.32399  0.62452  1.0000
  C   C626      1.0  0.16234  0.32858  0.59554  1.0000
  C   C627      1.0  0.15728  0.33715  0.62559  1.0000
  C   C628      1.0  0.16865  0.34170  0.59622  1.0000
  C   C629      1.0  0.16610  0.34599  0.61135  1.0000
  C   C630      1.0  0.14678  0.30666  0.60840  1.0000
  H   H599      1.0  0.14464  0.31705  0.63571  1.0000
  H   H600      1.0  0.16425  0.32545  0.58367  1.0000
  H   H601      1.0  0.15511  0.34043  0.63742  1.0000
  H   H602      1.0  0.17540  0.34852  0.58503  1.0000
  H   H603      1.0  0.17091  0.35617  0.61204  1.0000
  H   H604      1.0  0.14191  0.29931  0.62072  1.0000
  H   H605      1.0  0.13651  0.31207  0.60174  1.0000
  H   H606      1.0  0.15639  0.29787  0.60155  1.0000
  Fe  Fe119     1.0  0.30736  0.24910  0.74481  1.0000
  H   H607      1.0  0.26237  0.29975  0.51691  1.0000
  H   H608      1.0  0.06551  0.25670  0.70974  1.0000
  H   H609      1.0  0.26352  0.46035  0.57511  1.0000
  C   C631      1.0  0.01817  0.23394  0.67932  1.0000
  N   N47       1.0  0.28418  0.46093  0.64979  1.0000
  C   C632      1.0  0.20579  0.45307  0.62837  1.0000
  C   C633      1.0  0.13612  0.28896  0.77581  1.0000
  H   H610      1.0  0.19496  0.25434  0.64129  1.0000
  H   H611      1.0  0.09895  0.25773  0.77524  1.0000
  H   H612      1.0  0.21357  0.47423  0.63022  1.0000
  S   S225      1.0  0.20801  0.29650  0.53409  1.0000
  C   C634      1.0  0.27420  0.28000  0.78710  1.0000
  H   H613      1.0  0.11569  0.28822  0.74766  1.0000
  C   C635      1.0  0.22845  0.33135  0.52029  1.0000
  C   C636      1.0  0.27448  0.29813  0.72701  1.0000
  H   H614      1.0  0.25864  0.46496  0.66094  1.0000
  H   H615      1.0  0.11476  0.24288  0.74831  1.0000
  H   H616      1.0  0.20451  0.42811  0.59622  1.0000
  C   C637      1.0  0.13218  0.29160  0.76051  1.0000
  S   S226      1.0  0.21215  0.25124  0.56396  1.0000
  H   H617      1.0  0.20260  0.44684  0.58056  1.0000
  C   C638      1.0  0.21759  0.46237  0.59456  1.0000
  C   C639      1.0  0.11334  0.27512  0.78858  1.0000
  H   H618      1.0  0.27222  0.45915  0.67533  1.0000
  H   H619      1.0  0.24609  0.31803  0.71391  1.0000
  C   C640      1.0  0.23288  0.24884  0.55322  1.0000
  N   N48       1.0  0.21092  0.44860  0.60089  1.0000
  C   C641      1.0  0.19872  0.25153  0.71550  1.0000
  C   C642      1.0  0.20499  0.44391  0.61756  1.0000
  C   C643      1.0  0.29333  0.47157  0.65006  1.0000
  H   H620      1.0  0.30175  0.45323  0.61164  1.0000
  C   C644      1.0  0.25913  0.31838  0.70735  1.0000
  C   C645      1.0  0.00528  0.23513  0.77378  1.0000
  H   H621      1.0  0.12833  0.24293  0.65151  1.0000
  H   H622      1.0  0.19977  0.43295  0.62261  1.0000
  H   H623      1.0  0.01191  0.24255  0.72413  1.0000
  C   C646      1.0  0.27303  0.32675  0.72411  1.0000
  S   S227      1.0  0.31369  0.39322  0.69803  1.0000
  H   H624      1.0  0.13986  0.23906  0.57842  1.0000
  N   N49       1.0  0.16936  0.33231  0.82149  1.0000
  C   C647      1.0  0.15787  0.32938  0.83594  1.0000
  C   C648      1.0  0.18574  0.32487  0.82074  1.0000
  C   C649      1.0  0.16257  0.31822  0.84994  1.0000
  C   C650      1.0  0.19089  0.31375  0.83456  1.0000
  C   C651      1.0  0.17918  0.31033  0.84920  1.0000
  C   C652      1.0  0.16426  0.34387  0.80683  1.0000
  H   H625      1.0  0.14483  0.33510  0.83657  1.0000
  H   H626      1.0  0.19493  0.32739  0.80939  1.0000
  H   H627      1.0  0.15325  0.31538  0.86112  1.0000
  H   H628      1.0  0.20387  0.30779  0.83383  1.0000
  H   H629      1.0  0.18292  0.30152  0.85994  1.0000
  H   H630      1.0  0.17101  0.33913  0.79547  1.0000
  H   H631      1.0  0.15085  0.34535  0.80750  1.0000
  H   H632      1.0  0.16685  0.35617  0.80560  1.0000
  N   N50       1.0  0.19273  0.36169  0.68901  1.0000
  C   C653      1.0  0.20689  0.36016  0.69413  1.0000
  C   C654      1.0  0.18913  0.37347  0.67538  1.0000
  C   C655      1.0  0.21807  0.37033  0.68530  1.0000
  C   C656      1.0  0.20009  0.38378  0.66620  1.0000
  C   C657      1.0  0.21463  0.38219  0.67124  1.0000
  C   C658      1.0  0.18094  0.35124  0.69871  1.0000
  H   H633      1.0  0.20960  0.35108  0.70514  1.0000
  H   H634      1.0  0.17774  0.37497  0.67155  1.0000
  C   C659      1.0  0.16034  0.28888  0.47828  1.0000
  H   H635      1.0  0.19730  0.39293  0.65525  1.0000
  H   H636      1.0  0.22328  0.39007  0.66426  1.0000
  H   H637      1.0  0.17285  0.35668  0.70927  1.0000
  H   H638      1.0  0.17296  0.35007  0.69106  1.0000
  H   H639      1.0  0.18757  0.33849  0.70361  1.0000
  N   N51       1.0  0.25663  0.32529  0.62844  1.0000
  C   C660      1.0  0.26122  0.33260  0.63822  1.0000
  C   C661      1.0  0.26727  0.32172  0.61420  1.0000
  C   C662      1.0  0.27674  0.33681  0.63361  1.0000
  C   C663      1.0  0.28277  0.32597  0.60910  1.0000
  C   C664      1.0  0.28749  0.33361  0.61888  1.0000
  C   C665      1.0  0.24020  0.32133  0.63296  1.0000
  H   H640      1.0  0.25281  0.33551  0.64951  1.0000
  H   H641      1.0  0.26351  0.31615  0.60633  1.0000
  H   H642      1.0  0.28024  0.34288  0.64123  1.0000
  H   H643      1.0  0.29086  0.32369  0.59745  1.0000
  H   H644      1.0  0.29936  0.33721  0.61497  1.0000
  H   H645      1.0  0.23354  0.32747  0.62275  1.0000
  H   H646      1.0  0.24144  0.30770  0.63539  1.0000
  H   H647      1.0  0.23243  0.32556  0.64431  1.0000
  H   H648      1.0  0.22938  0.36902  0.68930  1.0000
  C   C666      1.0  0.12661  0.28073  0.78999  1.0000
  C   C667      1.0  0.29907  0.47661  0.70940  1.0000
  C   C668      1.0  0.22094  0.28478  0.71953  1.0000
  C   C669      1.0  0.11867  0.28605  0.75961  1.0000
  C   C670      1.0  0.27291  0.23504  0.83516  1.0000
  C   C671      1.0  0.30599  0.47574  0.63651  1.0000
  N   N52       1.0  0.22097  0.32922  0.50914  1.0000
  H   H649      1.0  0.07148  0.28894  0.65002  1.0000
  S   S228      1.0  0.16128  0.23216  0.87664  1.0000
  C   C672      1.0  0.25086  0.30817  0.51458  1.0000
  H   H650      1.0  0.22269  0.34107  0.52719  1.0000
  H   H651      1.0  0.24896  0.29645  0.49623  1.0000
  C   C673      1.0  0.30560  0.46769  0.72323  1.0000
  H   H652      1.0  0.22287  0.43426  0.58274  1.0000
  H   H653      1.0  0.16263  0.29104  0.50197  1.0000
  H   H654      1.0  0.24903  0.32228  0.53248  1.0000
  H   H655      1.0  0.19753  0.33360  0.50294  1.0000
  S   S229      1.0  0.09575  0.24172  0.65291  1.0000
  H   H656      1.0  0.09846  0.29513  0.64901  1.0000
  H   H657      1.0  0.21110  0.28565  0.73045  1.0000
  C   C674      1.0  0.25353  0.43683  0.61364  1.0000
  C   C675      1.0  0.25727  0.44113  0.59638  1.0000
  H   H658      1.0  0.27977  0.44611  0.63594  1.0000
  C   C676      1.0  0.24043  0.26247  0.54725  1.0000
  H   H659      1.0  0.23366  0.27444  0.54973  1.0000
  N   N53       1.0  0.22884  0.24015  0.79737  1.0000
  C   C677      1.0  0.21211  0.24919  0.80366  1.0000
  H   H660      1.0  0.14169  0.25034  0.74467  1.0000
  H   H661      1.0  0.23641  0.27864  0.83490  1.0000
  S   S230      1.0  0.28664  0.24246  0.52487  1.0000
  C   C678      1.0  0.18245  0.29893  0.48238  1.0000
  H   H662      1.0  0.22095  0.26688  0.83788  1.0000
  H   H663      1.0  0.31727  0.46876  0.74201  1.0000
  C   C679      1.0  0.26154  0.24915  0.82937  1.0000
  C   C680      1.0  0.09574  0.27151  0.77248  1.0000
  C   C681      1.0  0.28681  0.30657  0.74448  1.0000
  C   C682      1.0  0.19850  0.25204  0.73158  1.0000
  H   H664      1.0  0.25983  0.24212  0.76311  1.0000
  H   H665      1.0  0.99888  0.24165  0.80900  1.0000
  H   H666      1.0  0.23995  0.24033  0.72973  1.0000
  H   H667      1.0  0.08437  0.27552  0.78167  1.0000
  H   H668      1.0  0.19754  0.34418  0.51805  1.0000
  H   H669      1.0  0.21387  0.24719  0.69212  1.0000
  H   H670      1.0  0.30534  0.45469  0.72786  1.0000
  C   C683      1.0  0.28326  0.29400  0.73954  1.0000
  H   H671      1.0  0.10874  0.25427  0.84679  1.0000
  S   S231      1.0  0.04884  0.24110  0.66894  1.0000
  C   C684      1.0  0.24422  0.23810  0.69874  1.0000
  N   N54       1.0  0.24564  0.25266  0.83832  1.0000
  H   H672      1.0  0.28860  0.24238  0.55778  1.0000
  C   C685      1.0  0.21341  0.24787  0.73679  1.0000
  H   H673      1.0  0.28702  0.28112  0.74551  1.0000
  C   C686      1.0  0.22834  0.24331  0.72574  1.0000
  H   H674      1.0  0.24270  0.23952  0.68598  1.0000
  H   H675      1.0  0.21347  0.24855  0.74914  1.0000
  C   C687      1.0  0.31222  0.47570  0.73131  1.0000
  H   H676      1.0  0.25296  0.24581  0.69801  1.0000
  N   N55       1.0  0.22841  0.24312  0.70991  1.0000
  C   C688      1.0  0.17961  0.24461  0.62475  1.0000
  C   C689      1.0  0.28730  0.23626  0.70809  1.0000
  H   H677      1.0  0.18678  0.25587  0.73983  1.0000
  H   H678      1.0  0.26083  0.48102  0.59164  1.0000
  S   S232      1.0  0.31859  0.43139  0.68134  1.0000
  C   C690      1.0  0.19292  0.24168  0.64759  1.0000
  H   H679      1.0  0.18724  0.24201  0.66081  1.0000
  H   H680      1.0  0.31871  0.47245  0.61191  1.0000
  C   C691      1.0  0.21220  0.23519  0.96429  1.0000
  C   C692      1.0  0.24193  0.23320  0.55060  1.0000
  H   H681      1.0  0.21677  0.24380  0.95320  1.0000
  H   H682      1.0  0.15246  0.25517  0.96971  1.0000
  H   H683      1.0  0.28551  0.23230  0.82795  1.0000
  N   N56       1.0  0.18207  0.23666  0.64028  1.0000
  H   H684      1.0  0.20510  0.23278  0.64687  1.0000
  H   H685      1.0  0.26249  0.23308  0.57297  1.0000
  H   H686      1.0  0.18664  0.24789  0.96557  1.0000
  C   C693      1.0  0.19525  0.23748  0.97122  1.0000
  H   H687      1.0  0.31357  0.23151  0.56962  1.0000
  S   S233      1.0  0.29766  0.53209  0.23124  1.0000
  Fe  Fe120     1.0  0.16939  0.55685  0.27481  1.0000
  S   S234      1.0  0.17327  0.53622  0.29701  1.0000
  S   S235      1.0  0.14498  0.57273  0.26976  1.0000
  Fe  Fe121     1.0  0.20585  0.55469  0.26079  1.0000
  S   S236      1.0  0.22221  0.56697  0.23825  1.0000
  H   H688      1.0  0.16551  0.58097  0.31978  1.0000
  Fe  Fe122     1.0  0.19268  0.54886  0.29796  1.0000
  S   S237      1.0  0.19394  0.55311  0.32237  1.0000
  S   S238      1.0  0.18769  0.54276  0.25664  1.0000
  S   S239      1.0  0.18719  0.57032  0.27722  1.0000
  Fe  Fe123     1.0  0.22577  0.62141  0.38234  1.0000
  S   S240      1.0  0.24799  0.61676  0.36170  1.0000
  Fe  Fe124     1.0  0.20497  0.64520  0.35901  1.0000
  S   S241      1.0  0.22550  0.64313  0.33667  1.0000
  S   S242      1.0  0.18042  0.66198  0.35631  1.0000
  Fe  Fe125     1.0  0.22983  0.61579  0.34760  1.0000
  S   S243      1.0  0.23596  0.59982  0.32870  1.0000
  Fe  Fe126     1.0  0.24161  0.64431  0.35256  1.0000
  S   S244      1.0  0.26075  0.66002  0.34325  1.0000
  S   S245      1.0  0.20810  0.61776  0.36919  1.0000
  S   S246      1.0  0.22047  0.64909  0.37394  1.0000
  C   C694      1.0  0.24769  0.54644  0.29789  1.0000
  H   H689      1.0  0.06769  0.66402  0.12591  1.0000
  H   H690      1.0  0.15932  0.66624  0.06854  1.0000
  Fe  Fe127     1.0  0.30081  0.68707  0.39830  1.0000
  S   S247      1.0  0.28444  0.66924  0.40264  1.0000
  Fe  Fe128     1.0  0.27311  0.63886  0.08923  1.0000
  S   S248      1.0  0.26487  0.65292  0.10946  1.0000
  S   S249      1.0  0.29515  0.61766  0.09135  1.0000
  Fe  Fe129     1.0  0.24573  0.66033  0.07155  1.0000
  S   S250      1.0  0.23551  0.67609  0.09031  1.0000
  S   S251      1.0  0.23404  0.66514  0.04983  1.0000
  Fe  Fe130     1.0  0.26202  0.67534  0.08890  1.0000
  S   S252      1.0  0.26908  0.69892  0.08749  1.0000
  Fe  Fe131     1.0  0.23932  0.65198  0.10878  1.0000
  S   S253      1.0  0.22176  0.64317  0.13222  1.0000
  S   S254      1.0  0.27226  0.66150  0.06851  1.0000
  S   S255      1.0  0.24769  0.63611  0.09006  1.0000
  Fe  Fe132     1.0  0.14033  0.65374  0.20152  1.0000
  S   S256      1.0  0.14893  0.67757  0.18954  1.0000
  S   S257      1.0  0.16045  0.63313  0.21091  1.0000
  Fe  Fe133     1.0  0.10675  0.66821  0.19282  1.0000
  S   S258      1.0  0.11266  0.69303  0.18024  1.0000
  S   S259      1.0  0.08116  0.66765  0.19206  1.0000
  Fe  Fe134     1.0  0.13703  0.67848  0.16921  1.0000
  S   S260      1.0  0.14906  0.68649  0.14260  1.0000
  Fe  Fe135     1.0  0.12370  0.68963  0.20178  1.0000
  H   H691      1.0  0.14214  0.72328  0.25327  1.0000
  S   S261      1.0  0.13042  0.65368  0.17998  1.0000
  S   S262      1.0  0.11582  0.66589  0.21561  1.0000
  H   H692      1.0  0.29480  0.66997  0.09506  1.0000
  C   C695      1.0  0.28452  0.58117  0.14065  1.0000
  C   C696      1.0  0.31361  0.69533  0.22310  1.0000
  H   H693      1.0  0.25812  0.66925  0.43323  1.0000
  C   C697      1.0  0.32119  0.69785  0.23442  1.0000
  H   H694      1.0  0.30863  0.54334  0.13028  1.0000
  C   C698      1.0  0.26093  0.67350  0.44270  1.0000
  H   H695      1.0  0.08288  0.70488  0.22747  1.0000
  S   S263      1.0  0.30155  0.70464  0.19493  1.0000
  H   H696      1.0  0.27968  0.62140  0.38184  1.0000
  H   H697      1.0  0.27704  0.71929  0.10395  1.0000
  S   S264      1.0  0.07361  0.70129  0.11877  1.0000
  C   C699      1.0  0.07422  0.71873  0.20550  1.0000
  C   C700      1.0  0.17643  0.65061  0.10829  1.0000
  H   H698      1.0  0.31597  0.58887  0.10738  1.0000
  C   C701      1.0  0.27679  0.66844  0.44592  1.0000
  S   S265      1.0  0.02891  0.72652  0.13664  1.0000
  S   S266      1.0  0.13809  0.71631  0.01344  1.0000
  C   C702      1.0  0.23017  0.63715  0.41624  1.0000
  S   S267      1.0  0.15904  0.70276  0.05343  1.0000
  S   S268      1.0  0.17565  0.72269  0.00727  1.0000
  H   H699      1.0  0.26164  0.55876  0.27514  1.0000
  C   C703      1.0  0.16941  0.61477  0.28835  1.0000
  C   C704      1.0  0.14784  0.60302  0.28733  1.0000
  S   S269      1.0  0.19301  0.72879  0.30639  1.0000
  C   C705      1.0  0.15369  0.66478  0.09484  1.0000
  H   H700      1.0  0.21201  0.64445  0.08047  1.0000
  H   H701      1.0  0.02602  0.66777  0.16633  1.0000
  H   H702      1.0  0.25933  0.59523  0.14294  1.0000
  N   N57       1.0  0.11618  0.72337  0.08788  1.0000
  H   H703      1.0  0.29241  0.66969  0.46092  1.0000
  C   C706      1.0  0.22799  0.62086  0.42231  1.0000
  C   C707      1.0  0.22814  0.60645  0.18755  1.0000
  C   C708      1.0  0.30173  0.72173  0.05732  1.0000
  H   H704      1.0  0.22507  0.60126  0.44410  1.0000
  Fe  Fe136     1.0  0.19330  0.52307  0.27887  1.0000
  H   H705      1.0  0.24382  0.56256  0.34458  1.0000
  C   C709      1.0  0.26403  0.56577  0.29640  1.0000
  H   H706      1.0  0.29674  0.63584  0.42172  1.0000
  H   H707      1.0  0.28845  0.54075  0.13134  1.0000
  C   C710      1.0  0.27703  0.54303  0.23361  1.0000
  N   N58       1.0  0.15714  0.61486  0.28102  1.0000
  N   N59       1.0  0.22826  0.69204  0.30428  1.0000
  C   C711      1.0  0.31364  0.70799  0.45988  1.0000
  S   S270      1.0  0.29946  0.52824  0.18753  1.0000
  C   C712      1.0  0.07899  0.67716  0.17179  1.0000
  C   C713      1.0  0.06347  0.68590  0.16870  1.0000
  C   C714      1.0  0.06179  0.69356  0.15246  1.0000
  C   C715      1.0  0.07556  0.69239  0.13926  1.0000
  C   C716      1.0  0.09106  0.68350  0.14236  1.0000
  C   C717      1.0  0.09281  0.67606  0.15861  1.0000
  H   H708      1.0  0.05276  0.68679  0.17886  1.0000
  H   H709      1.0  0.04974  0.69991  0.15020  1.0000
  H   H710      1.0  0.10176  0.68244  0.13222  1.0000
  H   H711      1.0  0.10483  0.66926  0.16090  1.0000
  H   H712      1.0  0.05057  0.68281  0.10664  1.0000
  S   S271      1.0  0.03634  0.72417  0.09774  1.0000
  N   N60       1.0  0.24883  0.55334  0.32270  1.0000
  Fe  Fe137     1.0  0.30205  0.55292  0.17089  1.0000
  Fe  Fe138     1.0  0.15441  0.71866  0.02881  1.0000
  C   C718      1.0  0.14016  0.68979  0.23193  1.0000
  C   C719      1.0  0.15033  0.68576  0.24327  1.0000
  C   C720      1.0  0.28880  0.62773  0.42230  1.0000
  H   H713      1.0  0.09215  0.71676  0.24428  1.0000
  H   H714      1.0  0.13979  0.68046  0.22589  1.0000
  C   C721      1.0  0.21333  0.67611  0.05107  1.0000
  C   C722      1.0  0.20628  0.67928  0.03739  1.0000
  C   C723      1.0  0.18973  0.68773  0.03798  1.0000
  C   C724      1.0  0.18011  0.69314  0.05224  1.0000
  C   C725      1.0  0.18714  0.69009  0.06594  1.0000
  C   C726      1.0  0.20372  0.68156  0.06537  1.0000
  H   H715      1.0  0.21359  0.67498  0.02634  1.0000
  H   H716      1.0  0.18428  0.68960  0.02753  1.0000
  H   H717      1.0  0.17972  0.69412  0.07708  1.0000
  H   H718      1.0  0.20891  0.67905  0.07606  1.0000
  C   C727      1.0  0.20168  0.65550  0.13488  1.0000
  C   C728      1.0  0.18969  0.65047  0.14874  1.0000
  C   C729      1.0  0.17356  0.66013  0.15120  1.0000
  C   C730      1.0  0.16929  0.67467  0.13963  1.0000
  C   C731      1.0  0.18114  0.67956  0.12558  1.0000
  C   C732      1.0  0.19737  0.67002  0.12327  1.0000
  H   H719      1.0  0.19278  0.63901  0.15752  1.0000
  H   H720      1.0  0.16440  0.65617  0.16197  1.0000
  H   H721      1.0  0.17786  0.69079  0.11659  1.0000
  H   H722      1.0  0.20643  0.67394  0.11252  1.0000
  C   C733      1.0  0.28450  0.69498  0.09853  1.0000
  C   C734      1.0  0.28589  0.70754  0.10511  1.0000
  S   S272      1.0  0.31011  0.56205  0.18872  1.0000
  C   C735      1.0  0.29086  0.60314  0.10991  1.0000
  C   C736      1.0  0.27494  0.60495  0.12003  1.0000
  H   H723      1.0  0.26504  0.61489  0.11614  1.0000
  C   C737      1.0  0.26688  0.66349  0.35961  1.0000
  C   C738      1.0  0.26061  0.65595  0.37587  1.0000
  C   C739      1.0  0.26559  0.65845  0.38896  1.0000
  C   C740      1.0  0.27722  0.66815  0.38589  1.0000
  C   C741      1.0  0.28342  0.67592  0.36963  1.0000
  C   C742      1.0  0.27820  0.67361  0.35647  1.0000
  H   H724      1.0  0.25213  0.64794  0.37833  1.0000
  H   H725      1.0  0.26062  0.65261  0.40152  1.0000
  H   H726      1.0  0.29239  0.68345  0.36717  1.0000
  H   H727      1.0  0.28309  0.67947  0.34389  1.0000
  C   C743      1.0  0.18336  0.68093  0.34291  1.0000
  C   C744      1.0  0.17497  0.68759  0.32997  1.0000
  S   S273      1.0  0.29029  0.71002  0.40848  1.0000
  C   C745      1.0  0.24863  0.68391  0.45182  1.0000
  C   C746      1.0  0.13356  0.71363  0.10766  1.0000
  C   C747      1.0  0.19437  0.68924  0.34484  1.0000
  H   H728      1.0  0.16653  0.68112  0.32839  1.0000
  H   H729      1.0  0.19891  0.66309  0.18292  1.0000
  C   C748      1.0  0.15465  0.62714  0.26578  1.0000
  H   H730      1.0  0.20089  0.68415  0.35481  1.0000
  C   C749      1.0  0.24336  0.55842  0.23688  1.0000
  C   C750      1.0  0.25435  0.56133  0.22158  1.0000
  H   H731      1.0  0.24984  0.56927  0.21089  1.0000
  C   C751      1.0  0.14868  0.58903  0.25257  1.0000
  C   C752      1.0  0.13568  0.60223  0.24829  1.0000
  C   C753      1.0  0.13900  0.61578  0.23524  1.0000
  C   C754      1.0  0.15531  0.61605  0.22646  1.0000
  C   C755      1.0  0.16816  0.60270  0.23059  1.0000
  C   C756      1.0  0.16487  0.58929  0.24360  1.0000
  H   H732      1.0  0.12310  0.60205  0.25516  1.0000
  H   H733      1.0  0.12899  0.62604  0.23207  1.0000
  H   H734      1.0  0.18075  0.60261  0.22374  1.0000
  H   H735      1.0  0.17495  0.57913  0.24660  1.0000
  C   C757      1.0  0.20318  0.56873  0.32329  1.0000
  C   C758      1.0  0.21312  0.57670  0.30927  1.0000
  C   C759      1.0  0.22227  0.58725  0.31090  1.0000
  C   C760      1.0  0.22126  0.59017  0.32645  1.0000
  C   C761      1.0  0.21035  0.58316  0.34025  1.0000
  C   C762      1.0  0.20147  0.57235  0.33868  1.0000
  H   H736      1.0  0.21444  0.57410  0.29733  1.0000
  H   H737      1.0  0.23067  0.59265  0.30016  1.0000
  H   H738      1.0  0.20953  0.58525  0.35230  1.0000
  H   H739      1.0  0.19369  0.56631  0.34956  1.0000
  H   H740      1.0  0.31051  0.56986  0.13480  1.0000
  C   C763      1.0  0.13165  0.71803  0.09129  1.0000
  Fe  Fe139     1.0  0.30727  0.72152  0.38599  1.0000
  H   H741      1.0  0.28964  0.72460  0.06609  1.0000
  H   H742      1.0  0.26361  0.57072  0.31963  1.0000
  H   H743      1.0  0.20978  0.68747  0.29486  1.0000
  H   H744      1.0  0.23819  0.61878  0.16273  1.0000
  H   H745      1.0  0.17696  0.62401  0.28321  1.0000
  C   C764      1.0  0.02830  0.68564  0.12568  1.0000
  C   C765      1.0  0.15069  0.59069  0.30135  1.0000
  C   C766      1.0  0.24301  0.50415  0.25275  1.0000
  H   H746      1.0  0.29739  0.53260  0.14935  1.0000
  C   C767      1.0  0.22676  0.61387  0.43927  1.0000
  C   C768      1.0  0.21782  0.63509  0.17542  1.0000
  H   H747      1.0  0.05775  0.64016  0.15899  1.0000
  H   H748      1.0  0.29922  0.50142  0.16982  1.0000
  C   C769      1.0  0.24409  0.69874  0.31961  1.0000
  H   H749      1.0  0.23161  0.54838  0.34568  1.0000
  C   C770      1.0  0.04500  0.67925  0.11968  1.0000
  Fe  Fe140     1.0  0.30990  0.53643  0.20428  1.0000
  H   H750      1.0  0.14582  0.70915  0.11041  1.0000
  C   C771      1.0  0.15127  0.69792  0.25071  1.0000
  C   C772      1.0  0.22748  0.53535  0.21742  1.0000
  H   H751      1.0  0.07112  0.65462  0.15431  1.0000
  H   H752      1.0  0.20547  0.62635  0.09461  1.0000
  C   C773      1.0  0.18049  0.65334  0.07936  1.0000
  C   C774      1.0  0.15989  0.65909  0.10921  1.0000
  C   C775      1.0  0.13112  0.71788  0.23628  1.0000
  C   C776      1.0  0.31060  0.72497  0.32823  1.0000
  H   H753      1.0  0.17172  0.70709  0.30847  1.0000
  H   H754      1.0  0.25330  0.54071  0.34643  1.0000
  H   H755      1.0  0.14262  0.71706  0.08137  1.0000
  C   C777      1.0  0.23243  0.51524  0.24293  1.0000
  H   H756      1.0  0.29353  0.63113  0.39596  1.0000
  C   C778      1.0  0.02145  0.68153  0.14256  1.0000
  H   H757      1.0  0.18222  0.60264  0.30831  1.0000
  C   C779      1.0  0.20408  0.63994  0.09264  1.0000
  C   C780      1.0  0.31451  0.72318  0.20717  1.0000
  C   C781      1.0  0.25929  0.56366  0.31362  1.0000
  H   H758      1.0  0.26211  0.71976  0.35626  1.0000
  H   H759      1.0  0.13830  0.60285  0.28141  1.0000
  H   H760      1.0  0.27066  0.53231  0.25962  1.0000
  H   H761      1.0  0.16392  0.62303  0.25502  1.0000
  H   H762      1.0  0.14096  0.67161  0.09528  1.0000
  C   C782      1.0  0.24315  0.54465  0.31508  1.0000
  H   H763      1.0  0.22487  0.70905  0.28162  1.0000
  H   H764      1.0  0.24290  0.53977  0.29190  1.0000
  C   C783      1.0  0.24596  0.71314  0.30757  1.0000
  S   S274      1.0  0.23004  0.65188  0.45699  1.0000
  H   H765      1.0  0.18113  0.64612  0.11953  1.0000
  C   C784      1.0  0.30051  0.57944  0.13064  1.0000
  H   H766      1.0  0.29377  0.61426  0.16852  1.0000
  C   C785      1.0  0.21911  0.68077  0.30248  1.0000
  C   C786      1.0  0.22905  0.61998  0.17416  1.0000
  C   C787      1.0  0.19347  0.65221  0.19003  1.0000
  H   H767      1.0  0.20890  0.64245  0.10223  1.0000
  C   C788      1.0  0.24926  0.54814  0.25065  1.0000
  C   C789      1.0  0.26612  0.54050  0.24904  1.0000
  H   H768      1.0  0.23787  0.49760  0.26502  1.0000
  N   N61       1.0  0.18663  0.64833  0.09342  1.0000
  S   S275      1.0  0.19761  0.71418  0.26634  1.0000
  N   N62       1.0  0.04784  0.66467  0.14722  1.0000
  C   C790      1.0  0.27398  0.61296  0.39298  1.0000
  H   H769      1.0  0.23235  0.65913  0.42221  1.0000
  C   C791      1.0  0.05804  0.65313  0.15846  1.0000
  C   C792      1.0  0.22962  0.63950  0.44394  1.0000
  C   C793      1.0  0.03143  0.67088  0.15322  1.0000
  N   N63       1.0  0.18712  0.65430  0.41272  1.0000
  C   C794      1.0  0.18935  0.64038  0.42498  1.0000
  C   C795      1.0  0.18112  0.65414  0.39964  1.0000
  C   C796      1.0  0.18574  0.62573  0.42422  1.0000
  C   C797      1.0  0.17722  0.63974  0.39858  1.0000
  C   C798      1.0  0.17971  0.62542  0.41088  1.0000
  C   C799      1.0  0.19222  0.66917  0.41296  1.0000
  H   H770      1.0  0.19446  0.64035  0.43519  1.0000
  H   H771      1.0  0.17961  0.66506  0.38973  1.0000
  H   H772      1.0  0.18819  0.61454  0.43361  1.0000
  H   H773      1.0  0.17267  0.63962  0.38805  1.0000
  H   H774      1.0  0.17726  0.61402  0.40992  1.0000
  Fe  Fe141     1.0  0.05114  0.72195  0.11627  1.0000
  H   H775      1.0  0.28109  0.62269  0.44887  1.0000
  H   H776      1.0  0.18307  0.68055  0.40896  1.0000
  C   C800      1.0  0.16396  0.66170  0.07984  1.0000
  S   S276      1.0  0.20207  0.49578  0.27750  1.0000
  H   H777      1.0  0.22471  0.52886  0.20935  1.0000
  C   C801      1.0  0.10239  0.72502  0.10039  1.0000
  H   H778      1.0  0.23298  0.54603  0.20969  1.0000
  N   N64       1.0  0.27645  0.61530  0.40828  1.0000
  H   H779      1.0  0.26278  0.60440  0.44975  1.0000
  C   C802      1.0  0.21909  0.71771  0.04813  1.0000
  H   H780      1.0  0.21852  0.64551  0.16492  1.0000
  S   S277      1.0  0.28019  0.56803  0.16014  1.0000
  H   H781      1.0  0.15203  0.66139  0.12098  1.0000
  H   H782      1.0  0.27204  0.57424  0.28922  1.0000
  C   C803      1.0  0.23523  0.68821  0.31770  1.0000
  H   H783      1.0  0.23617  0.68758  0.44960  1.0000
  C   C804      1.0  0.25817  0.55710  0.28851  1.0000
  H   H784      1.0  0.26053  0.52795  0.20919  1.0000
  C   C805      1.0  0.26013  0.50169  0.24667  1.0000
  C   C806      1.0  0.31053  0.70792  0.20932  1.0000
  C   C807      1.0  0.23032  0.70600  0.29227  1.0000
  H   H785      1.0  0.07424  0.70774  0.20154  1.0000
  C   C808      1.0  0.10386  0.72085  0.11687  1.0000
  H   H786      1.0  0.21205  0.67520  0.31470  1.0000
  H   H787      1.0  0.32047  0.72802  0.43989  1.0000
  C   C809      1.0  0.18876  0.71071  0.32072  1.0000
  C   C810      1.0  0.24368  0.71636  0.05721  1.0000
  C   C811      1.0  0.18947  0.48323  0.27601  1.0000
  H   H788      1.0  0.23674  0.59463  0.18673  1.0000
  H   H789      1.0  0.00849  0.68671  0.14728  1.0000
  H   H790      1.0  0.29540  0.62626  0.12952  1.0000
  H   H791      1.0  0.23465  0.53665  0.32224  1.0000
  C   C812      1.0  0.29863  0.70492  0.11331  1.0000
  S   S278      1.0  0.16515  0.69327  0.26359  1.0000
  H   H792      1.0  0.15783  0.67337  0.24589  1.0000
  H   H793      1.0  0.24277  0.69732  0.47108  1.0000
  H   H794      1.0  0.28650  0.66056  0.43873  1.0000
  C   C813      1.0  0.23509  0.70951  0.05007  1.0000
  C   C814      1.0  0.28694  0.62498  0.40772  1.0000
  C   C815      1.0  0.23079  0.64647  0.42703  1.0000
  H   H795      1.0  0.23375  0.67709  0.32717  1.0000
  H   H796      1.0  0.24077  0.69785  0.04618  1.0000
  H   H797      1.0  0.12552  0.72255  0.06226  1.0000
  C   C816      1.0  0.30469  0.48928  0.16709  1.0000
  C   C817      1.0  0.30729  0.61848  0.13149  1.0000
  H   H798      1.0  0.25607  0.70985  0.05877  1.0000
  C   C818      1.0  0.19678  0.70432  0.33396  1.0000
  C   C819      1.0  0.16304  0.59060  0.30901  1.0000
  C   C820      1.0  0.17789  0.70231  0.31871  1.0000
  H   H799      1.0  0.24086  0.54609  0.26248  1.0000
  C   C821      1.0  0.28001  0.62038  0.43750  1.0000
  H   H800      1.0  0.23135  0.64262  0.40326  1.0000
  C   C822      1.0  0.29578  0.67967  0.10028  1.0000
  C   C823      1.0  0.13073  0.70590  0.22829  1.0000
  H   H801      1.0  0.14359  0.58104  0.30594  1.0000
  C   C824      1.0  0.17226  0.48858  0.27814  1.0000
  C   C825      1.0  0.29395  0.60673  0.15985  1.0000
  C   C826      1.0  0.27173  0.59384  0.13525  1.0000
  C   C827      1.0  0.17246  0.60273  0.30252  1.0000
  C   C828      1.0  0.27112  0.55351  0.21991  1.0000
  H   H802      1.0  0.27937  0.55537  0.20793  1.0000
  N   N65       1.0  0.20587  0.63664  0.18950  1.0000
  C   C829      1.0  0.20479  0.62341  0.20264  1.0000
  H   H803      1.0  0.18811  0.65387  0.20294  1.0000
  C   C830      1.0  0.21597  0.60816  0.20193  1.0000
  H   H804      1.0  0.24014  0.72817  0.28455  1.0000
  H   H805      1.0  0.20519  0.71081  0.33555  1.0000
  C   C831      1.0  0.26644  0.51012  0.23081  1.0000
  H   H806      1.0  0.19513  0.62458  0.21369  1.0000
  H   H807      1.0  0.21566  0.54075  0.22528  1.0000
  H   H808      1.0  0.21503  0.59768  0.21239  1.0000
  C   C832      1.0  0.24422  0.55106  0.34075  1.0000
  H   H809      1.0  0.22783  0.67069  0.29672  1.0000
  H   H810      1.0  0.18315  0.65208  0.18467  1.0000
  H   H811      1.0  0.26005  0.59976  0.42357  1.0000
  H   H812      1.0  0.15588  0.63951  0.26638  1.0000
  C   C833      1.0  0.25549  0.52116  0.22136  1.0000
  C   C834      1.0  0.26819  0.60762  0.42315  1.0000
  H   H813      1.0  0.30432  0.70847  0.05675  1.0000
  C   C835      1.0  0.22769  0.62312  0.45005  1.0000
  C   C836      1.0  0.30361  0.59022  0.11514  1.0000
  N   N66       1.0  0.23874  0.52382  0.22758  1.0000
  H   H814      1.0  0.27943  0.59996  0.39167  1.0000
  H   H815      1.0  0.16636  0.50092  0.28022  1.0000
  C   C837      1.0  0.26974  0.61013  0.43798  1.0000
  H   H816      1.0  0.29975  0.71472  0.11816  1.0000
  H   H817      1.0  0.18854  0.65145  0.06755  1.0000
  S   S279      1.0  0.22673  0.60902  0.40907  1.0000
  C   C838      1.0  0.11954  0.71498  0.12051  1.0000
  S   S280      1.0  0.21309  0.53407  0.28173  1.0000
  H   H818      1.0  0.14210  0.62872  0.26358  1.0000
  S   S281      1.0  0.11902  0.71132  0.21324  1.0000
  C   C839      1.0  0.07901  0.71719  0.22021  1.0000
  C   C840      1.0  0.05462  0.66863  0.13067  1.0000
  H   H819      1.0  0.19324  0.66914  0.42556  1.0000
  H   H820      1.0  0.12081  0.71141  0.13328  1.0000
  S   S282      1.0  0.31599  0.69914  0.37474  1.0000
  H   H821      1.0  0.31985  0.62745  0.10648  1.0000
  C   C841      1.0  0.31010  0.68981  0.11485  1.0000
  H   H822      1.0  0.21230  0.71257  0.04259  1.0000
  S   S283      1.0  0.29897  0.72162  0.14854  1.0000
  S   S284      1.0  0.99228  0.71848  0.12734  1.0000
  H   H823      1.0  0.21914  0.51699  0.24774  1.0000
  H   H824      1.0  0.20453  0.66970  0.40447  1.0000
  C   C842      1.0  0.14158  0.71395  0.24732  1.0000
  H   H825      1.0  0.25273  0.72143  0.30892  1.0000
  H   H826      1.0  0.29737  0.48752  0.12141  1.0000
  H   H827      1.0  0.02070  0.69393  0.11729  1.0000
  Fe  Fe142     1.0  0.15845  0.72302  0.99168  1.0000
  H   H828      1.0  0.24941  0.69576  0.33040  1.0000
  H   H829      1.0  0.27975  0.50853  0.22606  1.0000
  H   H830      1.0  0.05363  0.65556  0.17116  1.0000
  H   H831      1.0  0.28495  0.51509  0.12830  1.0000
  H   H832      1.0  0.14928  0.48200  0.27976  1.0000
  Fe  Fe143     1.0  0.31236  0.70228  0.42013  1.0000
  H   H833      1.0  0.26051  0.61573  0.39321  1.0000
  C   C843      1.0  0.30866  0.67712  0.10839  1.0000
  C   C844      1.0  0.11422  0.72794  0.07073  1.0000
  H   H834      1.0  0.29404  0.59368  0.16669  1.0000
  H   H835      1.0  0.28195  0.48575  0.16391  1.0000
  N   N67       1.0  0.30859  0.60754  0.14625  1.0000
  C   C845      1.0  0.23901  0.71685  0.29382  1.0000
  Fe  Fe144     1.0  0.17208  0.71668  0.26302  1.0000
  C   C846      1.0  0.29813  0.51014  0.12739  1.0000
  H   H836      1.0  0.22664  0.61767  0.46313  1.0000
  C   C847      1.0  0.28008  0.67376  0.45840  1.0000
  C   C848      1.0  0.32198  0.71354  0.07480  1.0000
  H   H837      1.0  0.26853  0.49338  0.25423  1.0000
  C   C849      1.0  0.27884  0.73100  0.36194  1.0000
  H   H838      1.0  0.26461  0.71883  0.20544  1.0000
  N   N68       1.0  0.31471  0.72523  0.06304  1.0000
  C   C850      1.0  0.31926  0.72274  0.45299  1.0000
  H   H839      1.0  0.29237  0.71623  0.32186  1.0000
  C   C851      1.0  0.32115  0.61926  0.11838  1.0000
  H   H840      1.0  0.09284  0.72182  0.12676  1.0000
  C   C852      1.0  0.30015  0.53459  0.13565  1.0000
  H   H841      1.0  0.31046  0.68351  0.22484  1.0000
  C   C853      1.0  0.32165  0.48276  0.16619  1.0000
  H   H842      1.0  0.12366  0.73028  0.23367  1.0000
  H   H843      1.0  0.28163  0.72089  0.37217  1.0000
  H   H844      1.0  0.28232  0.61125  0.15518  1.0000
  C   C854      1.0  0.08448  0.72929  0.24045  1.0000
  H   H845      1.0  0.31173  0.71488  0.33894  1.0000
  Fe  Fe145     1.0  0.31172  0.71757  0.16915  1.0000
  S   S285      1.0  0.32175  0.67845  0.41134  1.0000
  C   C855      1.0  0.26768  0.73043  0.35302  1.0000
  H   H846      1.0  0.09012  0.72929  0.09769  1.0000
  C   C856      1.0  0.25240  0.68922  0.46403  1.0000
  H   H847      1.0  0.13368  0.71386  0.97464  1.0000
  H   H848      1.0  0.26781  0.72449  0.22982  1.0000
  C   C857      1.0  0.32128  0.72595  0.21893  1.0000
  H   H849      1.0  0.10382  0.72319  0.06971  1.0000
  N   N69       1.0  0.30772  0.51873  0.13061  1.0000
  H   H850      1.0  0.30053  0.72944  0.04486  1.0000
  S   S286      1.0  0.30901  0.69693  0.44791  1.0000
  H   H851      1.0  0.31893  0.70142  0.07911  1.0000
  H   H852      1.0  0.20945  0.71314  0.98494  1.0000
  C   C858      1.0  0.30508  0.49461  0.12336  1.0000
  N   N70       1.0  0.26793  0.68399  0.46729  1.0000
  H   H853      1.0  0.14789  0.72838  0.19055  1.0000
  C   C859      1.0  0.29967  0.72561  0.31857  1.0000
  H   H854      1.0  0.31314  0.66386  0.18611  1.0000
  H   H855      1.0  0.31757  0.66542  0.10948  1.0000
  N   N71       1.0  0.07946  0.73095  0.22503  1.0000
  Fe  Fe146     1.0  0.01409  0.73094  0.11758  1.0000
  N   N72       1.0  0.23653  0.73100  0.06224  1.0000
  C   C860      1.0  0.32191  0.48784  0.12275  1.0000
  S   S287      1.0  0.08307  0.69606  0.77776  1.0000
  Fe  Fe147     1.0  0.26418  0.63684  0.49892  1.0000
  S   S288      1.0  0.24142  0.65656  0.49559  1.0000
  S   S289      1.0  0.28855  0.64410  0.49431  1.0000
  Fe  Fe148     1.0  0.24595  0.60895  0.50750  1.0000
  S   S290      1.0  0.22165  0.62641  0.50468  1.0000
  S   S291      1.0  0.24616  0.58173  0.51575  1.0000
  C   C861      1.0  0.21483  0.60749  0.57493  1.0000
  S   S292      1.0  0.26050  0.62136  0.48360  1.0000
  Fe  Fe149     1.0  0.22873  0.64108  0.51857  1.0000
  S   S293      1.0  0.21168  0.64835  0.54167  1.0000
  C   C862      1.0  0.21018  0.71321  0.97185  1.0000
  S   S294      1.0  0.25198  0.62255  0.52302  1.0000
  Fe  Fe150     1.0  0.25612  0.50432  0.61962  1.0000
  S   S295      1.0  0.28240  0.50756  0.61105  1.0000
  S   S296      1.0  0.29463  0.70577  0.83933  1.0000
  Fe  Fe151     1.0  0.24284  0.53966  0.62533  1.0000
  S   S297      1.0  0.26798  0.54556  0.61721  1.0000
  S   S298      1.0  0.22131  0.56013  0.63259  1.0000
  Fe  Fe152     1.0  0.27158  0.53258  0.59683  1.0000
  S   S299      1.0  0.28535  0.54522  0.57244  1.0000
  Fe  Fe153     1.0  0.27645  0.52032  0.63209  1.0000
  S   S300      1.0  0.29370  0.51381  0.64946  1.0000
  S   S301      1.0  0.24553  0.52852  0.60370  1.0000
  S   S302      1.0  0.25099  0.51530  0.64185  1.0000
  C   C863      1.0  0.26456  0.59151  0.71960  1.0000
  S   S303      1.0  0.30269  0.73048  0.79416  1.0000
  S   S304      1.0  0.29339  0.57093  0.68277  1.0000
  S   S305      1.0  0.29295  0.54582  0.72669  1.0000
  Fe  Fe154     1.0  0.07476  0.67900  0.76772  1.0000
  S   S306      1.0  0.06330  0.66498  0.79260  1.0000
  S   S307      1.0  0.09164  0.66782  0.74651  1.0000
  C   C864      1.0  0.00143  0.67562  0.78619  1.0000
  Fe  Fe155     1.0  0.06994  0.68360  0.80241  1.0000
  C   C865      1.0  0.25483  0.57966  0.72609  1.0000
  S   S308      1.0  0.05069  0.69655  0.76363  1.0000
  H   H856      1.0  0.26810  0.52347  0.73556  1.0000
  H   H857      1.0  0.21599  0.72787  0.70519  1.0000
  S   S309      1.0  0.12866  0.69685  0.88133  1.0000
  Fe  Fe156     1.0  0.30623  0.56100  0.70407  1.0000
  H   H858      1.0  0.28257  0.68165  0.48446  1.0000
  S   S310      1.0  0.16266  0.70159  0.88830  1.0000
  C   C866      1.0  0.00798  0.66152  0.77940  1.0000
  Fe  Fe157     1.0  0.15612  0.68831  0.87282  1.0000
  S   S311      1.0  0.16653  0.66136  0.87219  1.0000
  C   C867      1.0  0.10798  0.70859  0.66727  1.0000
  S   S312      1.0  0.15860  0.70849  0.85007  1.0000
  H   H859      1.0  0.30449  0.58957  0.74736  1.0000
  Fe  Fe158     1.0  0.18062  0.63109  0.69224  1.0000
  S   S313      1.0  0.17267  0.61011  0.71235  1.0000
  S   S314      1.0  0.16544  0.64602  0.67383  1.0000
  Fe  Fe159     1.0  0.21137  0.62877  0.70371  1.0000
  S   S315      1.0  0.20611  0.60777  0.72516  1.0000
  S   S316      1.0  0.23504  0.63745  0.69838  1.0000
  Fe  Fe160     1.0  0.19965  0.59768  0.70688  1.0000
  S   S317      1.0  0.21056  0.57109  0.70499  1.0000
  Fe  Fe161     1.0  0.17973  0.62224  0.72861  1.0000
  S   S318      1.0  0.16365  0.62703  0.75310  1.0000
  S   S319      1.0  0.20696  0.61761  0.68520  1.0000
  S   S320      1.0  0.18563  0.64418  0.70885  1.0000
  C   C868      1.0  0.27175  0.69011  0.47978  1.0000
  Fe  Fe162     1.0  0.22976  0.68387  0.75634  1.0000
  S   S321      1.0  0.23459  0.65608  0.76250  1.0000
  S   S322      1.0  0.22122  0.69695  0.73279  1.0000
  Fe  Fe163     1.0  0.23725  0.68527  0.78810  1.0000
  S   S323      1.0  0.24241  0.65764  0.79699  1.0000
  S   S324      1.0  0.24013  0.70010  0.80443  1.0000
  Fe  Fe164     1.0  0.25649  0.65756  0.77092  1.0000
  S   S325      1.0  0.28236  0.64261  0.76446  1.0000
  Fe  Fe165     1.0  0.22004  0.65919  0.78780  1.0000
  S   S326      1.0  0.20135  0.64384  0.80241  1.0000
  S   S327      1.0  0.25293  0.68516  0.76261  1.0000
  S   S328      1.0  0.21349  0.68692  0.78111  1.0000
  H   H860      1.0  0.24672  0.60762  0.67189  1.0000
  H   H861      1.0  0.22547  0.56921  0.59780  1.0000
  C   C869      1.0  0.12433  0.68900  0.69187  1.0000
  C   C870      1.0  0.25638  0.68836  0.81411  1.0000
  C   C871      1.0  0.26797  0.67559  0.80740  1.0000
  C   C872      1.0  0.28080  0.66598  0.81528  1.0000
  C   C873      1.0  0.28227  0.66942  0.82968  1.0000
  C   C874      1.0  0.27055  0.68203  0.83651  1.0000
  C   C875      1.0  0.25761  0.69150  0.82874  1.0000
  H   H862      1.0  0.26735  0.67337  0.79587  1.0000
  H   H863      1.0  0.28990  0.65631  0.80990  1.0000
  H   H864      1.0  0.27148  0.68447  0.84784  1.0000
  H   H865      1.0  0.24858  0.70117  0.83415  1.0000
  C   C876      1.0  0.23195  0.65538  0.70569  1.0000
  C   C877      1.0  0.21691  0.66704  0.70612  1.0000
  C   C878      1.0  0.21379  0.68023  0.71397  1.0000
  C   C879      1.0  0.22573  0.68172  0.72136  1.0000
  C   C880      1.0  0.24099  0.67041  0.72039  1.0000
  C   C881      1.0  0.24416  0.65733  0.71242  1.0000
  H   H866      1.0  0.20762  0.66583  0.70056  1.0000
  H   H867      1.0  0.20197  0.68899  0.71471  1.0000
  H   H868      1.0  0.25027  0.67157  0.72606  1.0000
  H   H869      1.0  0.25581  0.64834  0.71213  1.0000
  C   C882      1.0  0.17665  0.66021  0.65979  1.0000
  C   C883      1.0  0.19216  0.66087  0.66153  1.0000
  C   C884      1.0  0.20093  0.67238  0.65022  1.0000
  C   C885      1.0  0.19393  0.68359  0.63749  1.0000
  C   C886      1.0  0.17829  0.68312  0.63603  1.0000
  C   C887      1.0  0.16987  0.67119  0.64690  1.0000
  H   H870      1.0  0.19750  0.65250  0.67151  1.0000
  H   H871      1.0  0.21305  0.67263  0.65140  1.0000
  H   H872      1.0  0.17268  0.69181  0.62647  1.0000
  H   H873      1.0  0.15817  0.67037  0.64524  1.0000
  C   C888      1.0  0.17591  0.65700  0.85254  1.0000
  C   C889      1.0  0.18270  0.66876  0.83952  1.0000
  C   C890      1.0  0.19059  0.66479  0.82408  1.0000
  C   C891      1.0  0.19130  0.64920  0.82151  1.0000
  C   C892      1.0  0.18419  0.63758  0.83442  1.0000
  C   C893      1.0  0.17673  0.64139  0.84997  1.0000
  H   H874      1.0  0.18243  0.68070  0.84149  1.0000
  H   H875      1.0  0.19612  0.67380  0.81421  1.0000
  H   H876      1.0  0.18475  0.62548  0.83250  1.0000
  H   H877      1.0  0.17149  0.63224  0.86000  1.0000
  C   C894      1.0  0.11233  0.65884  0.74811  1.0000
  C   C895      1.0  0.11705  0.65481  0.76327  1.0000
  C   C896      1.0  0.13304  0.64548  0.76467  1.0000
  C   C897      1.0  0.14443  0.64044  0.75085  1.0000
  C   C898      1.0  0.13995  0.64522  0.73553  1.0000
  C   C899      1.0  0.12389  0.65425  0.73421  1.0000
  H   H878      1.0  0.10818  0.65836  0.77404  1.0000
  H   H879      1.0  0.13648  0.64186  0.77652  1.0000
  H   H880      1.0  0.14863  0.64140  0.72480  1.0000
  H   H881      1.0  0.12026  0.65721  0.72251  1.0000
  C   C900      1.0  0.09100  0.69008  0.82890  1.0000
  C   C901      1.0  0.09679  0.70266  0.81621  1.0000
  C   C902      1.0  0.10503  0.71309  0.81945  1.0000
  C   C903      1.0  0.10744  0.71113  0.83540  1.0000
  C   C904      1.0  0.10184  0.69843  0.84804  1.0000
  C   C905      1.0  0.09366  0.68794  0.84479  1.0000
  C   C906      1.0  0.22983  0.69041  0.56678  1.0000
  H   H882      1.0  0.10349  0.69688  0.86042  1.0000
  H   H883      1.0  0.08922  0.67823  0.85468  1.0000
  S   S329      1.0  0.11629  0.72556  0.83933  1.0000
  C   C907      1.0  0.26548  0.52079  0.72506  1.0000
  C   C908      1.0  0.25829  0.50896  0.68325  1.0000
  Fe  Fe166     1.0  0.31224  0.71489  0.81638  1.0000
  H   H884      1.0  0.10725  0.70461  0.70784  1.0000
  Fe  Fe167     1.0  0.31064  0.68065  0.83774  1.0000
  C   C909      1.0  0.25510  0.70646  0.56251  1.0000
  C   C910      1.0  0.26294  0.52861  0.69662  1.0000
  H   H885      1.0  0.31305  0.51544  0.67084  1.0000
  H   H886      1.0  0.26500  0.71276  0.56072  1.0000
  C   C911      1.0  0.27958  0.59114  0.76202  1.0000
  H   H887      1.0  0.23850  0.72813  0.58493  1.0000
  C   C912      1.0  0.29509  0.61272  0.75536  1.0000
  C   C913      1.0  0.28154  0.62255  0.76410  1.0000
  C   C914      1.0  0.26725  0.61643  0.77229  1.0000
  C   C915      1.0  0.26642  0.60061  0.77150  1.0000
  C   C916      1.0  0.26227  0.50539  0.72625  1.0000
  H   H888      1.0  0.30626  0.61730  0.74925  1.0000
  H   H889      1.0  0.25689  0.62382  0.77937  1.0000
  H   H890      1.0  0.25551  0.59577  0.77814  1.0000
  C   C917      1.0  0.29404  0.53017  0.65783  1.0000
  C   C918      1.0  0.28343  0.54572  0.65460  1.0000
  C   C919      1.0  0.28349  0.55836  0.66202  1.0000
  C   C920      1.0  0.29400  0.55538  0.67286  1.0000
  C   C921      1.0  0.30460  0.53987  0.67604  1.0000
  C   C922      1.0  0.30472  0.52736  0.66843  1.0000
  H   H891      1.0  0.27499  0.54798  0.64662  1.0000
  H   H892      1.0  0.27521  0.57032  0.65954  1.0000
  H   H893      1.0  0.27163  0.59372  0.72713  1.0000
  H   H894      1.0  0.31665  0.64227  0.76570  1.0000
  C   C923      1.0  0.21866  0.56318  0.65266  1.0000
  C   C924      1.0  0.20761  0.57732  0.65737  1.0000
  C   C925      1.0  0.20517  0.57989  0.67337  1.0000
  C   C926      1.0  0.21357  0.56818  0.68483  1.0000
  C   C927      1.0  0.22454  0.55399  0.68018  1.0000
  C   C928      1.0  0.22726  0.55160  0.66407  1.0000
  H   H895      1.0  0.20086  0.58629  0.64867  1.0000
  H   H896      1.0  0.19649  0.59076  0.67691  1.0000
  H   H897      1.0  0.23089  0.54484  0.68906  1.0000
  H   H898      1.0  0.23577  0.54070  0.66056  1.0000
  C   C929      1.0  0.28959  0.65346  0.50963  1.0000
  C   C930      1.0  0.27701  0.65397  0.52391  1.0000
  C   C931      1.0  0.27854  0.66045  0.53654  1.0000
  C   C932      1.0  0.29236  0.66696  0.53471  1.0000
  C   C933      1.0  0.30463  0.66708  0.52014  1.0000
  C   C934      1.0  0.30336  0.66009  0.50771  1.0000
  H   H899      1.0  0.26628  0.64902  0.52544  1.0000
  S   S330      1.0  0.29998  0.65969  0.83770  1.0000
  H   H900      1.0  0.27610  0.60409  0.54860  1.0000
  S   S331      1.0  0.29495  0.67297  0.55156  1.0000
  C   C935      1.0  0.29135  0.62596  0.56603  1.0000
  H   H901      1.0  0.11615  0.71389  0.95600  1.0000
  C   C936      1.0  0.19014  0.69067  0.55805  1.0000
  H   H902      1.0  0.25780  0.48962  0.71319  1.0000
  C   C937      1.0  0.29931  0.49349  0.70366  1.0000
  H   H903      1.0  0.00269  0.64370  0.76919  1.0000
  C   C938      1.0  0.30904  0.66561  0.77345  1.0000
  Fe  Fe168     1.0  0.03969  0.68402  0.78926  1.0000
  S   S332      1.0  0.08057  0.67672  0.82537  1.0000
  C   C939      1.0  0.20615  0.66939  0.54273  1.0000
  C   C940      1.0  0.19474  0.67405  0.55667  1.0000
  C   C941      1.0  0.19702  0.70276  0.54559  1.0000
  C   C942      1.0  0.20838  0.69812  0.53157  1.0000
  C   C943      1.0  0.21298  0.68145  0.53015  1.0000
  H   H904      1.0  0.18927  0.66481  0.56636  1.0000
  H   H905      1.0  0.21366  0.70745  0.52184  1.0000
  H   H906      1.0  0.22175  0.67797  0.51935  1.0000
  C   C944      1.0  0.25727  0.57138  0.53130  1.0000
  C   C945      1.0  0.26999  0.57758  0.53299  1.0000
  C   C946      1.0  0.27863  0.56933  0.54560  1.0000
  C   C947      1.0  0.27422  0.55519  0.55688  1.0000
  C   C948      1.0  0.26146  0.54900  0.55524  1.0000
  C   C949      1.0  0.25320  0.55693  0.54225  1.0000
  H   H907      1.0  0.27344  0.58843  0.52429  1.0000
  H   H908      1.0  0.28876  0.57383  0.54668  1.0000
  H   H909      1.0  0.25828  0.53787  0.56371  1.0000
  H   H910      1.0  0.24351  0.55198  0.54082  1.0000
  H   H911      1.0  0.31317  0.63602  0.55454  1.0000
  H   H912      1.0  0.17546  0.71538  0.93347  1.0000
  Fe  Fe169     1.0  0.13542  0.71236  0.89478  1.0000
  Fe  Fe170     1.0  0.31280  0.70774  0.85255  1.0000
  N   N73       1.0  0.29775  0.61405  0.53748  1.0000
  H   H913      1.0  0.22792  0.56167  0.57145  1.0000
  C   C950      1.0  0.26536  0.60029  0.70320  1.0000
  H   H914      1.0  0.04177  0.72539  0.83859  1.0000
  H   H915      1.0  0.26913  0.66015  0.54789  1.0000
  N   N74       1.0  0.21651  0.65985  0.85133  1.0000
  C   C951      1.0  0.21987  0.67413  0.84051  1.0000
  C   C952      1.0  0.20778  0.66023  0.86717  1.0000
  C   C953      1.0  0.21392  0.68938  0.84529  1.0000
  C   C954      1.0  0.20174  0.67524  0.87239  1.0000
  C   C955      1.0  0.20476  0.68992  0.86133  1.0000
  C   C956      1.0  0.22270  0.64402  0.84603  1.0000
  H   H916      1.0  0.22688  0.67380  0.82801  1.0000
  H   H917      1.0  0.20491  0.64897  0.87573  1.0000
  H   H918      1.0  0.21626  0.70072  0.83653  1.0000
  H   H919      1.0  0.19441  0.67549  0.88482  1.0000
  H   H920      1.0  0.13089  0.68126  0.70136  1.0000
  H   H921      1.0  0.21432  0.63533  0.85268  1.0000
  H   H922      1.0  0.22317  0.64581  0.83263  1.0000
  H   H923      1.0  0.23534  0.63832  0.84832  1.0000
  C   C957      1.0  0.32073  0.65231  0.76775  1.0000
  H   H924      1.0  0.26852  0.54446  0.70888  1.0000
  C   C958      1.0  0.22446  0.70600  0.67999  1.0000
  N   N75       1.0  0.25660  0.59743  0.69360  1.0000
  C   C959      1.0  0.21788  0.69974  0.67043  1.0000
  Fe  Fe171     1.0  0.13138  0.71782  0.85919  1.0000
  H   H925      1.0  0.23826  0.56768  0.72107  1.0000
  H   H926      1.0  0.22277  0.68711  0.66871  1.0000
  H   H927      1.0  0.23447  0.69801  0.68570  1.0000
  H   H928      1.0  0.19991  0.70169  0.86513  1.0000
  H   H929      1.0  0.13769  0.69707  0.64065  1.0000
  H   H930      1.0  0.19978  0.72088  0.94377  1.0000
  S   S333      1.0  0.30206  0.71756  0.87569  1.0000
  C   C960      1.0  0.20484  0.70983  0.66323  1.0000
  C   C961      1.0  0.31606  0.70920  0.48702  1.0000
  N   N76       1.0  0.20346  0.63345  0.76169  1.0000
  C   C962      1.0  0.20642  0.61999  0.77424  1.0000
  C   C963      1.0  0.21459  0.63498  0.74684  1.0000
  C   C964      1.0  0.22058  0.60736  0.77188  1.0000
  C   C965      1.0  0.22893  0.62264  0.74409  1.0000
  C   C966      1.0  0.23183  0.60868  0.75665  1.0000
  C   C967      1.0  0.18886  0.64684  0.76445  1.0000
  H   H931      1.0  0.19789  0.61907  0.78621  1.0000
  H   H932      1.0  0.21245  0.64586  0.73711  1.0000
  H   H933      1.0  0.22294  0.59675  0.78188  1.0000
  H   H934      1.0  0.23776  0.62394  0.73233  1.0000
  H   H935      1.0  0.24291  0.59903  0.75467  1.0000
  H   H936      1.0  0.17865  0.64213  0.77414  1.0000
  H   H937      1.0  0.19219  0.65655  0.76839  1.0000
  H   H938      1.0  0.18397  0.65241  0.75301  1.0000
  N   N77       1.0  0.10601  0.62094  0.75819  1.0000
  C   C968      1.0  0.10066  0.62575  0.74370  1.0000
  C   C969      1.0  0.12171  0.61177  0.75873  1.0000
  C   C970      1.0  0.11125  0.62165  0.72915  1.0000
  C   C971      1.0  0.13262  0.60746  0.74442  1.0000
  C   C972      1.0  0.12734  0.61247  0.72954  1.0000
  C   C973      1.0  0.09464  0.62512  0.77337  1.0000
  H   H939      1.0  0.08831  0.63327  0.74322  1.0000
  H   H940      1.0  0.12609  0.60816  0.77013  1.0000
  H   H941      1.0  0.10712  0.62587  0.71759  1.0000
  H   H942      1.0  0.08575  0.63714  0.77055  1.0000
  H   H943      1.0  0.08758  0.61525  0.77976  1.0000
  H   H944      1.0  0.10149  0.62666  0.78186  1.0000
  N   N78       1.0  0.12082  0.69559  0.66390  1.0000
  C   C974      1.0  0.12910  0.68595  0.67590  1.0000
  H   H945      1.0  0.26324  0.53778  0.68512  1.0000
  N   N79       1.0  0.20403  0.72989  0.96264  1.0000
  H   H946      1.0  0.30571  0.70416  0.77624  1.0000
  C   C975      1.0  0.28431  0.61103  0.54988  1.0000
  H   H947      1.0  0.12868  0.67887  0.64763  1.0000
  H   H948      1.0  0.13944  0.67578  0.67318  1.0000
  H   H949      1.0  0.09282  0.72250  0.68560  1.0000
  H   H950      1.0  0.02077  0.65522  0.77915  1.0000
  C   C976      1.0  0.11112  0.70213  0.69547  1.0000
  H   H951      1.0  0.23519  0.71021  0.60132  1.0000
  C   C977      1.0  0.13895  0.71444  0.96159  1.0000
  H   H952      1.0  0.26250  0.49600  0.73762  1.0000
  Fe  Fe172     1.0  0.23665  0.64003  0.48192  1.0000
  N   N80       1.0  0.24298  0.70594  0.57669  1.0000
  S   S334      1.0  0.19187  0.72358  0.54742  1.0000
  C   C978      1.0  0.23042  0.69809  0.57890  1.0000
  H   H953      1.0  0.10934  0.72289  0.80959  1.0000
  C   C979      1.0  0.24213  0.69088  0.55229  1.0000
  H   H954      1.0  0.31539  0.67199  0.51872  1.0000
  C   C980      1.0  0.24311  0.71459  0.58912  1.0000
  H   H955      1.0  0.31010  0.61358  0.51227  1.0000
  H   H956      1.0  0.98965  0.65137  0.81564  1.0000
  S   S335      1.0  0.12709  0.72998  0.61871  1.0000
  C   C981      1.0  0.13579  0.71499  0.93409  1.0000
  H   H957      1.0  0.31311  0.65972  0.49667  1.0000
  C   C982      1.0  0.12624  0.69236  0.64718  1.0000
  H   H958      1.0  0.22383  0.48274  0.59999  1.0000
  H   H959      1.0  0.31305  0.48436  0.63669  1.0000
  C   C983      1.0  0.24716  0.58571  0.69981  1.0000
  Fe  Fe173     1.0  0.30659  0.69508  0.54536  1.0000
  H   H960      1.0  0.25998  0.61894  0.67461  1.0000
  C   C984      1.0  0.22285  0.57895  0.58717  1.0000
  H   H961      1.0  0.26890  0.59926  0.66846  1.0000
  N   N81       1.0  0.21820  0.59522  0.58835  1.0000
  S   S336      1.0  0.04545  0.70133  0.80135  1.0000
  N   N82       1.0  0.13962  0.67964  0.82570  1.0000
  C   C985      1.0  0.14011  0.67474  0.84209  1.0000
  C   C986      1.0  0.13224  0.67165  0.81899  1.0000
  C   C987      1.0  0.13302  0.66160  0.85227  1.0000
  C   C988      1.0  0.12479  0.65860  0.82886  1.0000
  C   C989      1.0  0.12523  0.65355  0.84560  1.0000
  C   C990      1.0  0.14768  0.69309  0.81523  1.0000
  H   H962      1.0  0.14593  0.68106  0.84743  1.0000
  H   H963      1.0  0.13172  0.67558  0.80602  1.0000
  H   H964      1.0  0.13355  0.65782  0.86526  1.0000
  H   H965      1.0  0.11834  0.65275  0.82364  1.0000
  H   H966      1.0  0.11936  0.64356  0.85343  1.0000
  H   H967      1.0  0.14240  0.69909  0.80408  1.0000
  H   H968      1.0  0.14573  0.70300  0.82204  1.0000
  H   H969      1.0  0.16120  0.68817  0.81133  1.0000
  C   C991      1.0  0.21637  0.59925  0.60432  1.0000
  H   H970      1.0  0.22764  0.59296  0.60940  1.0000
  H   H971      1.0  0.21440  0.61279  0.60333  1.0000
  H   H972      1.0  0.20565  0.59474  0.61335  1.0000
  N   N83       1.0  0.26016  0.51336  0.69779  1.0000
  C   C992      1.0  0.25959  0.50187  0.71241  1.0000
  S   S337      1.0  0.20465  0.69830  0.62362  1.0000
  H   H973      1.0  0.30606  0.51453  0.70718  1.0000
  H   H974      1.0  0.27313  0.60931  0.69814  1.0000
  C   C993      1.0  0.25815  0.60622  0.67624  1.0000
  H   H975      1.0  0.13579  0.60950  0.71828  1.0000
  C   C994      1.0  0.26575  0.53253  0.71016  1.0000
  H   H976      1.0  0.18104  0.69413  0.56864  1.0000
  S   S338      1.0  0.30559  0.70568  0.56665  1.0000
  H   H977      1.0  0.22199  0.58381  0.54688  1.0000
  S   S339      1.0  0.17172  0.70952  0.59529  1.0000
  H   H978      1.0  0.22324  0.70849  0.96594  1.0000
  Fe  Fe174     1.0  0.29832  0.56173  0.74034  1.0000
  H   H979      1.0  0.27042  0.72086  0.79814  1.0000
  H   H980      1.0  0.31483  0.70386  0.50012  1.0000
  H   H981      1.0  0.14526  0.60073  0.74479  1.0000
  H   H982      1.0  0.31284  0.53755  0.68426  1.0000
  H   H983      1.0  0.25971  0.51912  0.67207  1.0000
  C   C995      1.0  0.29406  0.59707  0.75420  1.0000
  Fe  Fe175     1.0  0.18815  0.71617  0.60747  1.0000
  H   H984      1.0  0.21101  0.62044  0.57575  1.0000
  H   H985      1.0  0.26809  0.49795  0.68043  1.0000
  H   H986      1.0  0.25430  0.57263  0.73873  1.0000
  Fe  Fe176     1.0  0.31812  0.53009  0.72864  1.0000
  H   H987      1.0  0.27011  0.61472  0.57404  1.0000
  H   H988      1.0  0.09490  0.70439  0.80390  1.0000
  N   N84       1.0  0.21820  0.72186  0.68232  1.0000
  H   H989      1.0  0.29441  0.50038  0.69288  1.0000
  H   H990      1.0  0.29596  0.66563  0.77576  1.0000
  C   C996      1.0  0.30586  0.50152  0.71175  1.0000
  H   H991      1.0  0.11674  0.69871  0.63965  1.0000
  H   H992      1.0  0.24588  0.50620  0.68547  1.0000
  Fe  Fe177     1.0  0.05809  0.71237  0.77592  1.0000
  C   C997      1.0  0.22425  0.57460  0.57229  1.0000
  C   C998      1.0  0.25491  0.69888  0.55014  1.0000
  H   H993      1.0  0.25591  0.71250  0.59090  1.0000
  S   S340      1.0  0.01259  0.68182  0.79712  1.0000
  H   H994      1.0  0.28958  0.61026  0.51795  1.0000
  Fe  Fe178     1.0  0.31953  0.72352  0.52034  1.0000
  H   H995      1.0  0.24049  0.58322  0.69208  1.0000
  S   S341      1.0  0.30964  0.57834  0.71747  1.0000
  H   H996      1.0  0.07171  0.71931  0.74401  1.0000
  C   C999      1.0  0.15248  0.71569  0.92783  1.0000
  S   S342      1.0  0.27730  0.57242  0.75931  1.0000
  H   H997      1.0  0.21357  0.61327  0.54917  1.0000
  C   C1000     1.0  0.15579  0.71451  0.95535  1.0000
  S   S343      1.0  0.16899  0.71329  0.96828  1.0000
  S   S344      1.0  0.12294  0.71556  0.92096  1.0000
  Fe  Fe179     1.0  0.16251  0.72280  0.86632  1.0000
  Fe  Fe180     1.0  0.18107  0.72824  0.57320  1.0000
  H   H998      1.0  0.24172  0.68506  0.54276  1.0000
  C   C1001     1.0  0.22092  0.58700  0.55853  1.0000
  H   H999      1.0  0.31878  0.62521  0.52930  1.0000
  C   C1002     1.0  0.21621  0.60355  0.55982  1.0000
  C   C1003     1.0  0.10295  0.71209  0.68306  1.0000
  H   H1000     1.0  0.30001  0.69011  0.79565  1.0000
  C   C1004     1.0  0.24598  0.57678  0.71619  1.0000
  H   H1001     1.0  0.21980  0.68430  0.56856  1.0000
  C   C1005     1.0  0.16248  0.71520  0.93844  1.0000
  C   C1006     1.0  0.99765  0.65493  0.77388  1.0000
  C   C1007     1.0  0.30111  0.60757  0.52254  1.0000
  H   H1002     1.0  0.19965  0.70519  0.65572  1.0000
  C   C1008     1.0  0.12905  0.71441  0.95103  1.0000
  H   H1003     1.0  0.30794  0.68979  0.48226  1.0000
  H   H1004     1.0  0.26468  0.69916  0.53902  1.0000
  C   C1009     1.0  0.30823  0.62263  0.53918  1.0000
  S   S345      1.0  0.29387  0.71895  0.53135  1.0000
  C   C1010     1.0  0.28087  0.61699  0.56431  1.0000
  H   H1005     1.0  0.06024  0.71337  0.84597  1.0000
  H   H1006     1.0  0.22068  0.69779  0.59003  1.0000
  H   H1007     1.0  0.15774  0.71661  0.91481  1.0000
  H   H1008     1.0  0.10153  0.71629  0.65772  1.0000
  C   C1011     1.0  0.31242  0.49263  0.72556  1.0000
  C   C1012     1.0  0.19850  0.72595  0.66572  1.0000
  C   C1013     1.0  0.05509  0.71968  0.83478  1.0000
  C   C1014     1.0  0.30519  0.62870  0.55346  1.0000
  H   H1009     1.0  0.23692  0.72042  0.69503  1.0000
  H   H1010     1.0  0.31765  0.72244  0.59054  1.0000
  H   H1011     1.0  0.26117  0.69088  0.49062  1.0000
  H   H1012     1.0  0.28868  0.63101  0.57696  1.0000
  H   H1013     1.0  0.03125  0.73052  0.74561  1.0000
  C   C1015     1.0  0.31210  0.70127  0.47688  1.0000
  H   H1014     1.0  0.20253  0.70457  0.97208  1.0000
  H   H1015     1.0  0.30606  0.59396  0.52526  1.0000
  H   H1016     1.0  0.05629  0.70979  0.82821  1.0000
  H   H1017     1.0  0.07704  0.72515  0.71358  1.0000
  H   H1018     1.0  0.28951  0.69363  0.77912  1.0000
  C   C1016     1.0  0.30170  0.69222  0.78203  1.0000
  C   C1017     1.0  0.22468  0.72812  0.69291  1.0000
  N   N85       1.0  0.31403  0.67842  0.77589  1.0000
  Fe  Fe181     1.0  0.29460  0.72988  0.55185  1.0000
  C   C1018     1.0  0.32175  0.72389  0.48022  1.0000
  H   H1019     1.0  0.03435  0.72929  0.71651  1.0000
  Fe  Fe182     1.0  0.15276  0.73133  0.60338  1.0000
  S   S346      1.0  0.32203  0.50202  0.73508  1.0000
  H   H1020     1.0  0.27483  0.70250  0.47425  1.0000
  Fe  Fe183     1.0  0.03719  0.75110  0.09177  1.0000
  S   S347      1.0  0.26351  0.80905  0.03631  1.0000
  S   S348      1.0  0.01561  0.83092  0.20915  1.0000
  C   C1019     1.0  0.28192  0.76508  0.08019  1.0000
  N   N86       1.0  0.25004  0.97211  0.15997  1.0000
  C   C1020     1.0  0.31828  0.74067  0.05786  1.0000
  C   C1021     1.0  0.05841  0.76361  0.05070  1.0000
  S   S349      1.0  0.06101  0.82755  0.18436  1.0000
  Fe  Fe184     1.0  0.07040  0.79551  0.22371  1.0000
  S   S350      1.0  0.09024  0.80172  0.20150  1.0000
  S   S351      1.0  0.07853  0.77382  0.24335  1.0000
  Fe  Fe185     1.0  0.07680  0.82809  0.20117  1.0000
  S   S352      1.0  0.09196  0.84786  0.19455  1.0000
  Fe  Fe186     1.0  0.07274  0.80045  0.18714  1.0000
  S   S353      1.0  0.08204  0.78580  0.16707  1.0000
  S   S354      1.0  0.05783  0.82207  0.22457  1.0000
  S   S355      1.0  0.05382  0.79230  0.20946  1.0000
  Fe  Fe187     1.0  0.13489  0.88903  0.23653  1.0000
  S   S356      1.0  0.16137  0.87812  0.22613  1.0000
  S   S357      1.0  0.11605  0.87265  0.24480  1.0000
  Fe  Fe188     1.0  0.14262  0.92258  0.23530  1.0000
  S   S358      1.0  0.16947  0.91410  0.22443  1.0000
  Fe  Fe189     1.0  0.16082  0.90295  0.20858  1.0000
  S   S359      1.0  0.17220  0.90682  0.18135  1.0000
  Fe  Fe190     1.0  0.16737  0.89030  0.24297  1.0000
  S   S360      1.0  0.18755  0.87968  0.25710  1.0000
  S   S361      1.0  0.13379  0.91327  0.21784  1.0000
  S   S362      1.0  0.14098  0.89930  0.25508  1.0000
  C   C1022     1.0  0.30090  0.83210  0.17160  1.0000
  H   H1021     1.0  0.10990  0.73914  0.18675  1.0000
  N   N87       1.0  0.01225  0.81411  0.15006  1.0000
  C   C1023     1.0  0.30750  0.79454  0.27349  1.0000
  H   H1022     1.0  0.26766  0.95014  0.16731  1.0000
  Fe  Fe191     1.0  0.03037  0.75316  0.12760  1.0000
  Fe  Fe192     1.0  0.25211  0.80017  0.29873  1.0000
  S   S363      1.0  0.23206  0.79021  0.31868  1.0000
  S   S364      1.0  0.26716  0.81444  0.30454  1.0000
  Fe  Fe193     1.0  0.24844  0.78323  0.27385  1.0000
  S   S365      1.0  0.22845  0.77129  0.29186  1.0000
  S   S366      1.0  0.25679  0.78285  0.24688  1.0000
  Fe  Fe194     1.0  0.21834  0.79619  0.29837  1.0000
  S   S367      1.0  0.19114  0.80707  0.29994  1.0000
  Fe  Fe195     1.0  0.24422  0.76646  0.31026  1.0000
  S   S368      1.0  0.24973  0.74276  0.32889  1.0000
  S   S369      1.0  0.23738  0.80848  0.27910  1.0000
  S   S370      1.0  0.26523  0.77594  0.29156  1.0000
  H   H1023     1.0  0.22585  0.73985  0.25665  1.0000
  S   S371      1.0  0.14684  0.77891  0.25317  1.0000
  C   C1024     1.0  0.00883  0.80361  0.20347  1.0000
  C   C1025     1.0  0.17761  0.80976  0.00139  1.0000
  C   C1026     1.0  0.24187  0.79014  0.98584  1.0000
  S   S372      1.0  0.29947  0.74603  0.36927  1.0000
  S   S373      1.0  0.02451  0.76873  0.14652  1.0000
  S   S374      1.0  0.14879  0.75033  0.98835  1.0000
  Fe  Fe196     1.0  0.16334  0.75386  0.25926  1.0000
  S   S375      1.0  0.18154  0.76680  0.99903  1.0000
  Fe  Fe197     1.0  0.25916  0.78410  0.05138  1.0000
  S   S376      1.0  0.23623  0.79396  0.06880  1.0000
  C   C1027     1.0  0.08675  0.75983  0.02490  1.0000
  Fe  Fe198     1.0  0.22290  0.79270  0.05038  1.0000
  S   S377      1.0  0.19925  0.78348  0.05807  1.0000
  Fe  Fe199     1.0  0.23958  0.81881  0.05287  1.0000
  S   S378      1.0  0.23382  0.84030  0.06550  1.0000
  Fe  Fe200     1.0  0.25999  0.86965  0.14518  1.0000
  S   S379      1.0  0.25837  0.88598  0.12018  1.0000
  S   S380      1.0  0.24080  0.85736  0.16410  1.0000
  Fe  Fe201     1.0  0.29633  0.86807  0.14062  1.0000
  S   S381      1.0  0.29838  0.88432  0.11506  1.0000
  H   H1024     1.0  0.07479  0.75735  0.21978  1.0000
  Fe  Fe202     1.0  0.27420  0.89983  0.12611  1.0000
  Fe  Fe203     1.0  0.28251  0.86940  0.11105  1.0000
  S   S382      1.0  0.28985  0.85577  0.09021  1.0000
  S   S383      1.0  0.27353  0.88472  0.15202  1.0000
  S   S384      1.0  0.28270  0.85196  0.13558  1.0000
  C   C1028     1.0  0.29014  0.93541  0.13281  1.0000
  C   C1029     1.0  0.29740  0.94664  0.13617  1.0000
  H   H1025     1.0  0.29475  0.92218  0.13645  1.0000
  H   H1026     1.0  0.12423  0.95449  0.28344  1.0000
  C   C1030     1.0  0.24980  0.84505  0.07134  1.0000
  C   C1031     1.0  0.24596  0.85810  0.07956  1.0000
  C   C1032     1.0  0.25809  0.86138  0.08557  1.0000
  C   C1033     1.0  0.27429  0.85196  0.08292  1.0000
  C   C1034     1.0  0.27825  0.83917  0.07432  1.0000
  C   C1035     1.0  0.26600  0.83558  0.06873  1.0000
  H   H1027     1.0  0.23351  0.86561  0.08142  1.0000
  H   H1028     1.0  0.25498  0.87142  0.09195  1.0000
  H   H1029     1.0  0.29080  0.83197  0.07200  1.0000
  H   H1030     1.0  0.26910  0.82554  0.06236  1.0000
  C   C1036     1.0  0.18711  0.76967  0.01598  1.0000
  C   C1037     1.0  0.20154  0.77541  0.01335  1.0000
  C   C1038     1.0  0.20538  0.77955  0.02626  1.0000
  C   C1039     1.0  0.19485  0.77784  0.04193  1.0000
  C   C1040     1.0  0.18056  0.77175  0.04470  1.0000
  C   C1041     1.0  0.17671  0.76761  0.03174  1.0000
  H   H1031     1.0  0.20952  0.77715  0.00118  1.0000
  H   H1032     1.0  0.21619  0.78460  0.02388  1.0000
  H   H1033     1.0  0.17234  0.77048  0.05680  1.0000
  H   H1034     1.0  0.16544  0.76339  0.03383  1.0000
  H   H1035     1.0  0.07203  0.77919  0.00976  1.0000
  Fe  Fe204     1.0  0.04298  0.81944  0.20782  1.0000
  C   C1042     1.0  0.27755  0.78048  0.08467  1.0000
  H   H1036     1.0  0.30496  0.80045  0.10583  1.0000
  H   H1037     1.0  0.31225  0.94795  0.10063  1.0000
  C   C1043     1.0  0.24626  0.77148  0.24097  1.0000
  C   C1044     1.0  0.24513  0.77476  0.22445  1.0000
  C   C1045     1.0  0.23709  0.76540  0.21952  1.0000
  C   C1046     1.0  0.23009  0.75287  0.23115  1.0000
  C   C1047     1.0  0.23114  0.74965  0.24768  1.0000
  C   C1048     1.0  0.23935  0.75888  0.25255  1.0000
  H   H1038     1.0  0.25059  0.78442  0.21544  1.0000
  C   C1049     1.0  0.31490  0.80285  0.13108  1.0000
  H   H1039     1.0  0.25106  0.73842  0.19909  1.0000
  H   H1040     1.0  0.24071  0.75594  0.26515  1.0000
  C   C1050     1.0  0.16999  0.91261  0.27370  1.0000
  H   H1041     1.0  0.10847  0.77080  0.19370  1.0000
  S   S385      1.0  0.17381  0.73770  0.24076  1.0000
  C   C1051     1.0  0.31149  0.80882  0.19208  1.0000
  C   C1052     1.0  0.31989  0.79068  0.28240  1.0000
  S   S386      1.0  0.31747  0.85673  0.15370  1.0000
  H   H1042     1.0  0.30079  0.74193  0.11156  1.0000
  H   H1043     1.0  0.30770  0.94196  0.14230  1.0000
  H   H1044     1.0  0.06404  0.86894  0.21375  1.0000
  H   H1045     1.0  0.21275  0.82073  0.97778  1.0000
  C   C1053     1.0  0.02681  0.82706  0.16134  1.0000
  H   H1046     1.0  0.31211  0.75013  0.04893  1.0000
  C   C1054     1.0  0.29139  0.80246  0.28004  1.0000
  C   C1055     1.0  0.28773  0.80680  0.29535  1.0000
  C   C1056     1.0  0.30032  0.80372  0.30388  1.0000
  C   C1057     1.0  0.12641  0.76757  0.20809  1.0000
  H   H1047     1.0  0.23617  0.76796  0.20675  1.0000
  H   H1048     1.0  0.28172  0.80506  0.27331  1.0000
  H   H1049     1.0  0.29752  0.80707  0.31571  1.0000
  H   H1050     1.0  0.11561  0.75634  0.17047  1.0000
  C   C1058     1.0  0.19134  0.89312  0.17670  1.0000
  C   C1059     1.0  0.20336  0.89805  0.16275  1.0000
  C   C1060     1.0  0.21875  0.88723  0.15898  1.0000
  C   C1061     1.0  0.22193  0.87130  0.16890  1.0000
  C   C1062     1.0  0.20984  0.86628  0.18267  1.0000
  C   C1063     1.0  0.19464  0.87723  0.18665  1.0000
  H   H1051     1.0  0.20083  0.91032  0.15501  1.0000
  H   H1052     1.0  0.22804  0.89119  0.14833  1.0000
  H   H1053     1.0  0.21222  0.85393  0.19029  1.0000
  H   H1054     1.0  0.18533  0.87323  0.19718  1.0000
  C   C1064     1.0  0.99761  0.80767  0.15172  1.0000
  C   C1065     1.0  0.16227  0.95410  0.24214  1.0000
  N   N88       1.0  0.31342  0.81494  0.11708  1.0000
  H   H1055     1.0  0.16798  0.94204  0.23932  1.0000
  C   C1066     1.0  0.18705  0.86029  0.27048  1.0000
  C   C1067     1.0  0.20018  0.85258  0.27845  1.0000
  C   C1068     1.0  0.20089  0.83655  0.28824  1.0000
  C   C1069     1.0  0.18861  0.82806  0.28994  1.0000
  C   C1070     1.0  0.17497  0.83606  0.28267  1.0000
  C   C1071     1.0  0.17419  0.85223  0.27289  1.0000
  H   H1056     1.0  0.20999  0.85891  0.27684  1.0000
  H   H1057     1.0  0.21101  0.83077  0.29448  1.0000
  H   H1058     1.0  0.16531  0.82960  0.28416  1.0000
  H   H1059     1.0  0.16385  0.85832  0.26698  1.0000
  C   C1072     1.0  0.06624  0.78025  0.16177  1.0000
  C   C1073     1.0  0.04980  0.78418  0.17031  1.0000
  C   C1074     1.0  0.03728  0.77971  0.16607  1.0000
  C   C1075     1.0  0.04099  0.77173  0.15294  1.0000
  C   C1076     1.0  0.05748  0.76752  0.14453  1.0000
  C   C1077     1.0  0.07011  0.77170  0.14901  1.0000
  H   H1060     1.0  0.04659  0.79096  0.17997  1.0000
  H   H1061     1.0  0.02458  0.78296  0.17263  1.0000
  H   H1062     1.0  0.06045  0.76139  0.13436  1.0000
  H   H1063     1.0  0.08282  0.76860  0.14237  1.0000
  C   C1078     1.0  0.09717  0.77533  0.24679  1.0000
  C   C1079     1.0  0.10776  0.76110  0.25366  1.0000
  C   C1080     1.0  0.12308  0.76214  0.25563  1.0000
  C   C1081     1.0  0.12768  0.77746  0.25095  1.0000
  C   C1082     1.0  0.11701  0.79171  0.24426  1.0000
  C   C1083     1.0  0.10181  0.79063  0.24208  1.0000
  H   H1064     1.0  0.10421  0.74924  0.25732  1.0000
  H   H1065     1.0  0.13127  0.75111  0.26083  1.0000
  H   H1066     1.0  0.12053  0.80359  0.24063  1.0000
  H   H1067     1.0  0.09364  0.80168  0.23684  1.0000
  C   C1084     1.0  0.10108  0.85168  0.20885  1.0000
  C   C1085     1.0  0.11299  0.86153  0.20293  1.0000
  C   C1086     1.0  0.11847  0.86723  0.21390  1.0000
  C   C1087     1.0  0.11191  0.86326  0.23090  1.0000
  C   C1088     1.0  0.10066  0.85268  0.23690  1.0000
  C   C1089     1.0  0.09537  0.84678  0.22593  1.0000
  H   H1068     1.0  0.11755  0.86530  0.18974  1.0000
  H   H1069     1.0  0.12720  0.87529  0.20913  1.0000
  H   H1070     1.0  0.09562  0.84944  0.25005  1.0000
  H   H1071     1.0  0.08628  0.83910  0.23067  1.0000
  C   C1090     1.0  0.28608  0.74475  0.35778  1.0000
  C   C1091     1.0  0.14101  0.75773  0.21257  1.0000
  H   H1072     1.0  0.16744  0.81184  0.02684  1.0000
  C   C1092     1.0  0.26362  0.74365  0.34004  1.0000
  C   C1093     1.0  0.27090  0.75737  0.33589  1.0000
  C   C1094     1.0  0.28227  0.75781  0.34460  1.0000
  H   H1073     1.0  0.12949  0.73629  0.17223  1.0000
  H   H1074     1.0  0.13816  0.92752  0.27595  1.0000
  H   H1075     1.0  0.26786  0.76765  0.32591  1.0000
  H   H1076     1.0  0.28799  0.76838  0.34117  1.0000
  C   C1095     1.0  0.20264  0.81902  0.98840  1.0000
  C   C1096     1.0  0.00285  0.81997  0.20542  1.0000
  C   C1097     1.0  0.27823  0.75395  0.19649  1.0000
  N   N89       1.0  0.27223  0.74033  0.20592  1.0000
  C   C1098     1.0  0.31640  0.79556  0.29743  1.0000
  N   N90       1.0  0.19031  0.81208  0.98789  1.0000
  C   C1099     1.0  0.28598  0.75732  0.22003  1.0000
  H   H1077     1.0  0.99710  0.80534  0.13983  1.0000
  H   H1078     1.0  0.99807  0.79569  0.16098  1.0000
  C   C1100     1.0  0.12038  0.74511  0.17942  1.0000
  H   H1079     1.0  0.14050  0.97085  0.28998  1.0000
  H   H1080     1.0  0.09327  0.75399  0.97932  1.0000
  H   H1081     1.0  0.20722  0.74224  0.97959  1.0000
  H   H1082     1.0  0.28994  0.77347  0.19596  1.0000
  C   C1101     1.0  0.28524  0.76262  0.20338  1.0000
  C   C1102     1.0  0.22070  0.73891  0.06073  1.0000
  H   H1083     1.0  0.31196  0.73301  0.19669  1.0000
  H   H1084     1.0  0.16180  0.90356  0.27802  1.0000
  N   N91       1.0  0.27691  0.84618  0.20369  1.0000
  C   C1103     1.0  0.26326  0.84801  0.19759  1.0000
  C   C1104     1.0  0.28113  0.83271  0.21582  1.0000
  C   C1105     1.0  0.25368  0.83596  0.20333  1.0000
  C   C1106     1.0  0.27186  0.82039  0.22180  1.0000
  C   C1107     1.0  0.25806  0.82205  0.21549  1.0000
  C   C1108     1.0  0.28672  0.85901  0.19759  1.0000
  H   H1085     1.0  0.25979  0.85873  0.18805  1.0000
  H   H1086     1.0  0.29200  0.83114  0.22062  1.0000
  H   H1087     1.0  0.24302  0.83739  0.19823  1.0000
  H   H1088     1.0  0.27555  0.80946  0.23104  1.0000
  H   H1089     1.0  0.25087  0.81251  0.22000  1.0000
  H   H1090     1.0  0.28133  0.86892  0.20474  1.0000
  H   H1091     1.0  0.29984  0.85373  0.19861  1.0000
  H   H1092     1.0  0.28706  0.86457  0.18424  1.0000
  S   S387      1.0  0.25115  0.81554  0.99276  1.0000
  C   C1109     1.0  0.23641  0.97881  0.15317  1.0000
  C   C1110     1.0  0.22873  0.96866  0.14891  1.0000
  H   H1093     1.0  0.09805  0.74067  0.04292  1.0000
  H   H1094     1.0  0.27756  0.75821  0.18357  1.0000
  S   S388      1.0  0.05394  0.74840  0.10860  1.0000
  H   H1095     1.0  0.18987  0.82427  0.02800  1.0000
  H   H1096     1.0  0.21274  0.82871  0.00314  1.0000
  H   H1097     1.0  0.19932  0.73889  0.05221  1.0000
  C   C1111     1.0  0.11991  0.76323  0.19706  1.0000
  H   H1098     1.0  0.18404  0.93268  0.28152  1.0000
  C   C1112     1.0  0.17077  0.93707  0.28264  1.0000
  C   C1113     1.0  0.06976  0.74845  0.20109  1.0000
  C   C1114     1.0  0.24906  0.94487  0.15849  1.0000
  C   C1115     1.0  0.23517  0.95158  0.15155  1.0000
  N   N92       1.0  0.16682  0.76925  0.30888  1.0000
  C   C1116     1.0  0.16263  0.78274  0.29679  1.0000
  C   C1117     1.0  0.15762  0.75730  0.31474  1.0000
  C   C1118     1.0  0.14900  0.78446  0.29013  1.0000
  C   C1119     1.0  0.14391  0.75863  0.30835  1.0000
  C   C1120     1.0  0.13965  0.77227  0.29589  1.0000
  C   C1121     1.0  0.18120  0.76784  0.31557  1.0000
  H   H1099     1.0  0.16992  0.79220  0.29215  1.0000
  H   H1100     1.0  0.16108  0.74646  0.32415  1.0000
  H   H1101     1.0  0.14584  0.79501  0.28034  1.0000
  H   H1102     1.0  0.13686  0.74896  0.31276  1.0000
  H   H1103     1.0  0.12931  0.77328  0.29048  1.0000
  H   H1104     1.0  0.18405  0.75582  0.32439  1.0000
  H   H1105     1.0  0.19235  0.76859  0.30536  1.0000
  H   H1106     1.0  0.17895  0.77807  0.32201  1.0000
  N   N93       1.0  0.23480  0.83409  0.11421  1.0000
  C   C1122     1.0  0.22031  0.83842  0.10884  1.0000
  C   C1123     1.0  0.23754  0.84318  0.12360  1.0000
  C   C1124     1.0  0.20829  0.85241  0.11250  1.0000
  C   C1125     1.0  0.22576  0.85723  0.12750  1.0000
  C   C1126     1.0  0.21106  0.86186  0.12190  1.0000
  C   C1127     1.0  0.24737  0.81946  0.11021  1.0000
  H   H1107     1.0  0.21820  0.83135  0.10121  1.0000
  H   H1108     1.0  0.24898  0.83977  0.12793  1.0000
  H   H1109     1.0  0.19702  0.85601  0.10785  1.0000
  H   H1110     1.0  0.22805  0.86453  0.13476  1.0000
  H   H1111     1.0  0.20190  0.87280  0.12481  1.0000
  H   H1112     1.0  0.25995  0.82217  0.10668  1.0000
  H   H1113     1.0  0.24670  0.80883  0.12099  1.0000
  H   H1114     1.0  0.24568  0.81583  0.09942  1.0000
  H   H1115     1.0  0.17055  0.95987  0.28887  1.0000
  H   H1116     1.0  0.24208  0.78372  0.99850  1.0000
  C   C1128     1.0  0.02608  0.81075  0.13798  1.0000
  H   H1117     1.0  0.00153  0.82490  0.17111  1.0000
  C   C1129     1.0  0.04067  0.81540  0.13735  1.0000
  C   C1130     1.0  0.04103  0.82349  0.14920  1.0000
  H   H1118     1.0  0.22963  0.94356  0.14793  1.0000
  H   H1119     1.0  0.17349  0.91513  0.25997  1.0000
  C   C1131     1.0  0.31946  0.95785  0.09671  1.0000
  N   N94       1.0  0.16170  0.92810  0.27921  1.0000
  H   H1120     1.0  0.05180  0.81208  0.12818  1.0000
  H   H1121     1.0  0.05244  0.82661  0.14922  1.0000
  C   C1132     1.0  0.28157  0.78188  0.09894  1.0000
  C   C1133     1.0  0.07472  0.74644  0.21579  1.0000
  S   S389      1.0  0.32003  0.74174  0.16001  1.0000
  C   C1134     1.0  0.14514  0.93415  0.27963  1.0000
  H   H1122     1.0  0.02130  0.79731  0.20460  1.0000
  Fe  Fe205     1.0  0.30957  0.74451  0.13791  1.0000
  S   S390      1.0  0.14375  0.74578  0.02831  1.0000
  C   C1135     1.0  0.20262  0.82365  0.00274  1.0000
  H   H1123     1.0  0.14601  0.76085  0.22133  1.0000
  H   H1124     1.0  0.31019  0.79116  0.26171  1.0000
  H   H1125     1.0  0.28830  0.81239  0.18522  1.0000
  H   H1126     1.0  0.00338  0.78259  0.19864  1.0000
  H   H1127     1.0  0.25444  0.93167  0.16007  1.0000
  H   H1128     1.0  0.29109  0.83870  0.16525  1.0000
  H   H1129     1.0  0.11161  0.74165  0.06643  1.0000
  C   C1136     1.0  0.14892  0.74369  0.20601  1.0000
  H   H1130     1.0  0.16817  0.80365  0.00124  1.0000
  Fe  Fe206     1.0  0.24747  0.80642  0.02069  1.0000
  S   S391      1.0  0.13236  0.94826  0.24121  1.0000
  Fe  Fe207     1.0  0.16409  0.74956  0.00576  1.0000
  C   C1137     1.0  0.07235  0.77151  0.02200  1.0000
  C   C1138     1.0  0.01244  0.82231  0.16153  1.0000
  C   C1139     1.0  0.14531  0.96041  0.24288  1.0000
  S   S392      1.0  0.26710  0.92804  0.12027  1.0000
  S   S393      1.0  0.24559  0.78043  0.03429  1.0000
  H   H1131     1.0  0.27076  0.73152  0.18565  1.0000
  H   H1132     1.0  0.07286  0.74405  0.06601  1.0000
  C   C1140     1.0  0.17179  0.96311  0.24573  1.0000
  S   S394      1.0  0.22389  0.81851  0.03601  1.0000
  C   C1141     1.0  0.05833  0.77345  0.03481  1.0000
  C   C1142     1.0  0.29153  0.96387  0.13148  1.0000
  C   C1143     1.0  0.27698  0.94136  0.12466  1.0000
  C   C1144     1.0  0.29013  0.75122  0.09009  1.0000
  N   N95       1.0  0.25624  0.77798  0.36971  1.0000
  C   C1145     1.0  0.24736  0.78664  0.35789  1.0000
  C   C1146     1.0  0.26961  0.78306  0.37075  1.0000
  C   C1147     1.0  0.25206  0.80054  0.34648  1.0000
  C   C1148     1.0  0.27476  0.79681  0.35939  1.0000
  C   C1149     1.0  0.26593  0.80554  0.34715  1.0000
  C   C1150     1.0  0.25112  0.76338  0.38148  1.0000
  H   H1133     1.0  0.23680  0.78260  0.35700  1.0000
  H   H1134     1.0  0.27673  0.77614  0.38004  1.0000
  H   H1135     1.0  0.24522  0.80727  0.33692  1.0000
  H   H1136     1.0  0.28566  0.80049  0.35992  1.0000
  C   C1151     1.0  0.16455  0.97865  0.24983  1.0000
  H   H1137     1.0  0.24062  0.76731  0.39147  1.0000
  H   H1138     1.0  0.24731  0.75587  0.37509  1.0000
  H   H1139     1.0  0.26151  0.75507  0.38709  1.0000
  S   S395      1.0  0.10380  0.75802  0.00803  1.0000
  Fe  Fe208     1.0  0.12934  0.74386  0.01108  1.0000
  N   N96       1.0  0.17618  0.81822  0.24218  1.0000
  C   C1152     1.0  0.18373  0.80179  0.24340  1.0000
  C   C1153     1.0  0.18417  0.82913  0.24403  1.0000
  C   C1154     1.0  0.19948  0.79584  0.24709  1.0000
  C   C1155     1.0  0.19981  0.82356  0.24796  1.0000
  C   C1156     1.0  0.20746  0.80679  0.24956  1.0000
  C   C1157     1.0  0.15980  0.82438  0.23804  1.0000
  H   H1140     1.0  0.17758  0.79317  0.24154  1.0000
  H   H1141     1.0  0.17839  0.84223  0.24268  1.0000
  H   H1142     1.0  0.20549  0.78284  0.24801  1.0000
  H   H1143     1.0  0.20583  0.83221  0.24996  1.0000
  H   H1144     1.0  0.21957  0.80229  0.25267  1.0000
  H   H1145     1.0  0.15264  0.81442  0.24193  1.0000
  H   H1146     1.0  0.15226  0.83456  0.24441  1.0000
  H   H1147     1.0  0.16119  0.82921  0.22448  1.0000
  S   S396      1.0  0.21988  0.74133  0.22514  1.0000
  N   N97       1.0  0.07505  0.88806  0.21462  1.0000
  C   C1158     1.0  0.08107  0.89180  0.19789  1.0000
  C   C1159     1.0  0.08028  0.89417  0.22493  1.0000
  C   C1160     1.0  0.09294  0.90158  0.19111  1.0000
  C   C1161     1.0  0.09213  0.90398  0.21857  1.0000
  C   C1162     1.0  0.09853  0.90764  0.20155  1.0000
  C   C1163     1.0  0.06250  0.87794  0.22150  1.0000
  H   H1148     1.0  0.07717  0.88667  0.18976  1.0000
  H   H1149     1.0  0.07582  0.89095  0.23822  1.0000
  H   H1150     1.0  0.09811  0.90403  0.17791  1.0000
  H   H1151     1.0  0.09676  0.90816  0.22688  1.0000
  H   H1152     1.0  0.10808  0.91485  0.19653  1.0000
  C   C1164     1.0  0.99863  0.79529  0.20004  1.0000
  H   H1153     1.0  0.29313  0.96386  0.08353  1.0000
  C   C1165     1.0  0.24556  0.73774  0.07009  1.0000
  C   C1166     1.0  0.28998  0.76791  0.10868  1.0000
  C   C1167     1.0  0.31762  0.75002  0.31115  1.0000
  C   C1168     1.0  0.29927  0.81721  0.18306  1.0000
  H   H1154     1.0  0.29109  0.76412  0.22562  1.0000
  C   C1169     1.0  0.29775  0.73878  0.30502  1.0000
  C   C1170     1.0  0.17714  0.81432  0.01593  1.0000
  N   N98       1.0  0.12781  0.74955  0.19056  1.0000
  C   C1171     1.0  0.30408  0.81362  0.10579  1.0000
  C   C1172     1.0  0.25647  0.95539  0.16254  1.0000
  H   H1155     1.0  0.30540  0.76134  0.29072  1.0000
  H   H1156     1.0  0.25898  0.73568  0.06417  1.0000
  C   C1173     1.0  0.27283  0.73510  0.22229  1.0000
  H   H1157     1.0  0.02615  0.80371  0.12924  1.0000
  H   H1158     1.0  0.28904  0.73963  0.29765  1.0000
  C   C1174     1.0  0.18980  0.82121  0.01661  1.0000
  C   C1175     1.0  0.27825  0.96970  0.12354  1.0000
  S   S397      1.0  0.30833  0.79080  0.20701  1.0000
  H   H1159     1.0  0.18475  0.95782  0.24573  1.0000
  H   H1160     1.0  0.30896  0.81980  0.09286  1.0000
  C   C1176     1.0  0.08702  0.74989  0.04081  1.0000
  H   H1161     1.0  0.12011  0.77841  0.21325  1.0000
  S   S398      1.0  0.04015  0.76689  0.06608  1.0000
  H   H1162     1.0  0.04730  0.78260  0.03237  1.0000
  S   S399      1.0  0.27785  0.76280  0.06208  1.0000
  H   H1163     1.0  0.27126  0.79130  0.07705  1.0000
  H   H1164     1.0  0.26988  0.81607  0.33803  1.0000
  C   C1177     1.0  0.14630  0.95861  0.28750  1.0000
  H   H1165     1.0  0.04990  0.88601  0.22221  1.0000
  S   S400      1.0  0.29528  0.76935  0.12647  1.0000
  H   H1166     1.0  0.28024  0.73936  0.24253  1.0000
  C   C1178     1.0  0.13718  0.94943  0.28387  1.0000
  H   H1167     1.0  0.21486  0.75025  0.06513  1.0000
  S   S401      1.0  0.01354  0.75817  0.11019  1.0000
  H   H1168     1.0  0.27828  0.79375  0.10232  1.0000
  C   C1179     1.0  0.27108  0.95853  0.12009  1.0000
  C   C1180     1.0  0.30683  0.75103  0.30121  1.0000
  S   S402      1.0  0.18791  0.75443  0.26280  1.0000
  H   H1169     1.0  0.29318  0.73927  0.08699  1.0000
  H   H1170     1.0  0.06372  0.87042  0.23404  1.0000
  H   H1171     1.0  0.02697  0.83309  0.17083  1.0000
  C   C1181     1.0  0.13819  0.97624  0.24637  1.0000
  C   C1182     1.0  0.27982  0.74344  0.22956  1.0000
  C   C1183     1.0  0.29634  0.97505  0.08403  1.0000
  C   C1184     1.0  0.16320  0.95241  0.28692  1.0000
  H   H1172     1.0  0.18141  0.90647  0.27852  1.0000
  N   N99       1.0  0.31926  0.73720  0.32455  1.0000
  C   C1185     1.0  0.07279  0.75175  0.05376  1.0000
  H   H1173     1.0  0.26718  0.97631  0.17157  1.0000
  H   H1174     1.0  0.26083  0.96324  0.11389  1.0000
  C   C1186     1.0  0.29429  0.75266  0.10414  1.0000
  H   H1175     1.0  0.09219  0.73834  0.23880  1.0000
  H   H1176     1.0  0.24101  0.75136  0.06899  1.0000
  N   N100      1.0  0.30926  0.97407  0.09088  1.0000
  S   S403      1.0  0.31995  0.76291  0.24696  1.0000
  C   C1187     1.0  0.31497  0.83849  0.16872  1.0000
  H   H1177     1.0  0.21800  0.97401  0.14340  1.0000
  H   H1178     1.0  0.29087  0.81974  0.10948  1.0000
  H   H1179     1.0  0.06608  0.76076  0.19382  1.0000
  S   S404      1.0  0.30168  0.97767  0.13481  1.0000
  H   H1180     1.0  0.30941  0.79219  0.13377  1.0000
  C   C1188     1.0  0.21180  0.73248  0.05353  1.0000
  C   C1189     1.0  0.14205  0.73969  0.19504  1.0000
  Fe  Fe209     1.0  0.19820  0.73672  0.24586  1.0000
  H   H1181     1.0  0.31817  0.83856  0.10322  1.0000
  C   C1190     1.0  0.31982  0.82869  0.11402  1.0000
  C   C1191     1.0  0.24603  0.80567  0.97989  1.0000
  H   H1182     1.0  0.23466  0.77066  0.97997  1.0000
  H   H1183     1.0  0.16000  0.73565  0.20983  1.0000
  C   C1192     1.0  0.26422  0.73192  0.19865  1.0000
  S   S405      1.0  0.15904  0.73294  0.28122  1.0000
  H   H1184     1.0  0.06580  0.73596  0.18444  1.0000
  C   C1193     1.0  0.06957  0.73451  0.19588  1.0000
  H   H1185     1.0  0.24420  0.73157  0.08340  1.0000
  C   C1194     1.0  0.23762  0.78279  0.97531  1.0000
  Fe  Fe210     1.0  0.18484  0.73197  0.28295  1.0000
  H   H1186     1.0  0.12510  0.98127  0.24693  1.0000
  H   H1187     1.0  0.07336  0.73170  0.25045  1.0000
  C   C1195     1.0  0.29327  0.77143  0.88562  1.0000
  S   S406      1.0  0.30939  0.80434  0.77733  1.0000
  C   C1196     1.0  0.19993  0.85138  0.68776  1.0000
  C   C1197     1.0  0.19317  0.93623  0.83514  1.0000
  Fe  Fe211     1.0  0.23573  0.91018  0.78023  1.0000
  S   S407      1.0  0.21842  0.89654  0.77715  1.0000
  S   S408      1.0  0.26207  0.89635  0.77885  1.0000
  Fe  Fe212     1.0  0.20877  0.93982  0.78816  1.0000
  S   S409      1.0  0.18903  0.92839  0.78597  1.0000
  S   S410      1.0  0.19922  0.96504  0.79497  1.0000
  Fe  Fe213     1.0  0.20228  0.90469  0.80003  1.0000
  S   S411      1.0  0.18835  0.88663  0.81919  1.0000
  Fe  Fe214     1.0  0.20685  0.92123  0.76334  1.0000
  S   S412      1.0  0.19869  0.92593  0.73935  1.0000
  S   S413      1.0  0.22044  0.91659  0.80425  1.0000
  S   S414      1.0  0.22573  0.93443  0.76434  1.0000
  Fe  Fe215     1.0  0.21227  0.82404  0.89579  1.0000
  S   S415      1.0  0.23755  0.80942  0.89927  1.0000
  S   S416      1.0  0.21041  0.85157  0.88670  1.0000
  Fe  Fe216     1.0  0.19831  0.79316  0.90400  1.0000
  S   S417      1.0  0.22254  0.77622  0.90764  1.0000
  S   S418      1.0  0.17654  0.78139  0.90867  1.0000
  Fe  Fe217     1.0  0.22406  0.79402  0.92177  1.0000
  S   S419      1.0  0.23126  0.78131  0.94639  1.0000
  Fe  Fe218     1.0  0.23368  0.79316  0.88498  1.0000
  S   S420      1.0  0.25312  0.78684  0.86280  1.0000
  S   S421      1.0  0.19889  0.81001  0.91967  1.0000
  S   S422      1.0  0.20928  0.80870  0.88005  1.0000
  Fe  Fe219     1.0  0.05253  0.81793  0.66894  1.0000
  S   S423      1.0  0.07358  0.79804  0.66004  1.0000
  S   S424      1.0  0.05691  0.84195  0.67181  1.0000
  Fe  Fe220     1.0  0.02591  0.80065  0.66716  1.0000
  S   S425      1.0  0.04516  0.77982  0.65782  1.0000
  Fe  Fe221     1.0  0.05823  0.78020  0.67682  1.0000
  S   S426      1.0  0.07009  0.75485  0.68947  1.0000
  Fe  Fe222     1.0  0.05897  0.79922  0.64176  1.0000
  S   S427      1.0  0.07364  0.79761  0.61596  1.0000
  S   S428      1.0  0.03865  0.82041  0.64930  1.0000
  Fe  Fe223     1.0  0.12045  0.90934  0.70145  1.0000
  S   S429      1.0  0.12363  0.88549  0.72058  1.0000
  Fe  Fe224     1.0  0.14179  0.89268  0.67358  1.0000
  S   S430      1.0  0.14752  0.86801  0.69052  1.0000
  S   S431      1.0  0.15080  0.89798  0.64603  1.0000
  Fe  Fe225     1.0  0.12022  0.87337  0.70191  1.0000
  S   S432      1.0  0.10894  0.85082  0.70737  1.0000
  Fe  Fe226     1.0  0.15036  0.88232  0.70739  1.0000
  S   S433      1.0  0.17072  0.87342  0.72168  1.0000
  S   S434      1.0  0.11439  0.89759  0.68400  1.0000
  S   S435      1.0  0.14736  0.90656  0.68916  1.0000
  C   C1198     1.0  0.27295  0.77660  0.91036  1.0000
  N   N101      1.0  0.31914  0.78636  0.66704  1.0000
  Fe  Fe227     1.0  0.25555  0.80456  0.61745  1.0000
  S   S436      1.0  0.25332  0.79240  0.64433  1.0000
  S   S437      1.0  0.27832  0.79819  0.59784  1.0000
  Fe  Fe228     1.0  0.22020  0.82564  0.62293  1.0000
  S   S438      1.0  0.21480  0.81510  0.65016  1.0000
  S   S439      1.0  0.20246  0.84477  0.60888  1.0000
  Fe  Fe229     1.0  0.24040  0.81796  0.64861  1.0000
  S   S440      1.0  0.24428  0.83186  0.66530  1.0000
  Fe  Fe230     1.0  0.22805  0.79075  0.64320  1.0000
  S   S441      1.0  0.21814  0.76756  0.65171  1.0000
  S   S442      1.0  0.24487  0.83034  0.62173  1.0000
  S   S443      1.0  0.23127  0.80110  0.61595  1.0000
  C   C1199     1.0  0.10102  0.75439  0.96695  1.0000
  H   H1188     1.0  0.15461  0.90381  0.86759  1.0000
  C   C1200     1.0  0.19158  0.80585  0.97328  1.0000
  C   C1201     1.0  0.99246  0.79362  0.64760  1.0000
  H   H1189     1.0  0.19008  0.74886  0.92753  1.0000
  S   S444      1.0  0.99849  0.79934  0.67547  1.0000
  Fe  Fe231     1.0  0.17776  0.75285  0.59376  1.0000
  S   S445      1.0  0.18049  0.77743  0.59536  1.0000
  H   H1190     1.0  0.29628  0.73797  0.91741  1.0000
  S   S446      1.0  0.16051  0.74970  0.58011  1.0000
  H   H1191     1.0  0.21174  0.84193  0.68620  1.0000
  H   H1192     1.0  0.15261  0.75100  0.94366  1.0000
  S   S447      1.0  0.28667  0.78810  0.71706  1.0000
  H   H1193     1.0  0.29559  0.78705  0.76210  1.0000
  C   C1202     1.0  0.19678  0.88959  0.64458  1.0000
  H   H1194     1.0  0.22626  0.74104  0.68712  1.0000
  H   H1195     1.0  0.31198  0.77887  0.80703  1.0000
  H   H1196     1.0  0.18852  0.73397  0.65999  1.0000
  C   C1203     1.0  0.19260  0.75923  0.86939  1.0000
  H   H1197     1.0  0.29383  0.75776  0.76834  1.0000
  C   C1204     1.0  0.20636  0.76976  0.63729  1.0000
  C   C1205     1.0  0.20697  0.75625  0.63089  1.0000
  C   C1206     1.0  0.19873  0.75851  0.61822  1.0000
  C   C1207     1.0  0.18999  0.77430  0.61186  1.0000
  C   C1208     1.0  0.18922  0.78774  0.61840  1.0000
  C   C1209     1.0  0.19733  0.78546  0.63114  1.0000
  C   C1210     1.0  0.11744  0.97574  0.71146  1.0000
  H   H1198     1.0  0.21437  0.74422  0.63521  1.0000
  H   H1199     1.0  0.18247  0.79997  0.61356  1.0000
  H   H1200     1.0  0.19682  0.79595  0.63604  1.0000
  C   C1211     1.0  0.25530  0.81946  0.68023  1.0000
  C   C1212     1.0  0.25771  0.80219  0.68379  1.0000
  C   C1213     1.0  0.26689  0.79252  0.69559  1.0000
  C   C1214     1.0  0.27377  0.80016  0.70367  1.0000
  C   C1215     1.0  0.27107  0.81744  0.70034  1.0000
  C   C1216     1.0  0.26181  0.82708  0.68864  1.0000
  H   H1201     1.0  0.25240  0.79628  0.67755  1.0000
  H   H1202     1.0  0.26883  0.77914  0.69832  1.0000
  H   H1203     1.0  0.27615  0.82340  0.70671  1.0000
  H   H1204     1.0  0.25995  0.84043  0.68587  1.0000
  S   S448      1.0  0.28715  0.82147  0.74076  1.0000
  C   C1217     1.0  0.16422  0.88225  0.63633  1.0000
  C   C1218     1.0  0.16917  0.88590  0.61909  1.0000
  C   C1219     1.0  0.18060  0.87412  0.61084  1.0000
  C   C1220     1.0  0.18734  0.85866  0.61977  1.0000
  C   C1221     1.0  0.18211  0.85475  0.63702  1.0000
  C   C1222     1.0  0.17049  0.86655  0.64532  1.0000
  H   H1205     1.0  0.16432  0.89798  0.61208  1.0000
  H   H1206     1.0  0.18451  0.87716  0.59750  1.0000
  H   H1207     1.0  0.18708  0.84273  0.64396  1.0000
  H   H1208     1.0  0.16683  0.86363  0.65862  1.0000
  C   C1223     1.0  0.06699  0.75141  0.71100  1.0000
  C   C1224     1.0  0.06057  0.74469  0.74564  1.0000
  C   C1225     1.0  0.05662  0.76102  0.73670  1.0000
  C   C1226     1.0  0.05975  0.76437  0.71935  1.0000
  H   H1209     1.0  0.05072  0.77099  0.74319  1.0000
  H   H1210     1.0  0.05650  0.77694  0.71249  1.0000
  H   H1211     1.0  0.15634  0.95156  0.70683  1.0000
  C   C1227     1.0  0.08795  0.77848  0.61621  1.0000
  C   C1228     1.0  0.09989  0.77543  0.60192  1.0000
  C   C1229     1.0  0.11216  0.76066  0.60254  1.0000
  C   C1230     1.0  0.11220  0.74875  0.61736  1.0000
  C   C1231     1.0  0.10014  0.75177  0.63153  1.0000
  C   C1232     1.0  0.08821  0.76664  0.63101  1.0000
  H   H1212     1.0  0.09978  0.78457  0.59043  1.0000
  H   H1213     1.0  0.12135  0.75835  0.59150  1.0000
  H   H1214     1.0  0.30418  0.77419  0.68838  1.0000
  H   H1215     1.0  0.07927  0.76893  0.64215  1.0000
  C   C1233     1.0  0.07094  0.84410  0.68241  1.0000
  C   C1234     1.0  0.08064  0.83038  0.69104  1.0000
  C   C1235     1.0  0.09200  0.83270  0.69884  1.0000
  C   C1236     1.0  0.09405  0.84868  0.69781  1.0000
  C   C1237     1.0  0.08439  0.86239  0.68914  1.0000
  C   C1238     1.0  0.07274  0.86010  0.68169  1.0000
  H   H1216     1.0  0.07928  0.81802  0.69182  1.0000
  H   H1217     1.0  0.09929  0.82203  0.70567  1.0000
  H   H1218     1.0  0.08573  0.87475  0.68836  1.0000
  H   H1219     1.0  0.06521  0.87079  0.67514  1.0000
  C   C1239     1.0  0.17874  0.76879  0.89483  1.0000
  C   C1240     1.0  0.19136  0.76904  0.88050  1.0000
  C   C1241     1.0  0.16900  0.74846  0.88717  1.0000
  C   C1242     1.0  0.16765  0.75840  0.89817  1.0000
  H   H1220     1.0  0.12953  0.75976  0.63754  1.0000
  H   H1221     1.0  0.15798  0.75799  0.90924  1.0000
  H   H1222     1.0  0.05671  0.73193  0.80252  1.0000
  H   H1223     1.0  0.07195  0.75303  0.78416  1.0000
  C   C1243     1.0  0.02810  0.74079  0.72050  1.0000
  C   C1244     1.0  0.23698  0.79108  0.95892  1.0000
  C   C1245     1.0  0.24103  0.80665  0.95296  1.0000
  C   C1246     1.0  0.24577  0.81380  0.96336  1.0000
  H   H1224     1.0  0.20001  0.94595  0.82884  1.0000
  C   C1247     1.0  0.18075  0.93448  0.82863  1.0000
  H   H1225     1.0  0.24069  0.81313  0.94033  1.0000
  H   H1226     1.0  0.24900  0.82581  0.95865  1.0000
  C   C1248     1.0  0.26556  0.76685  0.86608  1.0000
  C   C1249     1.0  0.26331  0.75611  0.88161  1.0000
  H   H1227     1.0  0.25347  0.75984  0.89161  1.0000
  C   C1250     1.0  0.19057  0.91127  0.73500  1.0000
  C   C1251     1.0  0.19126  0.89526  0.74486  1.0000
  C   C1252     1.0  0.18517  0.88372  0.74063  1.0000
  C   C1253     1.0  0.17790  0.88827  0.72687  1.0000
  C   C1254     1.0  0.17690  0.90440  0.71725  1.0000
  C   C1255     1.0  0.18342  0.91578  0.72118  1.0000
  H   H1228     1.0  0.19660  0.89169  0.75563  1.0000
  H   H1229     1.0  0.18595  0.87126  0.74814  1.0000
  H   H1230     1.0  0.17144  0.90804  0.70657  1.0000
  H   H1231     1.0  0.18280  0.92817  0.71355  1.0000
  C   C1256     1.0  0.26990  0.88858  0.76078  1.0000
  C   C1257     1.0  0.26395  0.89679  0.74644  1.0000
  H   H1232     1.0  0.14112  0.93140  0.70609  1.0000
  S   S449      1.0  0.10614  0.93375  0.70860  1.0000
  C   C1258     1.0  0.28728  0.86670  0.74694  1.0000
  C   C1259     1.0  0.28179  0.87371  0.76091  1.0000
  H   H1233     1.0  0.25489  0.90838  0.74625  1.0000
  H   H1234     1.0  0.08406  0.74693  0.95758  1.0000
  H   H1235     1.0  0.28662  0.86749  0.77189  1.0000
  C   C1260     1.0  0.19652  0.87541  0.83664  1.0000
  C   C1261     1.0  0.18975  0.86209  0.84708  1.0000
  C   C1262     1.0  0.19452  0.85420  0.86216  1.0000
  C   C1263     1.0  0.20587  0.85981  0.86700  1.0000
  C   C1264     1.0  0.21295  0.87286  0.85638  1.0000
  C   C1265     1.0  0.20847  0.88048  0.84112  1.0000
  H   H1236     1.0  0.18044  0.85814  0.84371  1.0000
  H   H1237     1.0  0.18886  0.84426  0.87035  1.0000
  H   H1238     1.0  0.22176  0.87721  0.86008  1.0000
  H   H1239     1.0  0.21372  0.89075  0.83321  1.0000
  C   C1266     1.0  0.27444  0.75714  0.57593  1.0000
  C   C1267     1.0  0.28628  0.76674  0.56778  1.0000
  C   C1268     1.0  0.28770  0.77911  0.57476  1.0000
  C   C1269     1.0  0.27745  0.78174  0.58998  1.0000
  C   C1270     1.0  0.26607  0.77169  0.59841  1.0000
  C   C1271     1.0  0.26444  0.75953  0.59131  1.0000
  H   H1240     1.0  0.29387  0.76509  0.55578  1.0000
  H   H1241     1.0  0.29638  0.78699  0.56812  1.0000
  H   H1242     1.0  0.25839  0.77337  0.61035  1.0000
  C   C1272     1.0  0.06362  0.73733  0.80768  1.0000
  H   H1243     1.0  0.23501  0.96005  0.79127  1.0000
  S   S450      1.0  0.03817  0.79983  0.68754  1.0000
  H   H1244     1.0  0.10248  0.74735  0.92959  1.0000
  C   C1273     1.0  0.30444  0.78477  0.78385  1.0000
  C   C1274     1.0  0.18942  0.87998  0.67419  1.0000
  H   H1245     1.0  0.27882  0.74455  0.94256  1.0000
  S   S451      1.0  0.05449  0.74001  0.76726  1.0000
  C   C1275     1.0  0.22922  0.97261  0.79273  1.0000
  H   H1246     1.0  0.08818  0.76540  0.79563  1.0000
  C   C1276     1.0  0.14308  0.95523  0.70778  1.0000
  H   H1247     1.0  0.08875  0.75635  0.82557  1.0000
  C   C1277     1.0  0.11732  0.94823  0.70856  1.0000
  H   H1248     1.0  0.25856  0.80706  0.83027  1.0000
  H   H1249     1.0  0.22183  0.83852  0.83889  1.0000
  H   H1250     1.0  0.23698  0.83536  0.85104  1.0000
  H   H1251     1.0  0.18241  0.88236  0.68618  1.0000
  C   C1278     1.0  0.22748  0.73788  0.83496  1.0000
  H   H1252     1.0  0.31975  0.76644  0.58137  1.0000
  H   H1253     1.0  0.31165  0.76331  0.67191  1.0000
  H   H1254     1.0  0.29533  0.78179  0.67025  1.0000
  H   H1255     1.0  0.00467  0.79582  0.64122  1.0000
  C   C1279     1.0  0.30190  0.75161  0.79126  1.0000
  C   C1280     1.0  0.07260  0.73942  0.83060  1.0000
  H   H1256     1.0  0.27428  0.73681  0.81989  1.0000
  C   C1281     1.0  0.18797  0.89263  0.66006  1.0000
  H   H1257     1.0  0.01042  0.78028  0.70561  1.0000
  H   H1258     1.0  0.14280  0.96586  0.75174  1.0000
  S   S452      1.0  0.18312  0.73663  0.85873  1.0000
  H   H1259     1.0  0.12968  0.75460  0.92367  1.0000
  C   C1282     1.0  0.07145  0.73521  0.71995  1.0000
  C   C1283     1.0  0.27138  0.82085  0.80798  1.0000
  H   H1260     1.0  0.26805  0.76555  0.94300  1.0000
  Fe  Fe232     1.0  0.30115  0.83944  0.72199  1.0000
  C   C1284     1.0  0.01896  0.75631  0.74203  1.0000
  H   H1261     1.0  0.10021  0.74284  0.64308  1.0000
  N   N102      1.0  0.27899  0.76107  0.91880  1.0000
  H   H1262     1.0  0.28018  0.77018  0.84112  1.0000
  N   N103      1.0  0.13250  0.92633  0.74759  1.0000
  C   C1285     1.0  0.12050  0.94060  0.74776  1.0000
  C   C1286     1.0  0.14776  0.92568  0.74998  1.0000
  C   C1287     1.0  0.12395  0.95496  0.74950  1.0000
  C   C1288     1.0  0.15171  0.93986  0.75152  1.0000
  C   C1289     1.0  0.13975  0.95463  0.75109  1.0000
  C   C1290     1.0  0.12892  0.91146  0.74535  1.0000
  H   H1263     1.0  0.10836  0.94111  0.74591  1.0000
  H   H1264     1.0  0.15704  0.91421  0.75044  1.0000
  H   H1265     1.0  0.30022  0.73929  0.59508  1.0000
  H   H1266     1.0  0.19795  0.77025  0.96354  1.0000
  C   C1291     1.0  0.26001  0.85029  0.80187  1.0000
  H   H1267     1.0  0.13996  0.90448  0.73784  1.0000
  H   H1268     1.0  0.12529  0.90323  0.75754  1.0000
  H   H1269     1.0  0.11876  0.91472  0.73858  1.0000
  C   C1292     1.0  0.29187  0.75052  0.91096  1.0000
  H   H1270     1.0  0.17970  0.90457  0.66103  1.0000
  H   H1271     1.0  0.30526  0.80518  0.68028  1.0000
  H   H1272     1.0  0.16404  0.93945  0.75279  1.0000
  C   C1293     1.0  0.07222  0.74931  0.79722  1.0000
  H   H1273     1.0  0.23277  0.81799  0.84626  1.0000
  H   H1274     1.0  0.01812  0.75700  0.75464  1.0000
  N   N104      1.0  0.12205  0.85087  0.66112  1.0000
  C   C1294     1.0  0.12491  0.86656  0.65668  1.0000
  C   C1295     1.0  0.10963  0.84753  0.65632  1.0000
  C   C1296     1.0  0.11492  0.87952  0.64761  1.0000
  C   C1297     1.0  0.09934  0.86020  0.64728  1.0000
  C   C1298     1.0  0.10197  0.87631  0.64300  1.0000
  C   C1299     1.0  0.13283  0.83748  0.67048  1.0000
  H   H1275     1.0  0.13485  0.86919  0.66030  1.0000
  H   H1276     1.0  0.10719  0.83514  0.65999  1.0000
  H   H1277     1.0  0.11720  0.89197  0.64434  1.0000
  H   H1278     1.0  0.08901  0.85760  0.64420  1.0000
  H   H1279     1.0  0.09389  0.88631  0.63628  1.0000
  H   H1280     1.0  0.12631  0.82738  0.67785  1.0000
  H   H1281     1.0  0.14420  0.83241  0.66193  1.0000
  H   H1282     1.0  0.13638  0.84208  0.67959  1.0000
  H   H1283     1.0  0.19962  0.74810  0.61304  1.0000
  C   C1300     1.0  0.31635  0.80124  0.67132  1.0000
  H   H1284     1.0  0.01786  0.76512  0.68503  1.0000
  C   C1301     1.0  0.01491  0.76927  0.71437  1.0000
  S   S453      1.0  0.31095  0.82343  0.70336  1.0000
  N   N105      1.0  0.17591  0.91109  0.85087  1.0000
  C   C1302     1.0  0.19392  0.74747  0.93891  1.0000
  H   H1285     1.0  0.20669  0.92641  0.85462  1.0000
  H   H1286     1.0  0.19096  0.90431  0.86866  1.0000
  H   H1287     1.0  0.30920  0.74702  0.88799  1.0000
  S   S454      1.0  0.31914  0.73699  0.53968  1.0000
  C   C1303     1.0  0.17225  0.92171  0.83665  1.0000
  H   H1288     1.0  0.18903  0.77376  0.93755  1.0000
  C   C1304     1.0  0.29758  0.76234  0.77695  1.0000
  H   H1289     1.0  0.11464  0.96645  0.74894  1.0000
  H   H1290     1.0  0.25258  0.73221  0.78983  1.0000
  C   C1305     1.0  0.28740  0.73597  0.87164  1.0000
  H   H1291     1.0  0.18939  0.84523  0.69046  1.0000
  C   C1306     1.0  0.26111  0.73709  0.82406  1.0000
  H   H1292     1.0  0.19632  0.81441  0.96172  1.0000
  S   S455      1.0  0.27119  0.74293  0.56664  1.0000
  H   H1293     1.0  0.21326  0.87124  0.63135  1.0000
  C   C1307     1.0  0.19328  0.76143  0.94453  1.0000
  S   S456      1.0  0.13550  0.73438  0.87333  1.0000
  N   N106      1.0  0.25240  0.73538  0.81375  1.0000
  C   C1308     1.0  0.27425  0.74068  0.88440  1.0000
  N   N107      1.0  0.19929  0.86470  0.67289  1.0000
  C   C1309     1.0  0.08124  0.75628  0.80366  1.0000
  H   H1294     1.0  0.13280  0.77584  0.64541  1.0000
  C   C1310     1.0  0.19951  0.73170  0.94810  1.0000
  C   C1311     1.0  0.20358  0.74354  0.96813  1.0000
  N   N108      1.0  0.02225  0.75458  0.70950  1.0000
  S   S457      1.0  0.28751  0.86578  0.71536  1.0000
  C   C1312     1.0  0.11645  0.75858  0.96320  1.0000
  C   C1313     1.0  0.10882  0.96425  0.71076  1.0000
  H   H1295     1.0  0.26760  0.74304  0.79027  1.0000
  C   C1314     1.0  0.29932  0.75560  0.89431  1.0000
  C   C1315     1.0  0.19690  0.92528  0.84959  1.0000
  H   H1296     1.0  0.26041  0.86254  0.79407  1.0000
  H   H1297     1.0  0.16308  0.89323  0.85058  1.0000
  H   H1298     1.0  0.19916  0.85632  0.69866  1.0000
  H   H1299     1.0  0.21431  0.73823  0.83902  1.0000
  C   C1316     1.0  0.20769  0.86152  0.65771  1.0000
  C   C1317     1.0  0.24759  0.84824  0.81626  1.0000
  H   H1300     1.0  0.14515  0.77153  0.93203  1.0000
  H   H1301     1.0  0.28171  0.83783  0.78658  1.0000
  N   N109      1.0  0.12487  0.78417  0.62275  1.0000
  C   C1318     1.0  0.11239  0.79795  0.62081  1.0000
  C   C1319     1.0  0.13774  0.78112  0.60971  1.0000
  C   C1320     1.0  0.11221  0.80868  0.60533  1.0000
  C   C1321     1.0  0.13805  0.79166  0.59409  1.0000
  C   C1322     1.0  0.12511  0.80546  0.59188  1.0000
  C   C1323     1.0  0.10611  0.75089  0.93902  1.0000
  H   H1302     1.0  0.10204  0.80031  0.63104  1.0000
  H   H1303     1.0  0.07319  0.73538  0.84355  1.0000
  H   H1304     1.0  0.10176  0.81904  0.60371  1.0000
  H   H1305     1.0  0.14823  0.78901  0.58378  1.0000
  H   H1306     1.0  0.12499  0.81351  0.57975  1.0000
  H   H1307     1.0  0.17786  0.94290  0.81734  1.0000
  C   C1324     1.0  0.29876  0.77892  0.77331  1.0000
  H   H1308     1.0  0.16287  0.92020  0.83129  1.0000
  N   N110      1.0  0.24189  0.87173  0.73256  1.0000
  C   C1325     1.0  0.24856  0.86442  0.71925  1.0000
  C   C1326     1.0  0.23291  0.88772  0.73058  1.0000
  C   C1327     1.0  0.24681  0.87336  0.70338  1.0000
  C   C1328     1.0  0.23086  0.89700  0.71490  1.0000
  C   C1329     1.0  0.23791  0.88976  0.70122  1.0000
  C   C1330     1.0  0.24398  0.86221  0.74909  1.0000
  H   H1309     1.0  0.25583  0.85179  0.72076  1.0000
  H   H1310     1.0  0.22755  0.89356  0.74109  1.0000
  H   H1311     1.0  0.25263  0.86768  0.69281  1.0000
  H   H1312     1.0  0.22396  0.90978  0.71341  1.0000
  H   H1313     1.0  0.23660  0.89689  0.68896  1.0000
  H   H1314     1.0  0.25604  0.85307  0.74836  1.0000
  H   H1315     1.0  0.24418  0.87046  0.75693  1.0000
  H   H1316     1.0  0.23369  0.85561  0.75511  1.0000
  H   H1317     1.0  0.27272  0.73252  0.89651  1.0000
  H   H1318     1.0  0.29944  0.74282  0.84605  1.0000
  N   N111      1.0  0.12648  0.75888  0.94774  1.0000
  C   C1331     1.0  0.18798  0.91281  0.85744  1.0000
  H   H1319     1.0  0.11206  0.77363  0.64678  1.0000
  H   H1320     1.0  0.12032  0.76148  0.97283  1.0000
  H   H1321     1.0  0.09551  0.96775  0.71199  1.0000
  H   H1322     1.0  0.19533  0.89911  0.63348  1.0000
  H   H1323     1.0  0.26249  0.78478  0.91655  1.0000
  C   C1332     1.0  0.16622  0.89839  0.85956  1.0000
  S   S458      1.0  0.16853  0.73619  0.61750  1.0000
  C   C1333     1.0  0.27088  0.75554  0.93610  1.0000
  N   N112      1.0  0.06411  0.73234  0.82409  1.0000
  C   C1334     1.0  0.13462  0.97120  0.70998  1.0000
  C   C1335     1.0  0.09585  0.75051  0.95476  1.0000
  H   H1324     1.0  0.16034  0.74054  0.88985  1.0000
  C   C1336     1.0  0.12153  0.75501  0.93574  1.0000
  H   H1325     1.0  0.25535  0.75205  0.59773  1.0000
  H   H1326     1.0  0.14776  0.77036  0.61129  1.0000
  C   C1337     1.0  0.02426  0.75350  0.69235  1.0000
  H   H1327     1.0  0.29613  0.85499  0.74729  1.0000
  H   H1328     1.0  0.25900  0.75240  0.93666  1.0000
  H   H1329     1.0  0.21490  0.84924  0.65654  1.0000
  C   C1338     1.0  0.12483  0.77284  0.63896  1.0000
  H   H1330     1.0  0.20203  0.75989  0.85810  1.0000
  H   H1331     1.0  0.14426  0.76837  0.95360  1.0000
  S   S459      1.0  0.19895  0.73332  0.58488  1.0000
  C   C1339     1.0  0.30699  0.77587  0.67469  1.0000
  H   H1332     1.0  0.20044  0.74439  0.67718  1.0000
  C   C1340     1.0  0.27998  0.78201  0.89364  1.0000
  N   N113      1.0  0.22709  0.79320  0.57533  1.0000
  C   C1341     1.0  0.24203  0.79764  0.57167  1.0000
  C   C1342     1.0  0.21267  0.80432  0.57954  1.0000
  C   C1343     1.0  0.24282  0.81344  0.57248  1.0000
  C   C1344     1.0  0.21297  0.82031  0.58020  1.0000
  C   C1345     1.0  0.22816  0.82483  0.57679  1.0000
  C   C1346     1.0  0.22656  0.77611  0.57599  1.0000
  H   H1333     1.0  0.25346  0.78887  0.56836  1.0000
  H   H1334     1.0  0.20084  0.80080  0.58264  1.0000
  H   H1335     1.0  0.25475  0.81662  0.57025  1.0000
  H   H1336     1.0  0.20151  0.82897  0.58387  1.0000
  H   H1337     1.0  0.22853  0.83700  0.57793  1.0000
  H   H1338     1.0  0.23759  0.77014  0.56764  1.0000
  H   H1339     1.0  0.22622  0.76874  0.58885  1.0000
  H   H1340     1.0  0.21534  0.77571  0.57221  1.0000
  H   H1341     1.0  0.03765  0.75120  0.68628  1.0000
  H   H1342     1.0  0.29847  0.77526  0.87252  1.0000
  C   C1347     1.0  0.25882  0.81925  0.82231  1.0000
  H   H1343     1.0  0.19994  0.77705  0.87779  1.0000
  C   C1348     1.0  0.23405  0.83108  0.84133  1.0000
  C   C1349     1.0  0.08142  0.75135  0.82046  1.0000
  Fe  Fe233     1.0  0.29922  0.80450  0.72320  1.0000
  H   H1344     1.0  0.17336  0.88776  0.86729  1.0000
  C   C1350     1.0  0.30773  0.77433  0.79875  1.0000
  C   C1351     1.0  0.18141  0.74892  0.87270  1.0000
  N   N114      1.0  0.24703  0.83283  0.82618  1.0000
  C   C1352     1.0  0.23629  0.73949  0.84560  1.0000
  H   H1345     1.0  0.26570  0.89665  0.72101  1.0000
  C   C1353     1.0  0.19823  0.75948  0.95915  1.0000
  C   C1354     1.0  0.27195  0.83648  0.79770  1.0000
  H   H1346     1.0  0.28069  0.81006  0.80489  1.0000
  C   C1355     1.0  0.27005  0.89015  0.73220  1.0000
  C   C1356     1.0  0.28145  0.87493  0.73255  1.0000
  C   C1357     1.0  0.13447  0.94379  0.70717  1.0000
  H   H1347     1.0  0.23839  0.85906  0.81946  1.0000
  C   C1358     1.0  0.20680  0.87396  0.64337  1.0000
  C   C1359     1.0  0.27840  0.76191  0.85317  1.0000
  C   C1360     1.0  0.28927  0.74642  0.85592  1.0000
  C   C1361     1.0  0.14293  0.76261  0.94411  1.0000
  C   C1362     1.0  0.30646  0.75770  0.80246  1.0000
  H   H1348     1.0  0.22884  0.73425  0.81093  1.0000
  H   H1349     1.0  0.01891  0.74327  0.69197  1.0000
  C   C1363     1.0  0.23577  0.73577  0.81900  1.0000
  Fe  Fe234     1.0  0.31065  0.81183  0.74999  1.0000
  H   H1350     1.0  0.23000  0.74105  0.85805  1.0000
  H   H1351     1.0  0.27488  0.79414  0.88682  1.0000
  H   H1352     1.0  0.17938  0.80434  0.97256  1.0000
  C   C1364     1.0  0.06831  0.73187  0.73722  1.0000
  C   C1365     1.0  0.01322  0.77038  0.73068  1.0000
  C   C1366     1.0  0.21202  0.97803  0.79490  1.0000
  H   H1353     1.0  0.25231  0.97920  0.79069  1.0000
  C   C1367     1.0  0.25323  0.73909  0.84015  1.0000
  H   H1354     1.0  0.31550  0.74159  0.57582  1.0000
  C   C1368     1.0  0.31362  0.73611  0.58931  1.0000
  H   H1355     1.0  0.15093  0.97895  0.67450  1.0000
  H   H1356     1.0  0.00769  0.78211  0.73441  1.0000
  H   H1357     1.0  0.26022  0.74027  0.84834  1.0000
  S   S460      1.0  0.32158  0.79310  0.73406  1.0000
  H   H1358     1.0  0.30948  0.74953  0.81371  1.0000
  C   C1369     1.0  0.26113  0.73279  0.79716  1.0000
  C   C1370     1.0  0.02637  0.74139  0.73695  1.0000
  C   C1371     1.0  0.20534  0.73178  0.67540  1.0000
  H   H1359     1.0  0.20028  0.79355  0.97390  1.0000
  C   C1372     1.0  0.60942  0.17272  0.20505  1.0000
  H   H1360     1.0  0.37496  0.22171  0.29810  1.0000
  Fe  Fe235     1.0  0.56117  0.18977  0.30154  1.0000
  S   S461      1.0  0.64499  0.17797  0.10078  1.0000
  S   S462      1.0  0.57968  0.17868  0.31812  1.0000
  Fe  Fe236     1.0  0.52635  0.18994  0.29810  1.0000
  H   H1361     1.0  0.61778  0.14851  0.19920  1.0000
  S   S463      1.0  0.50246  0.18079  0.30937  1.0000
  Fe  Fe237     1.0  0.55394  0.19466  0.26785  1.0000
  S   S464      1.0  0.56029  0.19073  0.24201  1.0000
  S   S465      1.0  0.55156  0.17420  0.29052  1.0000
  Fe  Fe238     1.0  0.63443  0.21166  0.38637  1.0000
  H   H1362     1.0  0.63156  0.15122  0.31667  1.0000
  H   H1363     1.0  0.35659  0.18511  0.12430  1.0000
  C   C1373     1.0  0.63261  0.18892  0.29200  1.0000
  S   S466      1.0  0.32804  0.06372  0.20116  1.0000
  N   N115      1.0  0.57915  0.21730  0.36556  1.0000
  Fe  Fe239     1.0  0.33409  0.08786  0.20112  1.0000
  C   C1374     1.0  0.63016  0.22070  0.42320  1.0000
  S   S467      1.0  0.60061  0.19551  0.12674  1.0000
  H   H1364     1.0  0.43120  0.21347  0.22510  1.0000
  S   S468      1.0  0.62927  0.19565  0.37249  1.0000
  C   C1375     1.0  0.33059  0.15247  0.03592  1.0000
  C   C1376     1.0  0.36841  0.18598  0.21712  1.0000
  S   S469      1.0  0.40269  0.22788  0.18249  1.0000
  H   H1365     1.0  0.38771  0.17037  0.35065  1.0000
  S   S470      1.0  0.62117  0.22388  0.32962  1.0000
  H   H1366     1.0  0.63035  0.15943  0.16974  1.0000
  C   C1377     1.0  0.60001  0.21742  0.31470  1.0000
  C   C1378     1.0  0.63239  0.22349  0.44991  1.0000
  Fe  Fe240     1.0  0.63034  0.12450  0.22954  1.0000
  S   S471      1.0  0.60505  0.12222  0.22942  1.0000
  N   N116      1.0  0.37638  0.20267  0.32020  1.0000
  S   S472      1.0  0.63265  0.14691  0.23642  1.0000
  S   S473      1.0  0.32242  0.14426  0.02396  1.0000
  H   H1367     1.0  0.57199  0.21460  0.34465  1.0000
  H   H1368     1.0  0.35919  0.15873  0.18087  1.0000
  Fe  Fe241     1.0  0.65195  0.19841  0.07935  1.0000
  H   H1369     1.0  0.35406  0.22130  0.32272  1.0000
  C   C1379     1.0  0.64894  0.18358  0.31234  1.0000
  Fe  Fe242     1.0  0.43736  0.16291  0.27106  1.0000
  S   S474      1.0  0.41762  0.17700  0.28838  1.0000
  S   S475      1.0  0.46505  0.16180  0.26564  1.0000
  Fe  Fe243     1.0  0.41162  0.15603  0.25615  1.0000
  S   S476      1.0  0.39001  0.16953  0.27238  1.0000
  S   S477      1.0  0.40839  0.14797  0.23448  1.0000
  Fe  Fe244     1.0  0.40539  0.18838  0.26686  1.0000
  S   S478      1.0  0.39482  0.21555  0.25943  1.0000
  Fe  Fe245     1.0  0.40396  0.15678  0.29253  1.0000
  S   S479      1.0  0.39129  0.14566  0.31840  1.0000
  S   S480      1.0  0.42609  0.17598  0.24915  1.0000
  S   S481      1.0  0.42473  0.14152  0.27670  1.0000
  S   S482      1.0  0.56576  0.20888  0.27797  1.0000
  H   H1370     1.0  0.57543  0.19608  0.36011  1.0000
  Fe  Fe246     1.0  0.34732  0.10530  0.22012  1.0000
  S   S483      1.0  0.33936  0.13037  0.20470  1.0000
  S   S484      1.0  0.35820  0.10354  0.24175  1.0000
  H   H1371     1.0  0.44742  0.22311  0.17264  1.0000
  H   H1372     1.0  0.58138  0.19025  0.15997  1.0000
  C   C1380     1.0  0.58033  0.21141  0.16938  1.0000
  Fe  Fe247     1.0  0.34940  0.11750  0.18356  1.0000
  S   S485      1.0  0.36471  0.13028  0.16066  1.0000
  H   H1373     1.0  0.64969  0.15978  0.32925  1.0000
  H   H1374     1.0  0.37148  0.16140  0.09438  1.0000
  S   S486      1.0  0.35928  0.09272  0.19871  1.0000
  H   H1375     1.0  0.57353  0.20668  0.18162  1.0000
  C   C1381     1.0  0.64490  0.16806  0.31880  1.0000
  Fe  Fe248     1.0  0.34604  0.19689  0.07312  1.0000
  C   C1382     1.0  0.33613  0.15432  0.16097  1.0000
  S   S487      1.0  0.35644  0.17392  0.06263  1.0000
  C   C1383     1.0  0.61477  0.19556  0.18305  1.0000
  H   H1376     1.0  0.36468  0.12310  0.12412  1.0000
  S   S488      1.0  0.35737  0.20050  0.09210  1.0000
  C   C1384     1.0  0.35294  0.14986  0.15360  1.0000
  H   H1377     1.0  0.55697  0.21213  0.36391  1.0000
  H   H1378     1.0  0.48251  0.21439  0.26334  1.0000
  C   C1385     1.0  0.32843  0.17002  0.05478  1.0000
  S   S489      1.0  0.64955  0.12749  0.20595  1.0000
  C   C1386     1.0  0.36031  0.16104  0.14039  1.0000
  H   H1379     1.0  0.60303  0.21250  0.20655  1.0000
  H   H1380     1.0  0.37571  0.20530  0.19634  1.0000
  Fe  Fe249     1.0  0.35439  0.22728  0.07905  1.0000
  H   H1381     1.0  0.37338  0.15778  0.13489  1.0000
  H   H1382     1.0  0.59965  0.22997  0.30748  1.0000
  C   C1387     1.0  0.37036  0.14820  0.09829  1.0000
  H   H1383     1.0  0.33035  0.14584  0.17127  1.0000
  H   H1384     1.0  0.40127  0.19877  0.20804  1.0000
  H   H1385     1.0  0.36142  0.18462  0.36672  1.0000
  C   C1388     1.0  0.64642  0.22283  0.41655  1.0000
  H   H1386     1.0  0.38109  0.14107  0.10391  1.0000
  C   C1389     1.0  0.32659  0.16970  0.15474  1.0000
  C   C1390     1.0  0.58487  0.20207  0.15719  1.0000
  C   C1391     1.0  0.49089  0.23008  0.30691  1.0000
  C   C1392     1.0  0.62409  0.16784  0.17802  1.0000
  H   H1387     1.0  0.37106  0.14385  0.08706  1.0000
  S   S490      1.0  0.65158  0.13214  0.27461  1.0000
  H   H1388     1.0  0.34257  0.15530  0.36323  1.0000
  N   N117      1.0  0.60817  0.18941  0.19925  1.0000
  S   S491      1.0  0.64257  0.20274  0.12440  1.0000
  H   H1389     1.0  0.62799  0.18977  0.15936  1.0000
  N   N118      1.0  0.35457  0.14654  0.10999  1.0000
  Fe  Fe250     1.0  0.33098  0.20814  0.10526  1.0000
  C   C1393     1.0  0.57043  0.20969  0.35822  1.0000
  H   H1390     1.0  0.60432  0.16787  0.21788  1.0000
  H   H1391     1.0  0.35043  0.17975  0.17171  1.0000
  C   C1394     1.0  0.59856  0.20077  0.21016  1.0000
  H   H1392     1.0  0.39708  0.19394  0.23831  1.0000
  C   C1395     1.0  0.39226  0.13794  0.23696  1.0000
  C   C1396     1.0  0.38452  0.13019  0.25258  1.0000
  C   C1397     1.0  0.37350  0.12018  0.25398  1.0000
  C   C1398     1.0  0.36982  0.11825  0.23982  1.0000
  C   C1399     1.0  0.37680  0.12683  0.22426  1.0000
  C   C1400     1.0  0.38813  0.13649  0.22283  1.0000
  H   H1393     1.0  0.38760  0.13126  0.26355  1.0000
  H   H1394     1.0  0.36809  0.11359  0.26606  1.0000
  H   H1395     1.0  0.37414  0.12532  0.21327  1.0000
  H   H1396     1.0  0.39408  0.14249  0.21071  1.0000
  C   C1401     1.0  0.34057  0.17428  0.34110  1.0000
  C   C1402     1.0  0.34810  0.15938  0.35032  1.0000
  C   C1403     1.0  0.36339  0.15027  0.34304  1.0000
  C   C1404     1.0  0.37109  0.15594  0.32653  1.0000
  C   C1405     1.0  0.36306  0.17033  0.31713  1.0000
  C   C1406     1.0  0.34791  0.17952  0.32442  1.0000
  H   H1397     1.0  0.62791  0.19714  0.28150  1.0000
  H   H1398     1.0  0.36955  0.13910  0.35037  1.0000
  H   H1399     1.0  0.36877  0.17468  0.30438  1.0000
  H   H1400     1.0  0.34206  0.19098  0.31721  1.0000
  H   H1401     1.0  0.34458  0.18604  0.00989  1.0000
  H   H1402     1.0  0.61359  0.20879  0.17839  1.0000
  C   C1407     1.0  0.32448  0.14345  0.13191  1.0000
  C   C1408     1.0  0.35075  0.17643  0.13421  1.0000
  S   S492      1.0  0.52816  0.20935  0.27477  1.0000
  H   H1403     1.0  0.59025  0.21267  0.40163  1.0000
  C   C1409     1.0  0.36398  0.18950  0.18978  1.0000
  H   H1404     1.0  0.48183  0.21083  0.29297  1.0000
  H   H1405     1.0  0.58528  0.20388  0.20948  1.0000
  H   H1406     1.0  0.56159  0.21592  0.13176  1.0000
  C   C1410     1.0  0.62286  0.18488  0.17221  1.0000
  C   C1411     1.0  0.36183  0.21049  0.32891  1.0000
  S   S493      1.0  0.61882  0.21683  0.41095  1.0000
  H   H1407     1.0  0.34534  0.20418  0.02762  1.0000
  C   C1412     1.0  0.43945  0.19954  0.19877  1.0000
  H   H1408     1.0  0.33331  0.12941  0.34973  1.0000
  C   C1413     1.0  0.64283  0.19407  0.29883  1.0000
  H   H1409     1.0  0.37896  0.20081  0.29552  1.0000
  H   H1410     1.0  0.54886  0.22716  0.15571  1.0000
  C   C1414     1.0  0.49135  0.17729  0.29666  1.0000
  C   C1415     1.0  0.47592  0.17293  0.30380  1.0000
  C   C1416     1.0  0.46721  0.16909  0.29420  1.0000
  C   C1417     1.0  0.47400  0.16941  0.27741  1.0000
  C   C1418     1.0  0.48917  0.17432  0.27015  1.0000
  C   C1419     1.0  0.49777  0.17837  0.27970  1.0000
  H   H1411     1.0  0.47085  0.17214  0.31691  1.0000
  H   H1412     1.0  0.45561  0.16521  0.29994  1.0000
  H   H1413     1.0  0.49451  0.17456  0.25717  1.0000
  H   H1414     1.0  0.50960  0.18180  0.27404  1.0000
  C   C1420     1.0  0.57144  0.17083  0.23990  1.0000
  C   C1421     1.0  0.58173  0.16130  0.25069  1.0000
  C   C1422     1.0  0.59153  0.14586  0.24799  1.0000
  C   C1423     1.0  0.59079  0.13987  0.23470  1.0000
  C   C1424     1.0  0.57982  0.14903  0.22449  1.0000
  C   C1425     1.0  0.57033  0.16462  0.22693  1.0000
  H   H1415     1.0  0.58262  0.16608  0.26071  1.0000
  H   H1416     1.0  0.59993  0.13872  0.25598  1.0000
  H   H1417     1.0  0.57933  0.14448  0.21414  1.0000
  H   H1418     1.0  0.56236  0.17200  0.21859  1.0000
  C   C1426     1.0  0.59103  0.19143  0.32127  1.0000
  C   C1427     1.0  0.59061  0.20768  0.31210  1.0000
  C   C1428     1.0  0.39866  0.20918  0.21381  1.0000
  C   C1429     1.0  0.60980  0.21107  0.32657  1.0000
  C   C1430     1.0  0.61015  0.19486  0.33584  1.0000
  C   C1431     1.0  0.60088  0.18505  0.33311  1.0000
  H   H1419     1.0  0.58307  0.21275  0.30295  1.0000
  C   C1432     1.0  0.61721  0.16170  0.19454  1.0000
  H   H1420     1.0  0.61769  0.18979  0.34497  1.0000
  H   H1421     1.0  0.60132  0.17246  0.34023  1.0000
  C   C1433     1.0  0.43515  0.22175  0.21346  1.0000
  N   N119      1.0  0.35659  0.17617  0.19518  1.0000
  H   H1422     1.0  0.32488  0.08588  0.16933  1.0000
  S   S494      1.0  0.53560  0.20347  0.31144  1.0000
  H   H1423     1.0  0.64589  0.20617  0.29376  1.0000
  H   H1424     1.0  0.35538  0.13985  0.02653  1.0000
  C   C1434     1.0  0.36095  0.17235  0.22247  1.0000
  C   C1435     1.0  0.35525  0.15479  0.04290  1.0000
  C   C1436     1.0  0.33316  0.19347  0.01567  1.0000
  H   H1425     1.0  0.35998  0.16535  0.23516  1.0000
  H   H1426     1.0  0.60782  0.17929  0.28735  1.0000
  C   C1437     1.0  0.61781  0.16866  0.29112  1.0000
  C   C1438     1.0  0.59457  0.20760  0.14169  1.0000
  C   C1439     1.0  0.63460  0.16333  0.31168  1.0000
  H   H1427     1.0  0.61152  0.15902  0.30005  1.0000
  C   C1440     1.0  0.48579  0.22365  0.26750  1.0000
  C   C1441     1.0  0.44424  0.22713  0.18422  1.0000
  H   H1428     1.0  0.34141  0.16953  0.09808  1.0000
  C   C1442     1.0  0.35642  0.20430  0.34582  1.0000
  C   C1443     1.0  0.38061  0.18195  0.34479  1.0000
  Fe  Fe251     1.0  0.53960  0.22156  0.28720  1.0000
  Fe  Fe252     1.0  0.65142  0.12903  0.24971  1.0000
  H   H1429     1.0  0.34456  0.21015  0.35256  1.0000
  H   H1430     1.0  0.36538  0.19622  0.17698  1.0000
  Fe  Fe253     1.0  0.62582  0.19821  0.11130  1.0000
  H   H1431     1.0  0.34947  0.15684  0.21550  1.0000
  H   H1432     1.0  0.59937  0.19511  0.22325  1.0000
  N   N120      1.0  0.62843  0.17382  0.29859  1.0000
  C   C1444     1.0  0.34775  0.14820  0.03444  1.0000
  H   H1433     1.0  0.62530  0.16360  0.28016  1.0000
  C   C1445     1.0  0.36990  0.19467  0.20068  1.0000
  N   N121      1.0  0.41199  0.09683  0.23335  1.0000
  C   C1446     1.0  0.41893  0.10523  0.21816  1.0000
  C   C1447     1.0  0.40113  0.08725  0.23471  1.0000
  C   C1448     1.0  0.41463  0.10454  0.20387  1.0000
  C   C1449     1.0  0.39655  0.08630  0.22069  1.0000
  C   C1450     1.0  0.40330  0.09507  0.20519  1.0000
  C   C1451     1.0  0.41668  0.09764  0.24818  1.0000
  H   H1434     1.0  0.42740  0.11297  0.21711  1.0000
  H   H1435     1.0  0.39534  0.08083  0.24675  1.0000
  H   H1436     1.0  0.41978  0.11159  0.19190  1.0000
  H   H1437     1.0  0.38734  0.07929  0.22196  1.0000
  H   H1438     1.0  0.39950  0.09476  0.19428  1.0000
  H   H1439     1.0  0.42755  0.08755  0.25060  1.0000
  H   H1440     1.0  0.41978  0.10981  0.24673  1.0000
  H   H1441     1.0  0.40624  0.09651  0.25916  1.0000
  N   N122      1.0  0.52923  0.14288  0.27569  1.0000
  C   C1452     1.0  0.51941  0.13887  0.26797  1.0000
  C   C1453     1.0  0.52449  0.14266  0.29227  1.0000
  C   C1454     1.0  0.50456  0.13415  0.27695  1.0000
  C   C1455     1.0  0.50975  0.13795  0.30163  1.0000
  C   C1456     1.0  0.49973  0.13370  0.29389  1.0000
  C   C1457     1.0  0.54426  0.14869  0.26594  1.0000
  H   H1442     1.0  0.52283  0.13968  0.25472  1.0000
  H   H1443     1.0  0.53185  0.14658  0.29827  1.0000
  H   H1444     1.0  0.49646  0.13158  0.27071  1.0000
  H   H1445     1.0  0.50579  0.13834  0.31465  1.0000
  H   H1446     1.0  0.48793  0.13069  0.30085  1.0000
  H   H1447     1.0  0.55396  0.14518  0.27328  1.0000
  H   H1448     1.0  0.54979  0.14313  0.25488  1.0000
  H   H1449     1.0  0.54128  0.16242  0.26177  1.0000
  Fe  Fe254     1.0  0.64938  0.22125  0.10121  1.0000
  Fe  Fe255     1.0  0.63582  0.21500  0.34980  1.0000
  C   C1458     1.0  0.48555  0.22161  0.28424  1.0000
  S   S495      1.0  0.63098  0.21824  0.08881  1.0000
  H   H1450     1.0  0.39681  0.18184  0.32092  1.0000
  H   H1451     1.0  0.57618  0.19975  0.38856  1.0000
  C   C1459     1.0  0.35081  0.17052  0.18362  1.0000
  C   C1460     1.0  0.64887  0.22491  0.44332  1.0000
  H   H1452     1.0  0.43209  0.19970  0.18993  1.0000
  C   C1461     1.0  0.39427  0.21959  0.23848  1.0000
  C   C1462     1.0  0.35509  0.16758  0.21126  1.0000
  C   C1463     1.0  0.35366  0.13267  0.12241  1.0000
  C   C1464     1.0  0.38570  0.18852  0.32791  1.0000
  H   H1453     1.0  0.36858  0.15142  0.04146  1.0000
  H   H1454     1.0  0.33629  0.16477  0.45699  1.0000
  C   C1465     1.0  0.36586  0.18992  0.35377  1.0000
  C   C1466     1.0  0.39661  0.20639  0.23096  1.0000
  C   C1467     1.0  0.58870  0.21799  0.38902  1.0000
  C   C1468     1.0  0.34575  0.16589  0.05289  1.0000
  C   C1469     1.0  0.34068  0.15866  0.10803  1.0000
  H   H1455     1.0  0.45232  0.19254  0.19508  1.0000
  S   S496      1.0  0.34593  0.22282  0.05838  1.0000
  S   S497      1.0  0.32297  0.18754  0.35029  1.0000
  H   H1456     1.0  0.33802  0.16841  0.18899  1.0000
  H   H1457     1.0  0.62693  0.22372  0.46279  1.0000
  C   C1470     1.0  0.32348  0.17141  0.45834  1.0000
  H   H1458     1.0  0.65182  0.22305  0.40363  1.0000
  H   H1459     1.0  0.49353  0.21659  0.31265  1.0000
  S   S498      1.0  0.32529  0.11176  0.18417  1.0000
  C   C1471     1.0  0.39803  0.22524  0.20410  1.0000
  C   C1472     1.0  0.58083  0.21073  0.38154  1.0000
  N   N123      1.0  0.43951  0.21657  0.19887  1.0000
  S   S499      1.0  0.64784  0.10623  0.24445  1.0000
  C   C1473     1.0  0.33379  0.18061  0.14108  1.0000
  C   C1474     1.0  0.33358  0.20360  0.02565  1.0000
  H   H1460     1.0  0.39502  0.20863  0.29870  1.0000
  C   C1475     1.0  0.62308  0.22129  0.43986  1.0000
  C   C1476     1.0  0.38155  0.20876  0.30232  1.0000
  H   H1461     1.0  0.37311  0.18969  0.22569  1.0000
  H   H1462     1.0  0.32332  0.98743  0.09724  1.0000
  H   H1463     1.0  0.43370  0.19282  0.21111  1.0000
  H   H1464     1.0  0.61044  0.21983  0.44504  1.0000
  H   H1465     1.0  0.64818  0.19044  0.46589  1.0000
  H   H1466     1.0  0.65430  0.16043  0.24737  1.0000
  H   H1467     1.0  0.33810  0.12017  0.14374  1.0000
  C   C1477     1.0  0.33861  0.13091  0.13355  1.0000
  Fe  Fe256     1.0  0.65376  0.14808  0.21450  1.0000
  H   H1468     1.0  0.57987  0.21823  0.10395  1.0000
  C   C1478     1.0  0.59905  0.22290  0.13813  1.0000
  C   C1479     1.0  0.32548  0.15742  0.11906  1.0000
  S   S500      1.0  0.32316  0.09789  0.22421  1.0000
  C   C1480     1.0  0.58493  0.22663  0.16589  1.0000
  H   H1469     1.0  0.60636  0.22733  0.12607  1.0000
  C   C1481     1.0  0.56395  0.22798  0.12489  1.0000
  C   C1482     1.0  0.57431  0.22922  0.10909  1.0000
  C   C1483     1.0  0.58512  0.23111  0.35670  1.0000
  H   H1470     1.0  0.61371  0.10860  0.73957  1.0000
  H   H1471     1.0  0.34042  0.21557  0.54632  1.0000
  H   H1472     1.0  0.62410  0.19440  0.55211  1.0000
  H   H1473     1.0  0.58141  0.20037  0.65596  1.0000
  H   H1474     1.0  0.43376  0.22909  0.58021  1.0000
  S   S501      1.0  0.64710  0.22361  0.73041  1.0000
  C   C1484     1.0  0.34077  0.18590  0.72261  1.0000
  H   H1475     1.0  0.39823  0.18404  0.57310  1.0000
  S   S502      1.0  0.55307  0.19286  0.62739  1.0000
  H   H1476     1.0  0.33426  0.18777  0.62305  1.0000
  C   C1485     1.0  0.65180  0.19507  0.82823  1.0000
  S   S503      1.0  0.39593  0.22469  0.63955  1.0000
  C   C1486     1.0  0.63058  0.16350  0.75192  1.0000
  C   C1487     1.0  0.64407  0.18321  0.66619  1.0000
  C   C1488     1.0  0.57879  0.20940  0.66351  1.0000
  Fe  Fe257     1.0  0.61455  0.17370  0.69704  1.0000
  H   H1477     1.0  0.32611  0.21742  0.59204  1.0000
  S   S504      1.0  0.64365  0.20883  0.81173  1.0000
  C   C1489     1.0  0.63841  0.14123  0.78060  1.0000
  S   S505      1.0  0.43806  0.20672  0.61295  1.0000
  N   N124      1.0  0.60577  0.21039  0.56645  1.0000
  Fe  Fe258     1.0  0.58440  0.15916  0.70648  1.0000
  S   S506      1.0  0.58986  0.17982  0.71398  1.0000
  S   S507      1.0  0.55894  0.16357  0.70177  1.0000
  Fe  Fe259     1.0  0.61800  0.13645  0.70968  1.0000
  H   H1478     1.0  0.55262  0.20990  0.67098  1.0000
  Fe  Fe260     1.0  0.60093  0.15952  0.73304  1.0000
  S   S508      1.0  0.59871  0.15953  0.75955  1.0000
  S   S509      1.0  0.59322  0.13930  0.72726  1.0000
  S   S510      1.0  0.60852  0.15438  0.68810  1.0000
  H   H1479     1.0  0.34444  0.19233  0.72979  1.0000
  S   S511      1.0  0.51477  0.22886  0.64197  1.0000
  S   S512      1.0  0.33885  0.18120  0.56246  1.0000
  H   H1480     1.0  0.42007  0.17235  0.58963  1.0000
  H   H1481     1.0  0.64828  0.20577  0.64864  1.0000
  C   C1490     1.0  0.63845  0.09872  0.72718  1.0000
  H   H1482     1.0  0.64937  0.99408  0.82284  1.0000
  Fe  Fe261     1.0  0.41057  0.21778  0.61567  1.0000
  C   C1491     1.0  0.59458  0.20096  0.76132  1.0000
  H   H1483     1.0  0.63574  0.14220  0.64655  1.0000
  Fe  Fe262     1.0  0.37654  0.21369  0.63657  1.0000
  Fe  Fe263     1.0  0.32238  0.18812  0.54390  1.0000
  S   S513      1.0  0.36107  0.20104  0.65949  1.0000
  H   H1484     1.0  0.41502  0.22964  0.55625  1.0000
  Fe  Fe264     1.0  0.65530  0.21772  0.51725  1.0000
  C   C1492     1.0  0.56948  0.17397  0.65162  1.0000
  C   C1493     1.0  0.65230  0.19241  0.65174  1.0000
  S   S514      1.0  0.39220  0.20417  0.61410  1.0000
  H   H1485     1.0  0.60552  0.19590  0.75228  1.0000
  H   H1486     1.0  0.58959  0.21407  0.75573  1.0000
  C   C1494     1.0  0.61074  0.19589  0.80511  1.0000
  C   C1495     1.0  0.33156  0.16951  0.70414  1.0000
  N   N125      1.0  0.59947  0.19944  0.77677  1.0000
  H   H1487     1.0  0.52920  0.19470  0.65818  1.0000
  S   S515      1.0  0.32650  0.22555  0.74517  1.0000
  C   C1496     1.0  0.63996  0.98725  0.79435  1.0000
  C   C1497     1.0  0.63237  0.02068  0.77971  1.0000
  C   C1498     1.0  0.40569  0.20741  0.56315  1.0000
  H   H1488     1.0  0.61547  0.19443  0.81600  1.0000
  C   C1499     1.0  0.47647  0.22386  0.61633  1.0000
  H   H1489     1.0  0.48894  0.21869  0.61827  1.0000
  C   C1500     1.0  0.45032  0.21995  0.61356  1.0000
  S   S516      1.0  0.62717  0.19326  0.67925  1.0000
  H   H1490     1.0  0.58486  0.19386  0.76348  1.0000
  C   C1501     1.0  0.36137  0.21869  0.57346  1.0000
  H   H1491     1.0  0.61602  0.21476  0.54074  1.0000
  C   C1502     1.0  0.59397  0.20112  0.57082  1.0000
  S   S517      1.0  0.64170  0.06223  0.77680  1.0000
  H   H1492     1.0  0.36215  0.18832  0.70238  1.0000
  C   C1503     1.0  0.62256  0.14418  0.77750  1.0000
  H   H1493     1.0  0.46580  0.23068  0.65124  1.0000
  C   C1504     1.0  0.64595  0.13200  0.64942  1.0000
  H   H1494     1.0  0.43940  0.18934  0.58878  1.0000
  Fe  Fe265     1.0  0.38046  0.22879  0.59998  1.0000
  C   C1505     1.0  0.60680  0.18246  0.80206  1.0000
  C   C1506     1.0  0.64633  0.16070  0.75510  1.0000
  S   S518      1.0  0.63737  0.11278  0.70806  1.0000
  S   S519      1.0  0.33195  0.23001  0.77968  1.0000
  H   H1495     1.0  0.60219  0.22443  0.77086  1.0000
  H   H1496     1.0  0.62750  0.17247  0.74104  1.0000
  N   N126      1.0  0.58817  0.22735  0.67427  1.0000
  H   H1497     1.0  0.47800  0.20769  0.67217  1.0000
  H   H1498     1.0  0.62594  0.98359  0.77890  1.0000
  H   H1499     1.0  0.64132  0.13286  0.79185  1.0000
  C   C1507     1.0  0.61977  0.20775  0.55249  1.0000
  C   C1508     1.0  0.35347  0.22325  0.56012  1.0000
  C   C1509     1.0  0.34631  0.17514  0.69810  1.0000
  H   H1500     1.0  0.57109  0.19613  0.58769  1.0000
  C   C1510     1.0  0.59152  0.21584  0.66486  1.0000
  C   C1511     1.0  0.56264  0.21461  0.67205  1.0000
  C   C1512     1.0  0.64061  0.07610  0.75760  1.0000
  H   H1501     1.0  0.35402  0.17330  0.68614  1.0000
  Fe  Fe266     1.0  0.65087  0.23029  0.48151  1.0000
  Fe  Fe267     1.0  0.53847  0.21907  0.62528  1.0000
  H   H1502     1.0  0.63058  0.21190  0.55342  1.0000
  C   C1513     1.0  0.46658  0.21338  0.61593  1.0000
  H   H1503     1.0  0.56841  0.21774  0.60268  1.0000
  H   H1504     1.0  0.65536  0.16741  0.74659  1.0000
  H   H1505     1.0  0.45140  0.21274  0.57598  1.0000
  C   C1514     1.0  0.48671  0.22383  0.68154  1.0000
  C   C1515     1.0  0.55944  0.22594  0.68201  1.0000
  H   H1506     1.0  0.60838  0.17048  0.81056  1.0000
  H   H1507     1.0  0.59801  0.17402  0.78553  1.0000
  H   H1508     1.0  0.64549  0.13007  0.73749  1.0000
  C   C1516     1.0  0.34438  0.19725  0.65430  1.0000
  C   C1517     1.0  0.64395  0.12053  0.66446  1.0000
  C   C1518     1.0  0.57099  0.16767  0.66812  1.0000
  C   C1519     1.0  0.54224  0.18051  0.67738  1.0000
  C   C1520     1.0  0.33276  0.19058  0.63492  1.0000
  C   C1521     1.0  0.34606  0.19411  0.63876  1.0000
  H   H1509     1.0  0.60408  0.21155  0.65836  1.0000
  C   C1522     1.0  0.55737  0.17098  0.68103  1.0000
  H   H1510     1.0  0.64691  0.02377  0.79476  1.0000
  H   H1511     1.0  0.35770  0.19413  0.62981  1.0000
  H   H1512     1.0  0.61549  0.08860  0.76619  1.0000
  H   H1513     1.0  0.39601  0.21273  0.55618  1.0000
  C   C1523     1.0  0.62503  0.09947  0.74074  1.0000
  H   H1514     1.0  0.58000  0.17132  0.64166  1.0000
  C   C1524     1.0  0.58046  0.20350  0.58407  1.0000
  S   S520      1.0  0.32499  0.20514  0.51870  1.0000
  C   C1525     1.0  0.41917  0.18475  0.58190  1.0000
  C   C1526     1.0  0.34748  0.19584  0.56637  1.0000
  C   C1527     1.0  0.34643  0.21193  0.55666  1.0000
  S   S521      1.0  0.63786  0.21444  0.50390  1.0000
  N   N127      1.0  0.64619  0.99833  0.79834  1.0000
  C   C1528     1.0  0.36221  0.20267  0.58334  1.0000
  C   C1529     1.0  0.35544  0.19126  0.57969  1.0000
  C   C1530     1.0  0.43006  0.19446  0.58139  1.0000
  C   C1531     1.0  0.62603  0.08805  0.75583  1.0000
  H   H1515     1.0  0.36819  0.19903  0.59369  1.0000
  H   H1516     1.0  0.35624  0.17885  0.58731  1.0000
  H   H1517     1.0  0.32767  0.16338  0.69686  1.0000
  C   C1532     1.0  0.65027  0.14953  0.76939  1.0000
  H   H1518     1.0  0.61234  0.22153  0.79600  1.0000
  H   H1519     1.0  0.63214  0.12165  0.67332  1.0000
  S   S522      1.0  0.62624  0.15550  0.71678  1.0000
  H   H1520     1.0  0.61301  0.23054  0.57052  1.0000
  H   H1521     1.0  0.62955  0.03383  0.77408  1.0000
  C   C1533     1.0  0.60332  0.21266  0.77966  1.0000
  C   C1534     1.0  0.35088  0.18358  0.70725  1.0000
  C   C1535     1.0  0.62637  0.00941  0.77520  1.0000
  H   H1522     1.0  0.53164  0.18293  0.68734  1.0000
  C   C1536     1.0  0.55450  0.18398  0.64801  1.0000
  C   C1537     1.0  0.64111  0.18943  0.84300  1.0000
  C   C1538     1.0  0.57895  0.21563  0.59260  1.0000
  H   H1523     1.0  0.49238  0.21389  0.69047  1.0000
  H   H1524     1.0  0.47151  0.20015  0.61758  1.0000
  H   H1525     1.0  0.63922  0.17306  0.86711  1.0000
  H   H1526     1.0  0.62785  0.19390  0.84440  1.0000
  H   H1527     1.0  0.58256  0.16000  0.67085  1.0000
  H   H1528     1.0  0.54689  0.23004  0.68866  1.0000
  C   C1539     1.0  0.61869  0.15526  0.76310  1.0000
  C   C1540     1.0  0.59081  0.22528  0.58784  1.0000
  C   C1541     1.0  0.54087  0.18724  0.66090  1.0000
  S   S523      1.0  0.64698  0.19236  0.77305  1.0000
  C   C1542     1.0  0.65421  0.07559  0.74416  1.0000
  H   H1529     1.0  0.61330  0.13790  0.78622  1.0000
  C   C1543     1.0  0.64226  0.01490  0.79143  1.0000
  C   C1544     1.0  0.40694  0.19129  0.57267  1.0000
  C   C1545     1.0  0.47869  0.22034  0.67126  1.0000
  C   C1546     1.0  0.60108  0.18450  0.78778  1.0000
  C   C1547     1.0  0.32933  0.19717  0.66586  1.0000
  C   C1548     1.0  0.60415  0.22260  0.57453  1.0000
  H   H1530     1.0  0.64262  0.11356  0.76407  1.0000
  C   C1549     1.0  0.64755  0.17764  0.85583  1.0000
  H   H1531     1.0  0.44397  0.22773  0.55906  1.0000
  H   H1532     1.0  0.64323  0.15878  0.68142  1.0000
  C   C1550     1.0  0.44002  0.22047  0.57173  1.0000
  H   H1533     1.0  0.32780  0.20009  0.67768  1.0000
  H   H1534     1.0  0.59493  0.19188  0.56401  1.0000
  H   H1535     1.0  0.61893  0.01370  0.76591  1.0000
  N   N128      1.0  0.32646  0.18011  0.72856  1.0000
  N   N129      1.0  0.42876  0.21027  0.57196  1.0000
  C   C1551     1.0  0.60895  0.21112  0.79389  1.0000
  C   C1552     1.0  0.65304  0.08672  0.72892  1.0000
  C   C1553     1.0  0.63013  0.99258  0.78259  1.0000
  C   C1554     1.0  0.41655  0.21689  0.56318  1.0000
  H   H1536     1.0  0.65256  0.17249  0.49541  1.0000
  H   H1537     1.0  0.32717  0.14102  0.49184  1.0000
  S   S524      1.0  0.32751  0.17731  0.48671  1.0000
  H   H1538     1.0  0.60613  0.22675  0.68709  1.0000
  C   C1555     1.0  0.64934  0.16595  0.67016  1.0000
  H   H1539     1.0  0.32325  0.17462  0.75471  1.0000
  H   H1540     1.0  0.64300  0.29084  0.16213  1.0000
  H   H1541     1.0  0.35722  0.33897  0.09662  1.0000
  H   H1542     1.0  0.65062  0.26157  0.42692  1.0000
  C   C1556     1.0  0.59322  0.23857  0.36374  1.0000
  H   H1543     1.0  0.60871  0.45625  0.19757  1.0000
  H   H1544     1.0  0.33642  0.33248  0.18016  1.0000
  H   H1545     1.0  0.55937  0.30865  0.23627  1.0000
  Fe  Fe268     1.0  0.53726  0.28631  0.19580  1.0000
  S   S525      1.0  0.53585  0.30524  0.17207  1.0000
  S   S526      1.0  0.52090  0.29447  0.21861  1.0000
  Fe  Fe269     1.0  0.56448  0.26178  0.17889  1.0000
  S   S527      1.0  0.56528  0.27884  0.15400  1.0000
  S   S528      1.0  0.58170  0.23674  0.18199  1.0000
  Fe  Fe270     1.0  0.56373  0.29860  0.16734  1.0000
  S   S529      1.0  0.57958  0.31803  0.15758  1.0000
  Fe  Fe271     1.0  0.53731  0.28350  0.16159  1.0000
  S   S530      1.0  0.52251  0.28150  0.14428  1.0000
  S   S531      1.0  0.56489  0.28103  0.19176  1.0000
  S   S532      1.0  0.53679  0.26504  0.18576  1.0000
  Fe  Fe272     1.0  0.62851  0.39481  0.19577  1.0000
  S   S533      1.0  0.62756  0.37273  0.21709  1.0000
  C   C1557     1.0  0.64994  0.33485  0.14494  1.0000
  C   C1558     1.0  0.63531  0.28611  0.15723  1.0000
  C   C1559     1.0  0.56054  0.33678  0.21506  1.0000
  Fe  Fe273     1.0  0.62465  0.35948  0.19904  1.0000
  S   S534      1.0  0.60810  0.34088  0.20635  1.0000
  C   C1560     1.0  0.49066  0.23750  0.25618  1.0000
  S   S535      1.0  0.62290  0.38236  0.17871  1.0000
  H   H1546     1.0  0.62636  0.47442  0.19869  1.0000
  C   C1561     1.0  0.54726  0.32661  0.20034  1.0000
  H   H1547     1.0  0.32728  0.36145  0.16563  1.0000
  H   H1548     1.0  0.64224  0.26341  0.44794  1.0000
  C   C1562     1.0  0.65055  0.34945  0.14880  1.0000
  C   C1563     1.0  0.63139  0.46130  0.19929  1.0000
  H   H1549     1.0  0.50104  0.23509  0.30813  1.0000
  H   H1550     1.0  0.58615  0.24553  0.08814  1.0000
  H   H1551     1.0  0.64963  0.41452  0.20096  1.0000
  C   C1564     1.0  0.63937  0.44274  0.15792  1.0000
  N   N130      1.0  0.55307  0.32502  0.21408  1.0000
  C   C1565     1.0  0.62171  0.40389  0.24453  1.0000
  C   C1566     1.0  0.38703  0.25618  0.10769  1.0000
  H   H1552     1.0  0.37301  0.33380  0.19134  1.0000
  C   C1567     1.0  0.44478  0.24334  0.18391  1.0000
  S   S536      1.0  0.34237  0.38116  0.13500  1.0000
  H   H1553     1.0  0.63925  0.40991  0.26283  1.0000
  Fe  Fe274     1.0  0.42584  0.27998  0.15669  1.0000
  S   S537      1.0  0.40486  0.27453  0.17820  1.0000
  S   S538      1.0  0.44413  0.28747  0.16654  1.0000
  Fe  Fe275     1.0  0.40787  0.27439  0.13311  1.0000
  S   S539      1.0  0.38587  0.26868  0.15288  1.0000
  S   S540      1.0  0.40857  0.27624  0.10629  1.0000
  Fe  Fe276     1.0  0.38786  0.29017  0.16165  1.0000
  S   S541      1.0  0.36502  0.30728  0.17270  1.0000
  Fe  Fe277     1.0  0.40477  0.25359  0.16766  1.0000
  C   C1568     1.0  0.40288  0.31723  0.17870  1.0000
  S   S542      1.0  0.40856  0.29730  0.14078  1.0000
  S   S543      1.0  0.42703  0.25761  0.14718  1.0000
  H   H1554     1.0  0.55346  0.29927  0.22329  1.0000
  C   C1569     1.0  0.57087  0.25844  0.10720  1.0000
  H   H1555     1.0  0.37658  0.32067  0.08072  1.0000
  S   S544      1.0  0.37359  0.24303  0.07147  1.0000
  H   H1556     1.0  0.40997  0.31759  0.18752  1.0000
  C   C1570     1.0  0.39857  0.26585  0.09805  1.0000
  H   H1557     1.0  0.61859  0.24123  0.16529  1.0000
  N   N131      1.0  0.39458  0.33406  0.17178  1.0000
  H   H1558     1.0  0.54970  0.24776  0.15544  1.0000
  C   C1571     1.0  0.39417  0.26107  0.07321  1.0000
  C   C1572     1.0  0.40198  0.26822  0.08084  1.0000
  H   H1559     1.0  0.64683  0.28143  0.43189  1.0000
  C   C1573     1.0  0.62146  0.45102  0.19857  1.0000
  H   H1560     1.0  0.39710  0.26301  0.05986  1.0000
  H   H1561     1.0  0.41082  0.27564  0.07326  1.0000
  C   C1574     1.0  0.35875  0.32753  0.16161  1.0000
  C   C1575     1.0  0.34387  0.33744  0.16839  1.0000
  C   C1576     1.0  0.33861  0.35381  0.16012  1.0000
  C   C1577     1.0  0.34825  0.36038  0.14504  1.0000
  C   C1578     1.0  0.36308  0.35042  0.13815  1.0000
  C   C1579     1.0  0.36834  0.33400  0.14643  1.0000
  H   H1562     1.0  0.59848  0.24913  0.35644  1.0000
  H   H1563     1.0  0.37265  0.37856  0.15376  1.0000
  H   H1564     1.0  0.37058  0.35549  0.12648  1.0000
  H   H1565     1.0  0.37981  0.32643  0.14110  1.0000
  H   H1566     1.0  0.62299  0.41864  0.16194  1.0000
  C   C1580     1.0  0.62399  0.29713  0.14830  1.0000
  H   H1567     1.0  0.35895  0.36239  0.18014  1.0000
  H   H1568     1.0  0.47888  0.23618  0.31384  1.0000
  C   C1581     1.0  0.43522  0.23800  0.21355  1.0000
  H   H1569     1.0  0.39353  0.25105  0.20446  1.0000
  C   C1582     1.0  0.62422  0.45092  0.24950  1.0000
  H   H1570     1.0  0.54119  0.31739  0.19965  1.0000
  C   C1583     1.0  0.50082  0.28248  0.15086  1.0000
  C   C1584     1.0  0.49179  0.28703  0.16573  1.0000
  C   C1585     1.0  0.47450  0.28834  0.17033  1.0000
  C   C1586     1.0  0.46603  0.28490  0.16028  1.0000
  C   C1587     1.0  0.47509  0.27997  0.14557  1.0000
  C   C1588     1.0  0.49239  0.27888  0.14085  1.0000
  H   H1571     1.0  0.49809  0.28987  0.17355  1.0000
  H   H1572     1.0  0.46764  0.29220  0.18171  1.0000
  H   H1573     1.0  0.46875  0.27737  0.13765  1.0000
  H   H1574     1.0  0.49924  0.27540  0.12930  1.0000
  C   C1589     1.0  0.63364  0.41937  0.15112  1.0000
  C   C1590     1.0  0.63324  0.43647  0.25785  1.0000
  H   H1575     1.0  0.34167  0.46182  0.16186  1.0000
  H   H1576     1.0  0.64140  0.43715  0.26515  1.0000
  C   C1591     1.0  0.57790  0.24452  0.10028  1.0000
  H   H1577     1.0  0.58409  0.23621  0.34393  1.0000
  C   C1592     1.0  0.37132  0.35716  0.17386  1.0000
  H   H1578     1.0  0.43128  0.24219  0.22509  1.0000
  C   C1593     1.0  0.39470  0.35916  0.15077  1.0000
  N   N132      1.0  0.49039  0.23283  0.28948  1.0000
  C   C1594     1.0  0.58945  0.32306  0.17057  1.0000
  C   C1595     1.0  0.59679  0.33693  0.16480  1.0000
  C   C1596     1.0  0.60342  0.34208  0.17533  1.0000
  C   C1597     1.0  0.60279  0.33335  0.19174  1.0000
  C   C1598     1.0  0.59624  0.31900  0.19721  1.0000
  C   C1599     1.0  0.58960  0.31389  0.18671  1.0000
  H   H1579     1.0  0.59691  0.34403  0.15228  1.0000
  H   H1580     1.0  0.60847  0.35313  0.17093  1.0000
  H   H1581     1.0  0.59583  0.31208  0.20982  1.0000
  H   H1582     1.0  0.58430  0.30307  0.19128  1.0000
  H   H1583     1.0  0.53784  0.31288  0.23511  1.0000
  C   C1600     1.0  0.52961  0.26118  0.26799  1.0000
  C   C1601     1.0  0.52056  0.27752  0.26704  1.0000
  C   C1602     1.0  0.51789  0.28754  0.25180  1.0000
  C   C1603     1.0  0.52466  0.28144  0.23736  1.0000
  C   C1604     1.0  0.53407  0.26520  0.23816  1.0000
  C   C1605     1.0  0.53635  0.25496  0.25356  1.0000
  H   H1584     1.0  0.51526  0.28232  0.27818  1.0000
  H   H1585     1.0  0.51056  0.30006  0.25121  1.0000
  H   H1586     1.0  0.53931  0.26044  0.22699  1.0000
  H   H1587     1.0  0.54331  0.24229  0.25426  1.0000
  H   H1588     1.0  0.55984  0.36164  0.17689  1.0000
  H   H1589     1.0  0.60693  0.46093  0.23344  1.0000
  C   C1606     1.0  0.44013  0.24883  0.19866  1.0000
  S   S545      1.0  0.32860  0.23524  0.09341  1.0000
  H   H1590     1.0  0.63958  0.40651  0.14946  1.0000
  C   C1607     1.0  0.34306  0.31848  0.13552  1.0000
  H   H1591     1.0  0.64133  0.35406  0.15883  1.0000
  H   H1592     1.0  0.64572  0.26056  0.16644  1.0000
  C   C1608     1.0  0.35617  0.32872  0.10726  1.0000
  H   H1593     1.0  0.59745  0.24432  0.14738  1.0000
  C   C1609     1.0  0.37904  0.36624  0.15905  1.0000
  C   C1610     1.0  0.56056  0.25676  0.12303  1.0000
  C   C1611     1.0  0.56291  0.35024  0.20179  1.0000
  H   H1594     1.0  0.62624  0.44840  0.15961  1.0000
  N   N133      1.0  0.64522  0.42755  0.15386  1.0000
  C   C1612     1.0  0.55084  0.31081  0.22792  1.0000
  C   C1613     1.0  0.54949  0.33985  0.18682  1.0000
  H   H1595     1.0  0.62895  0.42645  0.13985  1.0000
  H   H1596     1.0  0.64096  0.23803  0.15888  1.0000
  H   H1597     1.0  0.56534  0.33549  0.22584  1.0000
  C   C1614     1.0  0.61621  0.27385  0.14425  1.0000
  H   H1598     1.0  0.62410  0.40401  0.23114  1.0000
  C   C1615     1.0  0.63683  0.26903  0.15953  1.0000
  C   C1616     1.0  0.49436  0.24684  0.27862  1.0000
  C   C1617     1.0  0.39282  0.23577  0.22893  1.0000
  H   H1599     1.0  0.38429  0.25424  0.12101  1.0000
  C   C1618     1.0  0.37907  0.24893  0.09993  1.0000
  C   C1619     1.0  0.36542  0.30072  0.12036  1.0000
  H   H1600     1.0  0.33422  0.32054  0.14690  1.0000
  H   H1601     1.0  0.39372  0.30930  0.18515  1.0000
  H   H1602     1.0  0.37899  0.29879  0.08881  1.0000
  H   H1603     1.0  0.53366  0.24463  0.14762  1.0000
  H   H1604     1.0  0.41456  0.33752  0.15090  1.0000
  H   H1605     1.0  0.60932  0.40107  0.25067  1.0000
  H   H1606     1.0  0.62269  0.31042  0.14641  1.0000
  C   C1620     1.0  0.40239  0.34299  0.15741  1.0000
  H   H1607     1.0  0.64540  0.46289  0.16397  1.0000
  H   H1608     1.0  0.55504  0.26765  0.12829  1.0000
  H   H1609     1.0  0.49760  0.25602  0.28291  1.0000
  N   N134      1.0  0.36637  0.31342  0.10670  1.0000
  C   C1621     1.0  0.35377  0.30305  0.13497  1.0000
  H   H1610     1.0  0.56961  0.35904  0.20230  1.0000
  C   C1622     1.0  0.62806  0.43405  0.19904  1.0000
  N   N135      1.0  0.62233  0.42004  0.24669  1.0000
  C   C1623     1.0  0.61308  0.43412  0.23884  1.0000
  H   H1611     1.0  0.37026  0.24143  0.10731  1.0000
  C   C1624     1.0  0.63199  0.42104  0.25645  1.0000
  H   H1612     1.0  0.65004  0.27221  0.38900  1.0000
  H   H1613     1.0  0.60533  0.29952  0.13503  1.0000
  H   H1614     1.0  0.35326  0.29308  0.14592  1.0000
  H   H1615     1.0  0.60863  0.26921  0.13916  1.0000
  S   S546      1.0  0.53101  0.24852  0.28755  1.0000
  C   C1625     1.0  0.61434  0.29099  0.14179  1.0000
  C   C1626     1.0  0.64449  0.42747  0.20037  1.0000
  H   H1616     1.0  0.39142  0.30994  0.09352  1.0000
  C   C1627     1.0  0.32856  0.46696  0.16259  1.0000
  H   H1617     1.0  0.54557  0.34059  0.17565  1.0000
  C   C1628     1.0  0.55747  0.35167  0.18753  1.0000
  H   H1618     1.0  0.49129  0.23910  0.24310  1.0000
  C   C1629     1.0  0.49478  0.24930  0.26178  1.0000
  S   S547      1.0  0.65032  0.24568  0.10503  1.0000
  H   H1619     1.0  0.37379  0.28871  0.12002  1.0000
  H   H1620     1.0  0.41164  0.31115  0.16884  1.0000
  C   C1630     1.0  0.61393  0.44976  0.24007  1.0000
  C   C1631     1.0  0.62906  0.24519  0.15540  1.0000
  H   H1621     1.0  0.39076  0.24606  0.23472  1.0000
  C   C1632     1.0  0.64799  0.45461  0.20022  1.0000
  S   S548      1.0  0.63831  0.23226  0.36408  1.0000
  N   N136      1.0  0.62748  0.26311  0.15287  1.0000
  C   C1633     1.0  0.37932  0.34099  0.18010  1.0000
  H   H1622     1.0  0.62526  0.46298  0.25026  1.0000
  S   S549      1.0  0.65206  0.35035  0.19087  1.0000
  S   S550      1.0  0.61566  0.42124  0.19796  1.0000
  C   C1634     1.0  0.65100  0.26788  0.43644  1.0000
  H   H1623     1.0  0.49857  0.26014  0.25312  1.0000
  C   C1635     1.0  0.37891  0.31068  0.09168  1.0000
  C   C1636     1.0  0.59491  0.23200  0.38004  1.0000
  H   H1624     1.0  0.57339  0.27047  0.10040  1.0000
  H   H1625     1.0  0.44023  0.26150  0.19844  1.0000
  H   H1626     1.0  0.33641  0.34368  0.12216  1.0000
  C   C1637     1.0  0.54689  0.24015  0.14844  1.0000
  H   H1627     1.0  0.32434  0.44600  0.15622  1.0000
  H   H1628     1.0  0.62900  0.24195  0.14376  1.0000
  C   C1638     1.0  0.39459  0.23859  0.21174  1.0000
  H   H1629     1.0  0.64037  0.32819  0.15214  1.0000
  H   H1630     1.0  0.32729  0.47552  0.12030  1.0000
  H   H1631     1.0  0.60528  0.43329  0.23123  1.0000
  H   H1632     1.0  0.44863  0.25168  0.17228  1.0000
  H   H1633     1.0  0.60126  0.23759  0.38564  1.0000
  H   H1634     1.0  0.40071  0.36608  0.13915  1.0000
  Fe  Fe278     1.0  0.65049  0.37401  0.17170  1.0000
  H   H1635     1.0  0.63129  0.39367  0.24972  1.0000
  N   N137      1.0  0.55754  0.24160  0.13180  1.0000
  C   C1639     1.0  0.34429  0.33146  0.12163  1.0000
  C   C1640     1.0  0.38270  0.25138  0.08259  1.0000
  C   C1641     1.0  0.65012  0.45097  0.16044  1.0000
  C   C1642     1.0  0.59395  0.23256  0.15013  1.0000
  C   C1643     1.0  0.65445  0.43768  0.20083  1.0000
  Fe  Fe279     1.0  0.65495  0.36543  0.20700  1.0000
  H   H1636     1.0  0.65516  0.26594  0.12402  1.0000
  S   S551      1.0  0.52471  0.25539  0.66633  1.0000
  H   H1637     1.0  0.35659  0.26267  0.75784  1.0000
  H   H1638     1.0  0.49117  0.27354  0.65582  1.0000
  Fe  Fe280     1.0  0.57450  0.30168  0.69310  1.0000
  S   S552      1.0  0.55732  0.29412  0.71722  1.0000
  S   S553      1.0  0.57951  0.28878  0.67198  1.0000
  Fe  Fe281     1.0  0.58208  0.32922  0.70471  1.0000
  S   S554      1.0  0.56500  0.32380  0.72957  1.0000
  S   S555      1.0  0.59755  0.34895  0.69619  1.0000
  Fe  Fe282     1.0  0.57642  0.29705  0.72871  1.0000
  S   S556      1.0  0.58380  0.27833  0.75094  1.0000
  Fe  Fe283     1.0  0.54757  0.32144  0.71549  1.0000
  S   S557      1.0  0.52006  0.33263  0.72082  1.0000
  S   S558      1.0  0.59461  0.30251  0.70471  1.0000
  S   S559      1.0  0.56363  0.32899  0.69055  1.0000
  H   H1639     1.0  0.45600  0.28867  0.60913  1.0000
  S   S560      1.0  0.62837  0.42890  0.72335  1.0000
  H   H1640     1.0  0.42572  0.28640  0.61056  1.0000
  C   C1644     1.0  0.40947  0.26024  0.64017  1.0000
  H   H1641     1.0  0.54976  0.29476  0.76494  1.0000
  C   C1645     1.0  0.33862  0.46544  0.68449  1.0000
  Fe  Fe284     1.0  0.63480  0.40127  0.73253  1.0000
  S   S561      1.0  0.61519  0.38569  0.74170  1.0000
  S   S562      1.0  0.63409  0.25423  0.48657  1.0000
  C   C1646     1.0  0.57123  0.24258  0.54849  1.0000
  C   C1647     1.0  0.57079  0.25876  0.56776  1.0000
  S   S563      1.0  0.51975  0.26592  0.62021  1.0000
  H   H1642     1.0  0.63315  0.23534  0.76089  1.0000
  H   H1643     1.0  0.65209  0.25002  0.79067  1.0000
  N   N138      1.0  0.52280  0.33098  0.66403  1.0000
  H   H1644     1.0  0.56979  0.24125  0.69056  1.0000
  H   H1645     1.0  0.50265  0.31282  0.75122  1.0000
  C   C1648     1.0  0.51003  0.32580  0.66176  1.0000
  H   H1646     1.0  0.55208  0.24541  0.57039  1.0000
  C   C1649     1.0  0.39123  0.28289  0.65217  1.0000
  C   C1650     1.0  0.36178  0.34352  0.70887  1.0000
  Fe  Fe285     1.0  0.43032  0.29189  0.68078  1.0000
  S   S564      1.0  0.43979  0.28535  0.70396  1.0000
  S   S565      1.0  0.43509  0.27270  0.66590  1.0000
  Fe  Fe286     1.0  0.41847  0.32842  0.68176  1.0000
  S   S566      1.0  0.42734  0.32527  0.70491  1.0000
  S   S567      1.0  0.40438  0.35080  0.66666  1.0000
  Fe  Fe287     1.0  0.45020  0.30829  0.69339  1.0000
  S   S568      1.0  0.47803  0.30402  0.68994  1.0000
  Fe  Fe288     1.0  0.41633  0.30255  0.71344  1.0000
  S   S569      1.0  0.39852  0.29669  0.73773  1.0000
  S   S570      1.0  0.44219  0.31362  0.66945  1.0000
  S   S571      1.0  0.40595  0.30697  0.69112  1.0000
  C   C1651     1.0  0.36841  0.33052  0.72061  1.0000
  C   C1652     1.0  0.36814  0.26451  0.74931  1.0000
  H   H1647     1.0  0.36701  0.32000  0.74655  1.0000
  N   N139      1.0  0.43334  0.29984  0.62354  1.0000
  H   H1648     1.0  0.38863  0.32629  0.62827  1.0000
  H   H1649     1.0  0.37870  0.32079  0.71674  1.0000
  C   C1653     1.0  0.36181  0.33011  0.73739  1.0000
  H   H1650     1.0  0.35692  0.23700  0.65811  1.0000
  C   C1654     1.0  0.39005  0.28007  0.73819  1.0000
  C   C1655     1.0  0.51932  0.34445  0.67272  1.0000
  H   H1651     1.0  0.49253  0.29707  0.73959  1.0000
  C   C1656     1.0  0.48759  0.24024  0.68003  1.0000
  C   C1657     1.0  0.52961  0.30561  0.64729  1.0000
  C   C1658     1.0  0.36730  0.38829  0.69513  1.0000
  C   C1659     1.0  0.36507  0.38686  0.68016  1.0000
  C   C1660     1.0  0.37664  0.37546  0.67139  1.0000
  C   C1661     1.0  0.39021  0.36514  0.67778  1.0000
  C   C1662     1.0  0.39221  0.36632  0.69295  1.0000
  C   C1663     1.0  0.38090  0.37803  0.70149  1.0000
  H   H1652     1.0  0.35460  0.39473  0.67517  1.0000
  H   H1653     1.0  0.37503  0.37458  0.65967  1.0000
  H   H1654     1.0  0.40266  0.35843  0.69794  1.0000
  H   H1655     1.0  0.38264  0.37905  0.71310  1.0000
  C   C1664     1.0  0.40124  0.31903  0.62673  1.0000
  C   C1665     1.0  0.44412  0.23705  0.61133  1.0000
  C   C1666     1.0  0.40359  0.28320  0.65980  1.0000
  N   N140      1.0  0.34226  0.35562  0.73061  1.0000
  S   S572      1.0  0.63996  0.44942  0.75410  1.0000
  H   H1656     1.0  0.40133  0.29223  0.66717  1.0000
  H   H1657     1.0  0.60542  0.40146  0.67358  1.0000
  H   H1658     1.0  0.56551  0.23482  0.54481  1.0000
  C   C1667     1.0  0.59341  0.25679  0.54348  1.0000
  H   H1659     1.0  0.52094  0.35621  0.66367  1.0000
  Fe  Fe289     1.0  0.34147  0.23887  0.75243  1.0000
  H   H1660     1.0  0.52779  0.34153  0.68132  1.0000
  H   H1661     1.0  0.41199  0.25160  0.63232  1.0000
  H   H1662     1.0  0.34359  0.34238  0.75530  1.0000
  H   H1663     1.0  0.37944  0.29163  0.65379  1.0000
  C   C1668     1.0  0.40606  0.30628  0.61812  1.0000
  H   H1664     1.0  0.38446  0.24158  0.70135  1.0000
  H   H1665     1.0  0.48521  0.27151  0.67788  1.0000
  C   C1669     1.0  0.56362  0.24853  0.56302  1.0000
  H   H1666     1.0  0.44943  0.27655  0.62950  1.0000
  C   C1670     1.0  0.48167  0.26993  0.66702  1.0000
  H   H1667     1.0  0.35440  0.44117  0.73329  1.0000
  C   C1671     1.0  0.42872  0.31234  0.63196  1.0000
  C   C1672     1.0  0.58566  0.26295  0.55789  1.0000
  H   H1668     1.0  0.50650  0.34625  0.68042  1.0000
  H   H1669     1.0  0.36884  0.28576  0.75766  1.0000
  C   C1673     1.0  0.41262  0.32210  0.63373  1.0000
  H   H1670     1.0  0.60477  0.26022  0.53587  1.0000
  C   C1674     1.0  0.54252  0.31139  0.64914  1.0000
  C   C1675     1.0  0.57660  0.39467  0.70915  1.0000
  C   C1676     1.0  0.50795  0.32401  0.71340  1.0000
  C   C1677     1.0  0.51546  0.31144  0.70466  1.0000
  C   C1678     1.0  0.50587  0.30504  0.69823  1.0000
  C   C1679     1.0  0.48873  0.31119  0.70031  1.0000
  C   C1680     1.0  0.48106  0.32356  0.70935  1.0000
  C   C1681     1.0  0.49069  0.32996  0.71590  1.0000
  H   H1671     1.0  0.52873  0.30697  0.70240  1.0000
  H   H1672     1.0  0.51184  0.29569  0.69102  1.0000
  H   H1673     1.0  0.46784  0.32848  0.71091  1.0000
  H   H1674     1.0  0.48481  0.33976  0.72262  1.0000
  C   C1682     1.0  0.60158  0.26336  0.74514  1.0000
  C   C1683     1.0  0.61144  0.25436  0.75654  1.0000
  H   H1675     1.0  0.65199  0.26614  0.53123  1.0000
  S   S573      1.0  0.55208  0.23671  0.62771  1.0000
  C   C1684     1.0  0.61987  0.24795  0.72482  1.0000
  C   C1685     1.0  0.60581  0.26011  0.72928  1.0000
  H   H1676     1.0  0.60823  0.25690  0.76879  1.0000
  S   S574      1.0  0.64871  0.43784  0.67789  1.0000
  N   N141      1.0  0.36415  0.24797  0.68983  1.0000
  H   H1677     1.0  0.59816  0.26684  0.72048  1.0000
  C   C1686     1.0  0.60407  0.35665  0.70990  1.0000
  C   C1687     1.0  0.59557  0.35596  0.72638  1.0000
  C   C1688     1.0  0.59957  0.36436  0.73620  1.0000
  C   C1689     1.0  0.61217  0.37340  0.72970  1.0000
  C   C1690     1.0  0.62117  0.37344  0.71346  1.0000
  C   C1691     1.0  0.61708  0.36517  0.70360  1.0000
  H   H1678     1.0  0.58551  0.34948  0.73138  1.0000
  H   H1679     1.0  0.59257  0.36420  0.74877  1.0000
  H   H1680     1.0  0.63099  0.38018  0.70834  1.0000
  H   H1681     1.0  0.62378  0.36570  0.69090  1.0000
  H   H1682     1.0  0.58233  0.38688  0.68611  1.0000
  S   S575      1.0  0.64976  0.40353  0.74923  1.0000
  H   H1683     1.0  0.55196  0.26780  0.75837  1.0000
  H   H1684     1.0  0.39714  0.30338  0.61314  1.0000
  Fe  Fe290     1.0  0.52786  0.24801  0.64229  1.0000
  H   H1685     1.0  0.50735  0.28096  0.73080  1.0000
  H   H1686     1.0  0.59833  0.41720  0.71824  1.0000
  C   C1692     1.0  0.54037  0.26405  0.66792  1.0000
  C   C1693     1.0  0.53860  0.26966  0.68223  1.0000
  C   C1694     1.0  0.55058  0.27715  0.68367  1.0000
  C   C1695     1.0  0.56466  0.27866  0.67098  1.0000
  C   C1696     1.0  0.56678  0.27239  0.65694  1.0000
  C   C1697     1.0  0.55457  0.26529  0.65531  1.0000
  H   H1687     1.0  0.52780  0.26839  0.69215  1.0000
  H   H1688     1.0  0.54883  0.28179  0.69455  1.0000
  H   H1689     1.0  0.57769  0.27346  0.64709  1.0000
  H   H1690     1.0  0.55613  0.26089  0.64426  1.0000
  H   H1691     1.0  0.49520  0.27616  0.75170  1.0000
  C   C1698     1.0  0.39143  0.25604  0.72783  1.0000
  H   H1692     1.0  0.36700  0.34402  0.69578  1.0000
  C   C1699     1.0  0.42174  0.26044  0.64789  1.0000
  H   H1693     1.0  0.46946  0.27848  0.66612  1.0000
  H   H1694     1.0  0.34173  0.43159  0.72702  1.0000
  H   H1695     1.0  0.53229  0.29545  0.64108  1.0000
  S   S576      1.0  0.63922  0.24076  0.52510  1.0000
  S   S577      1.0  0.56187  0.26594  0.58623  1.0000
  H   H1696     1.0  0.40895  0.33182  0.64069  1.0000
  C   C1700     1.0  0.41890  0.27201  0.65759  1.0000
  S   S578      1.0  0.37912  0.27162  0.63204  1.0000
  C   C1701     1.0  0.34990  0.24573  0.70134  1.0000
  C   C1702     1.0  0.34862  0.34282  0.74222  1.0000
  C   C1703     1.0  0.45007  0.28931  0.62222  1.0000
  C   C1704     1.0  0.34293  0.45149  0.69671  1.0000
  C   C1705     1.0  0.50182  0.28540  0.74252  1.0000
  C   C1706     1.0  0.53975  0.29275  0.76082  1.0000
  H   H1697     1.0  0.45828  0.29388  0.62707  1.0000
  H   H1698     1.0  0.59731  0.24729  0.67627  1.0000
  C   C1707     1.0  0.47308  0.24940  0.65829  1.0000
  S   S579      1.0  0.32315  0.26318  0.74984  1.0000
  C   C1708     1.0  0.52582  0.30542  0.75879  1.0000
  C   C1709     1.0  0.62556  0.24221  0.75206  1.0000
  C   C1710     1.0  0.53888  0.32399  0.65778  1.0000
  H   H1699     1.0  0.65075  0.31151  0.49313  1.0000
  H   H1700     1.0  0.38566  0.25838  0.68335  1.0000
  Fe  Fe291     1.0  0.38424  0.24776  0.62361  1.0000
  H   H1701     1.0  0.56695  0.38768  0.71494  1.0000
  H   H1702     1.0  0.32526  0.36799  0.74924  1.0000
  C   C1711     1.0  0.42224  0.29668  0.61673  1.0000
  C   C1712     1.0  0.59433  0.41129  0.71084  1.0000
  H   H1703     1.0  0.50310  0.30817  0.65272  1.0000
  Fe  Fe292     1.0  0.54304  0.25287  0.60529  1.0000
  H   H1704     1.0  0.43743  0.31473  0.63753  1.0000
  C   C1713     1.0  0.57243  0.23224  0.68299  1.0000
  H   H1705     1.0  0.61498  0.43033  0.69193  1.0000
  C   C1714     1.0  0.37509  0.27757  0.74922  1.0000
  C   C1715     1.0  0.61701  0.41862  0.68778  1.0000
  H   H1706     1.0  0.59123  0.27092  0.56145  1.0000
  S   S580      1.0  0.40017  0.24173  0.59966  1.0000
  H   H1707     1.0  0.54905  0.32803  0.65957  1.0000
  H   H1708     1.0  0.55531  0.30591  0.64421  1.0000
  H   H1709     1.0  0.34795  0.24802  0.71358  1.0000
  H   H1710     1.0  0.43356  0.25176  0.64610  1.0000
  H   H1711     1.0  0.36340  0.42945  0.71723  1.0000
  H   H1712     1.0  0.61963  0.42182  0.67405  1.0000
  C   C1716     1.0  0.51325  0.31281  0.65369  1.0000
  S   S581      1.0  0.36783  0.23740  0.73825  1.0000
  C   C1717     1.0  0.59834  0.40246  0.68594  1.0000
  N   N142      1.0  0.60263  0.41095  0.69486  1.0000
  S   S582      1.0  0.35313  0.40259  0.70625  1.0000
  H   H1713     1.0  0.64867  0.44163  0.64419  1.0000
  H   H1714     1.0  0.57512  0.40294  0.73109  1.0000
  C   C1718     1.0  0.34861  0.35604  0.71412  1.0000
  H   H1715     1.0  0.62818  0.41002  0.69171  1.0000
  C   C1719     1.0  0.45401  0.24750  0.61157  1.0000
  S   S583      1.0  0.48185  0.25472  0.61484  1.0000
  C   C1720     1.0  0.39424  0.27149  0.64221  1.0000
  Fe  Fe293     1.0  0.32753  0.41040  0.70111  1.0000
  H   H1716     1.0  0.34366  0.36622  0.70491  1.0000
  H   H1717     1.0  0.49409  0.24286  0.68784  1.0000
  H   H1718     1.0  0.44910  0.26070  0.60967  1.0000
  C   C1721     1.0  0.58520  0.39427  0.69291  1.0000
  H   H1719     1.0  0.58930  0.23521  0.59403  1.0000
  H   H1720     1.0  0.49725  0.33123  0.66677  1.0000
  C   C1722     1.0  0.32836  0.36888  0.73567  1.0000
  S   S584      1.0  0.59545  0.23877  0.52070  1.0000
  C   C1723     1.0  0.37713  0.25272  0.69438  1.0000
  H   H1721     1.0  0.43174  0.24227  0.60923  1.0000
  C   C1724     1.0  0.64966  0.46657  0.74844  1.0000
  C   C1725     1.0  0.58616  0.24663  0.53872  1.0000
  H   H1722     1.0  0.39802  0.24757  0.71975  1.0000
  H   H1723     1.0  0.64935  0.31647  0.52044  1.0000
  H   H1724     1.0  0.35378  0.46938  0.72110  1.0000
  C   C1726     1.0  0.34012  0.48089  0.68546  1.0000
  C   C1727     1.0  0.62975  0.23897  0.73620  1.0000
  H   H1725     1.0  0.33097  0.23290  0.67875  1.0000
  H   H1726     1.0  0.52956  0.26374  0.74787  1.0000
  C   C1728     1.0  0.65408  0.40365  0.79172  1.0000
  C   C1729     1.0  0.37634  0.25370  0.73862  1.0000
  S   S585      1.0  0.36354  0.23732  0.62242  1.0000
  C   C1730     1.0  0.39812  0.26934  0.72741  1.0000
  H   H1727     1.0  0.52493  0.31743  0.76119  1.0000
  H   H1728     1.0  0.40970  0.27109  0.71894  1.0000
  Fe  Fe294     1.0  0.65135  0.42454  0.70358  1.0000
  H   H1729     1.0  0.35286  0.23558  0.55235  1.0000
  C   C1731     1.0  0.47018  0.24099  0.61415  1.0000
  C   C1732     1.0  0.58114  0.40325  0.71819  1.0000
  C   C1733     1.0  0.34022  0.23721  0.68188  1.0000
  N   N143      1.0  0.51478  0.28798  0.74900  1.0000
  C   C1734     1.0  0.52833  0.27542  0.75111  1.0000
  C   C1735     1.0  0.51328  0.30274  0.75304  1.0000
  C   C1736     1.0  0.54098  0.27758  0.75711  1.0000
  S   S586      1.0  0.53098  0.23439  0.60175  1.0000
  H   H1730     1.0  0.37811  0.24639  0.66541  1.0000
  H   H1731     1.0  0.62306  0.24548  0.71255  1.0000
  H   H1732     1.0  0.64202  0.40749  0.79946  1.0000
  H   H1733     1.0  0.37165  0.26193  0.70237  1.0000
  Fe  Fe295     1.0  0.65238  0.25405  0.50086  1.0000
  H   H1734     1.0  0.46795  0.25927  0.64897  1.0000
  Fe  Fe296     1.0  0.50824  0.24592  0.61867  1.0000
  N   N144      1.0  0.48058  0.25280  0.66867  1.0000
  H   H1735     1.0  0.34180  0.43948  0.69592  1.0000
  H   H1736     1.0  0.33145  0.38119  0.72962  1.0000
  H   H1737     1.0  0.32635  0.23873  0.70663  1.0000
  C   C1737     1.0  0.33769  0.24039  0.69752  1.0000
  H   H1738     1.0  0.33383  0.46431  0.67454  1.0000
  N   N145      1.0  0.34824  0.45296  0.70969  1.0000
  C   C1738     1.0  0.36674  0.24484  0.67449  1.0000
  Fe  Fe297     1.0  0.64567  0.43086  0.73776  1.0000
  C   C1739     1.0  0.35480  0.23950  0.67027  1.0000
  C   C1740     1.0  0.35219  0.43812  0.72247  1.0000
  C   C1741     1.0  0.34992  0.46804  0.71065  1.0000
  H   H1739     1.0  0.63809  0.47439  0.77147  1.0000
  C   C1742     1.0  0.60161  0.23393  0.67574  1.0000
  C   C1743     1.0  0.64650  0.47692  0.75960  1.0000
  S   S587      1.0  0.37062  0.23313  0.57691  1.0000
  Fe  Fe298     1.0  0.62255  0.23855  0.51028  1.0000
  C   C1744     1.0  0.47184  0.23320  0.65952  1.0000
  H   H1740     1.0  0.61224  0.23294  0.66497  1.0000
  Fe  Fe299     1.0  0.62344  0.52025  0.21534  1.0000
  C   C1745     1.0  0.36716  0.69879  0.40975  1.0000
  C   C1746     1.0  0.35759  0.70974  0.19862  1.0000
  H   H1741     1.0  0.36628  0.69124  0.21867  1.0000
  C   C1747     1.0  0.63386  0.69304  0.37057  1.0000
  N   N146      1.0  0.60801  0.59228  0.19414  1.0000
  Fe  Fe300     1.0  0.33608  0.69274  0.38875  1.0000
  Fe  Fe301     1.0  0.33591  0.55098  0.17667  1.0000
  S   S588      1.0  0.35576  0.56626  0.16834  1.0000
  C   C1748     1.0  0.61542  0.67380  0.21232  1.0000
  Fe  Fe302     1.0  0.32353  0.70863  0.13558  1.0000
  Fe  Fe303     1.0  0.39141  0.61801  0.20846  1.0000
  S   S589      1.0  0.41412  0.61404  0.18829  1.0000
  S   S590      1.0  0.37027  0.60456  0.21501  1.0000
  Fe  Fe304     1.0  0.40079  0.64748  0.21472  1.0000
  S   S591      1.0  0.42345  0.64639  0.19418  1.0000
  S   S592      1.0  0.39479  0.66833  0.22803  1.0000
  Fe  Fe305     1.0  0.40769  0.64166  0.18001  1.0000
  S   S593      1.0  0.40658  0.65305  0.15357  1.0000
  Fe  Fe306     1.0  0.42770  0.61901  0.20479  1.0000
  S   S594      1.0  0.45342  0.60499  0.20833  1.0000
  S   S595      1.0  0.38446  0.64560  0.19936  1.0000
  S   S596      1.0  0.40556  0.62026  0.22608  1.0000
  S   S597      1.0  0.44439  0.68552  0.30882  1.0000
  S   S598      1.0  0.42236  0.70813  0.28103  1.0000
  Fe  Fe307     1.0  0.42806  0.71102  0.30377  1.0000
  Fe  Fe308     1.0  0.32590  0.51943  0.17547  1.0000
  Fe  Fe309     1.0  0.44014  0.68357  0.28488  1.0000
  S   S599      1.0  0.43572  0.66007  0.28159  1.0000
  S   S600      1.0  0.53579  0.72480  0.31811  1.0000
  H   H1742     1.0  0.63863  0.67566  0.21594  1.0000
  H   H1743     1.0  0.33831  0.70806  0.09156  1.0000
  C   C1749     1.0  0.36657  0.63733  0.17199  1.0000
  H   H1744     1.0  0.59220  0.72808  0.34761  1.0000
  H   H1745     1.0  0.39321  0.67158  0.35618  1.0000
  H   H1746     1.0  0.58268  0.59888  0.20555  1.0000
  C   C1750     1.0  0.47215  0.62000  0.17000  1.0000
  S   S601      1.0  0.59633  0.53036  0.21580  1.0000
  C   C1751     1.0  0.44999  0.63515  0.15603  1.0000
  C   C1752     1.0  0.47544  0.63500  0.17006  1.0000
  Fe  Fe310     1.0  0.52547  0.63913  0.21886  1.0000
  S   S602      1.0  0.52956  0.63264  0.24468  1.0000
  S   S603      1.0  0.49894  0.64814  0.21592  1.0000
  Fe  Fe311     1.0  0.56190  0.64004  0.20358  1.0000
  S   S604      1.0  0.56863  0.63375  0.22819  1.0000
  S   S605      1.0  0.58354  0.64374  0.18218  1.0000
  Fe  Fe312     1.0  0.55269  0.61519  0.23490  1.0000
  S   S606      1.0  0.56213  0.59076  0.25079  1.0000
  Fe  Fe313     1.0  0.54515  0.65164  0.23550  1.0000
  S   S607      1.0  0.54080  0.67177  0.24904  1.0000
  S   S608      1.0  0.54752  0.62001  0.20960  1.0000
  S   S609      1.0  0.53946  0.65955  0.21041  1.0000
  H   H1747     1.0  0.64494  0.72333  0.33191  1.0000
  H   H1748     1.0  0.34978  0.69696  0.45642  1.0000
  S   S610      1.0  0.36221  0.68045  0.37841  1.0000
  Fe  Fe314     1.0  0.44491  0.71833  0.26757  1.0000
  C   C1753     1.0  0.48837  0.71774  0.23128  1.0000
  C   C1754     1.0  0.34733  0.67067  0.44699  1.0000
  H   H1749     1.0  0.34956  0.59018  0.13771  1.0000
  S   S611      1.0  0.40589  0.72394  0.32030  1.0000
  C   C1755     1.0  0.33990  0.66115  0.16236  1.0000
  S   S612      1.0  0.33646  0.52573  0.19368  1.0000
  C   C1756     1.0  0.35423  0.65704  0.15045  1.0000
  H   H1750     1.0  0.56638  0.70689  0.26488  1.0000
  Fe  Fe315     1.0  0.59096  0.70881  0.28143  1.0000
  C   C1757     1.0  0.52942  0.71073  0.29578  1.0000
  C   C1758     1.0  0.35466  0.69736  0.44329  1.0000
  H   H1751     1.0  0.54228  0.71011  0.28958  1.0000
  H   H1752     1.0  0.56986  0.71219  0.22645  1.0000
  H   H1753     1.0  0.64593  0.69375  0.40374  1.0000
  Fe  Fe316     1.0  0.34282  0.72730  0.14590  1.0000
  S   S613      1.0  0.61930  0.71491  0.32258  1.0000
  C   C1759     1.0  0.63214  0.57865  0.16964  1.0000
  C   C1760     1.0  0.55796  0.67670  0.25220  1.0000
  C   C1761     1.0  0.57351  0.66586  0.25096  1.0000
  C   C1762     1.0  0.58652  0.66981  0.25501  1.0000
  H   H1754     1.0  0.36017  0.67549  0.41456  1.0000
  H   H1755     1.0  0.34723  0.60933  0.11042  1.0000
  C   C1763     1.0  0.55562  0.69162  0.25689  1.0000
  H   H1756     1.0  0.57542  0.65428  0.24732  1.0000
  H   H1757     1.0  0.59850  0.66134  0.25432  1.0000
  H   H1758     1.0  0.37236  0.72227  0.40864  1.0000
  H   H1759     1.0  0.54386  0.70039  0.25714  1.0000
  C   C1764     1.0  0.58754  0.66361  0.17858  1.0000
  C   C1765     1.0  0.57454  0.67703  0.18183  1.0000
  H   H1760     1.0  0.33931  0.66738  0.44079  1.0000
  C   C1766     1.0  0.45924  0.62004  0.16313  1.0000
  C   C1767     1.0  0.60381  0.66606  0.17272  1.0000
  H   H1761     1.0  0.56195  0.67543  0.18576  1.0000
  H   H1762     1.0  0.37904  0.64202  0.14633  1.0000
  H   H1763     1.0  0.61393  0.65576  0.17006  1.0000
  C   C1768     1.0  0.36828  0.70978  0.35735  1.0000
  H   H1764     1.0  0.62761  0.70568  0.39654  1.0000
  H   H1765     1.0  0.35663  0.71580  0.36413  1.0000
  Fe  Fe317     1.0  0.46531  0.69781  0.29295  1.0000
  H   H1766     1.0  0.64703  0.71181  0.38699  1.0000
  N   N147      1.0  0.45351  0.64982  0.15584  1.0000
  H   H1767     1.0  0.34448  0.49116  0.12649  1.0000
  H   H1768     1.0  0.50867  0.67125  0.24164  1.0000
  H   H1769     1.0  0.49587  0.68252  0.21715  1.0000
  C   C1769     1.0  0.58695  0.54710  0.22558  1.0000
  C   C1770     1.0  0.57358  0.55897  0.22021  1.0000
  C   C1771     1.0  0.56610  0.57263  0.22765  1.0000
  C   C1772     1.0  0.57170  0.57419  0.24079  1.0000
  C   C1773     1.0  0.58504  0.56229  0.24620  1.0000
  C   C1774     1.0  0.59283  0.54889  0.23844  1.0000
  H   H1770     1.0  0.56903  0.55762  0.21024  1.0000
  H   H1771     1.0  0.55573  0.58168  0.22352  1.0000
  H   H1772     1.0  0.58939  0.56345  0.25639  1.0000
  H   H1773     1.0  0.60313  0.53976  0.24265  1.0000
  C   C1775     1.0  0.56846  0.69542  0.26116  1.0000
  C   C1776     1.0  0.59397  0.69514  0.17403  1.0000
  C   C1777     1.0  0.32512  0.71318  0.23229  1.0000
  H   H1774     1.0  0.45616  0.60843  0.16369  1.0000
  H   H1775     1.0  0.62721  0.70318  0.22330  1.0000
  N   N148      1.0  0.64480  0.69067  0.38034  1.0000
  H   H1776     1.0  0.37701  0.62812  0.17594  1.0000
  H   H1777     1.0  0.43804  0.66423  0.13903  1.0000
  H   H1778     1.0  0.62954  0.55501  0.18581  1.0000
  H   H1779     1.0  0.47914  0.60835  0.17591  1.0000
  C   C1778     1.0  0.39347  0.71162  0.33585  1.0000
  C   C1779     1.0  0.39870  0.69437  0.33986  1.0000
  C   C1780     1.0  0.38892  0.68489  0.35284  1.0000
  C   C1781     1.0  0.37375  0.69257  0.36166  1.0000
  H   H1780     1.0  0.41047  0.68836  0.33329  1.0000
  C   C1782     1.0  0.61853  0.72502  0.33812  1.0000
  C   C1783     1.0  0.40738  0.66579  0.24189  1.0000
  C   C1784     1.0  0.41061  0.67980  0.24471  1.0000
  C   C1785     1.0  0.41964  0.67812  0.25659  1.0000
  C   C1786     1.0  0.42501  0.66247  0.26610  1.0000
  C   C1787     1.0  0.42166  0.64847  0.26339  1.0000
  C   C1788     1.0  0.41313  0.65008  0.25111  1.0000
  H   H1781     1.0  0.40621  0.69198  0.23764  1.0000
  H   H1782     1.0  0.42236  0.68896  0.25838  1.0000
  H   H1783     1.0  0.42564  0.63635  0.27084  1.0000
  H   H1784     1.0  0.41049  0.63924  0.24917  1.0000
  C   C1789     1.0  0.46619  0.61684  0.21052  1.0000
  C   C1790     1.0  0.45970  0.63314  0.21253  1.0000
  C   C1791     1.0  0.47002  0.64258  0.21389  1.0000
  C   C1792     1.0  0.48686  0.63573  0.21359  1.0000
  C   C1793     1.0  0.49344  0.61938  0.21170  1.0000
  C   C1794     1.0  0.48310  0.60997  0.21010  1.0000
  H   H1785     1.0  0.44665  0.63840  0.21347  1.0000
  H   H1786     1.0  0.46481  0.65517  0.21553  1.0000
  H   H1787     1.0  0.50644  0.61401  0.21145  1.0000
  H   H1788     1.0  0.48821  0.59734  0.20859  1.0000
  C   C1795     1.0  0.39624  0.67392  0.15159  1.0000
  C   C1796     1.0  0.38756  0.68143  0.13895  1.0000
  C   C1797     1.0  0.37899  0.69803  0.13747  1.0000
  C   C1798     1.0  0.37973  0.70735  0.14815  1.0000
  C   C1799     1.0  0.38874  0.69994  0.16055  1.0000
  C   C1800     1.0  0.39663  0.68311  0.16254  1.0000
  H   H1789     1.0  0.38721  0.67436  0.13048  1.0000
  C   C1801     1.0  0.33156  0.49663  0.12614  1.0000
  H   H1790     1.0  0.38931  0.70704  0.16887  1.0000
  H   H1791     1.0  0.40312  0.67731  0.17248  1.0000
  C   C1802     1.0  0.58388  0.68450  0.26042  1.0000
  C   C1803     1.0  0.33773  0.59822  0.13579  1.0000
  C   C1804     1.0  0.60261  0.70455  0.22050  1.0000
  C   C1805     1.0  0.60369  0.72969  0.34917  1.0000
  C   C1806     1.0  0.50300  0.70336  0.29900  1.0000
  H   H1792     1.0  0.36583  0.70954  0.26197  1.0000
  H   H1793     1.0  0.46818  0.66150  0.16351  1.0000
  C   C1807     1.0  0.35976  0.57661  0.18160  1.0000
  C   C1808     1.0  0.37346  0.58419  0.17623  1.0000
  C   C1809     1.0  0.37697  0.59260  0.18637  1.0000
  C   C1810     1.0  0.36665  0.59374  0.20192  1.0000
  C   C1811     1.0  0.35288  0.58628  0.20723  1.0000
  C   C1812     1.0  0.34948  0.57770  0.19717  1.0000
  H   H1794     1.0  0.38155  0.58332  0.16426  1.0000
  H   H1795     1.0  0.38777  0.59799  0.18221  1.0000
  H   H1796     1.0  0.34487  0.58700  0.21926  1.0000
  H   H1797     1.0  0.33893  0.57188  0.20152  1.0000
  H   H1798     1.0  0.43986  0.63506  0.15087  1.0000
  H   H1799     1.0  0.32400  0.68794  0.24481  1.0000
  Fe  Fe318     1.0  0.65221  0.72037  0.17748  1.0000
  H   H1800     1.0  0.45077  0.67527  0.14321  1.0000
  C   C1813     1.0  0.46582  0.64989  0.16303  1.0000
  H   H1801     1.0  0.60812  0.56734  0.20748  1.0000
  N   N149      1.0  0.38507  0.67735  0.28789  1.0000
  C   C1814     1.0  0.37922  0.69340  0.28044  1.0000
  C   C1815     1.0  0.38218  0.66447  0.28342  1.0000
  C   C1816     1.0  0.37042  0.69685  0.26799  1.0000
  C   C1817     1.0  0.37347  0.66749  0.27100  1.0000
  C   C1818     1.0  0.36761  0.68378  0.26323  1.0000
  C   C1819     1.0  0.39389  0.67405  0.30118  1.0000
  H   H1802     1.0  0.38148  0.70360  0.28401  1.0000
  H   H1803     1.0  0.38695  0.65174  0.28917  1.0000
  H   H1804     1.0  0.50673  0.71902  0.25970  1.0000
  H   H1805     1.0  0.37171  0.65727  0.26701  1.0000
  H   H1806     1.0  0.35126  0.73019  0.17904  1.0000
  H   H1807     1.0  0.40149  0.66118  0.30315  1.0000
  H   H1808     1.0  0.40271  0.68236  0.29798  1.0000
  H   H1809     1.0  0.38495  0.67597  0.31293  1.0000
  S   S614      1.0  0.57004  0.73082  0.27762  1.0000
  C   C1820     1.0  0.33644  0.60900  0.12055  1.0000
  C   C1821     1.0  0.51952  0.70330  0.29071  1.0000
  H   H1810     1.0  0.62211  0.70187  0.37231  1.0000
  S   S615      1.0  0.49247  0.69074  0.29430  1.0000
  S   S616      1.0  0.63826  0.72026  0.13836  1.0000
  S   S617      1.0  0.58306  0.70240  0.30910  1.0000
  H   H1811     1.0  0.60985  0.61581  0.17794  1.0000
  H   H1812     1.0  0.48473  0.72028  0.26676  1.0000
  C   C1822     1.0  0.37819  0.71929  0.34454  1.0000
  H   H1813     1.0  0.56755  0.70306  0.18198  1.0000
  H   H1814     1.0  0.43291  0.66986  0.15874  1.0000
  N   N150      1.0  0.35410  0.68494  0.43649  1.0000
  C   C1823     1.0  0.65303  0.67328  0.35529  1.0000
  H   H1815     1.0  0.61963  0.68360  0.16622  1.0000
  H   H1816     1.0  0.48504  0.63506  0.17597  1.0000
  H   H1817     1.0  0.52488  0.69677  0.28080  1.0000
  S   S618      1.0  0.64461  0.69814  0.17545  1.0000
  Fe  Fe319     1.0  0.65340  0.51045  0.23076  1.0000
  C   C1824     1.0  0.49568  0.69063  0.22492  1.0000
  S   S619      1.0  0.46225  0.69353  0.26948  1.0000
  C   C1825     1.0  0.62536  0.56838  0.18407  1.0000
  H   H1818     1.0  0.36109  0.72104  0.43882  1.0000
  N   N151      1.0  0.53781  0.66328  0.30225  1.0000
  C   C1826     1.0  0.52772  0.66877  0.31589  1.0000
  C   C1827     1.0  0.55378  0.66541  0.29699  1.0000
  C   C1828     1.0  0.53360  0.67657  0.32469  1.0000
  C   C1829     1.0  0.56004  0.67322  0.30543  1.0000
  C   C1830     1.0  0.54984  0.67886  0.31936  1.0000
  C   C1831     1.0  0.53101  0.65622  0.29257  1.0000
  H   H1819     1.0  0.51481  0.66786  0.31955  1.0000
  H   H1820     1.0  0.56171  0.66134  0.28603  1.0000
  H   H1821     1.0  0.52537  0.68160  0.33504  1.0000
  H   H1822     1.0  0.57259  0.67525  0.30089  1.0000
  H   H1823     1.0  0.55425  0.68555  0.32569  1.0000
  H   H1824     1.0  0.52288  0.64784  0.30082  1.0000
  H   H1825     1.0  0.52360  0.66640  0.28471  1.0000
  H   H1826     1.0  0.54096  0.64901  0.28431  1.0000
  C   C1832     1.0  0.61325  0.57543  0.19628  1.0000
  C   C1833     1.0  0.32420  0.51210  0.13018  1.0000
  S   S620      1.0  0.32783  0.54372  0.15731  1.0000
  S   S621      1.0  0.63521  0.49613  0.23033  1.0000
  H   H1827     1.0  0.48358  0.71124  0.31896  1.0000
  S   S622      1.0  0.32861  0.71603  0.39848  1.0000
  Fe  Fe320     1.0  0.65159  0.49209  0.20589  1.0000
  H   H1828     1.0  0.62928  0.68676  0.34985  1.0000
  C   C1834     1.0  0.57772  0.69274  0.17950  1.0000
  S   S623      1.0  0.32678  0.68720  0.12393  1.0000
  S   S624      1.0  0.59978  0.68909  0.26631  1.0000
  C   C1835     1.0  0.61429  0.60246  0.17983  1.0000
  C   C1836     1.0  0.49623  0.71132  0.31226  1.0000
  C   C1837     1.0  0.33295  0.71725  0.08190  1.0000
  C   C1838     1.0  0.44335  0.66558  0.14886  1.0000
  H   H1829     1.0  0.59664  0.59235  0.21951  1.0000
  H   H1830     1.0  0.64176  0.57326  0.16023  1.0000
  C   C1839     1.0  0.57534  0.70525  0.21639  1.0000
  S   S625      1.0  0.33491  0.49458  0.16776  1.0000
  Fe  Fe321     1.0  0.59839  0.71984  0.30928  1.0000
  C   C1840     1.0  0.36767  0.64509  0.15535  1.0000
  C   C1841     1.0  0.38016  0.71057  0.20962  1.0000
  C   C1842     1.0  0.32455  0.65936  0.19116  1.0000
  S   S626      1.0  0.63857  0.51504  0.19080  1.0000
  C   C1843     1.0  0.63782  0.68445  0.35787  1.0000
  C   C1844     1.0  0.48831  0.70746  0.22122  1.0000
  C   C1845     1.0  0.35213  0.64186  0.18361  1.0000
  H   H1831     1.0  0.33932  0.67352  0.45888  1.0000
  H   H1832     1.0  0.48254  0.73079  0.22836  1.0000
  H   H1833     1.0  0.35756  0.65988  0.44963  1.0000
  C   C1846     1.0  0.59499  0.59935  0.20692  1.0000
  H   H1834     1.0  0.35497  0.66331  0.13756  1.0000
  H   H1835     1.0  0.56754  0.69627  0.21806  1.0000
  S   S627      1.0  0.59751  0.71472  0.17258  1.0000
  N   N152      1.0  0.59258  0.69680  0.21682  1.0000
  C   C1847     1.0  0.36042  0.68542  0.41998  1.0000
  H   H1836     1.0  0.34813  0.70363  0.19857  1.0000
  Fe  Fe322     1.0  0.56270  0.72519  0.30528  1.0000
  C   C1848     1.0  0.59879  0.68166  0.21268  1.0000
  H   H1837     1.0  0.35158  0.63595  0.19658  1.0000
  H   H1838     1.0  0.37202  0.69917  0.39662  1.0000
  C   C1849     1.0  0.60705  0.68180  0.17055  1.0000
  N   N153      1.0  0.49546  0.71141  0.24473  1.0000
  H   H1839     1.0  0.57486  0.71408  0.20431  1.0000
  N   N154      1.0  0.47957  0.62817  0.25840  1.0000
  C   C1850     1.0  0.46437  0.63015  0.25518  1.0000
  C   C1851     1.0  0.49106  0.61363  0.25754  1.0000
  C   C1852     1.0  0.46003  0.61715  0.25168  1.0000
  C   C1853     1.0  0.48722  0.60041  0.25386  1.0000
  C   C1854     1.0  0.47155  0.60219  0.25100  1.0000
  C   C1855     1.0  0.48371  0.64212  0.26192  1.0000
  H   H1840     1.0  0.45567  0.64198  0.25498  1.0000
  H   H1841     1.0  0.50333  0.61220  0.25953  1.0000
  H   H1842     1.0  0.44803  0.61887  0.24886  1.0000
  H   H1843     1.0  0.49644  0.58898  0.25294  1.0000
  H   H1844     1.0  0.46851  0.59223  0.24771  1.0000
  H   H1845     1.0  0.48730  0.65096  0.25015  1.0000
  H   H1846     1.0  0.47286  0.64877  0.26993  1.0000
  H   H1847     1.0  0.49405  0.63791  0.26851  1.0000
  H   H1848     1.0  0.50778  0.68981  0.25946  1.0000
  C   C1856     1.0  0.61928  0.69702  0.22034  1.0000
  C   C1857     1.0  0.62568  0.68154  0.21625  1.0000
  N   N155      1.0  0.33905  0.65371  0.17872  1.0000
  H   H1849     1.0  0.59773  0.71660  0.22366  1.0000
  H   H1850     1.0  0.63163  0.60393  0.15619  1.0000
  H   H1851     1.0  0.37195  0.70370  0.12794  1.0000
  H   H1852     1.0  0.62030  0.66190  0.20883  1.0000
  S   S628      1.0  0.33541  0.71607  0.24592  1.0000
  H   H1853     1.0  0.36110  0.68626  0.25337  1.0000
  H   H1854     1.0  0.59092  0.67563  0.20949  1.0000
  S   S629      1.0  0.44936  0.72347  0.28989  1.0000
  H   H1855     1.0  0.59513  0.61247  0.20603  1.0000
  Fe  Fe323     1.0  0.62415  0.71677  0.16478  1.0000
  C   C1858     1.0  0.36786  0.70274  0.20984  1.0000
  C   C1859     1.0  0.62655  0.59582  0.16743  1.0000
  C   C1860     1.0  0.50244  0.69488  0.24861  1.0000
  C   C1861     1.0  0.50279  0.68428  0.23870  1.0000
  H   H1856     1.0  0.38833  0.70507  0.21818  1.0000
  C   C1862     1.0  0.36737  0.71172  0.41650  1.0000
  S   S630      1.0  0.63997  0.53497  0.21813  1.0000
  H   H1857     1.0  0.33165  0.51846  0.13358  1.0000
  S   S631      1.0  0.33545  0.70301  0.15700  1.0000
  C   C1863     1.0  0.64117  0.70091  0.39252  1.0000
  C   C1864     1.0  0.49485  0.72211  0.25562  1.0000
  C   C1865     1.0  0.36111  0.71102  0.43339  1.0000
  H   H1858     1.0  0.32956  0.67054  0.15843  1.0000
  S   S632      1.0  0.60818  0.72389  0.28180  1.0000
  H   H1859     1.0  0.48249  0.71253  0.21070  1.0000
  C   C1866     1.0  0.52296  0.71793  0.30959  1.0000
  C   C1867     1.0  0.50623  0.71846  0.31760  1.0000
  H   H1860     1.0  0.50112  0.72400  0.32830  1.0000
  H   H1861     1.0  0.32476  0.58923  0.16039  1.0000
  C   C1868     1.0  0.32342  0.73062  0.46316  1.0000
  H   H1862     1.0  0.32654  0.66979  0.19516  1.0000
  C   C1869     1.0  0.35947  0.72476  0.18757  1.0000
  C   C1870     1.0  0.38200  0.72539  0.19811  1.0000
  C   C1871     1.0  0.32361  0.59770  0.14860  1.0000
  C   C1872     1.0  0.63339  0.72699  0.34040  1.0000
  S   S633      1.0  0.36841  0.72788  0.14669  1.0000
  H   H1863     1.0  0.32889  0.72719  0.34658  1.0000
  H   H1864     1.0  0.41671  0.72774  0.25032  1.0000
  H   H1865     1.0  0.39171  0.73134  0.19787  1.0000
  H   H1866     1.0  0.32231  0.64917  0.20216  1.0000
  H   H1867     1.0  0.34679  0.64198  0.76006  1.0000
  H   H1868     1.0  0.55399  0.72739  0.66898  1.0000
  C   C1873     1.0  0.57186  0.71779  0.71138  1.0000
  H   H1869     1.0  0.37933  0.72089  0.60075  1.0000
  H   H1870     1.0  0.36539  0.70236  0.59477  1.0000
  C   C1874     1.0  0.41347  0.72468  0.56397  1.0000
  Fe  Fe324     1.0  0.40617  0.71253  0.62991  1.0000
  S   S634      1.0  0.40993  0.68596  0.62878  1.0000
  H   H1871     1.0  0.38892  0.60120  0.67744  1.0000
  C   C1875     1.0  0.60412  0.71268  0.77216  1.0000
  H   H1872     1.0  0.35401  0.63939  0.72284  1.0000
  H   H1873     1.0  0.47940  0.69007  0.78524  1.0000
  C   C1876     1.0  0.34220  0.62390  0.71607  1.0000
  S   S635      1.0  0.35734  0.56910  0.71608  1.0000
  C   C1877     1.0  0.57923  0.60654  0.73406  1.0000
  Fe  Fe325     1.0  0.41178  0.63559  0.71775  1.0000
  S   S636      1.0  0.41636  0.61291  0.73766  1.0000
  S   S637      1.0  0.41810  0.62966  0.69270  1.0000
  Fe  Fe326     1.0  0.39640  0.65763  0.74240  1.0000
  S   S638      1.0  0.39944  0.63652  0.76425  1.0000
  S   S639      1.0  0.38236  0.68307  0.74572  1.0000
  Fe  Fe327     1.0  0.42499  0.62911  0.74873  1.0000
  S   S640      1.0  0.44936  0.61903  0.75725  1.0000
  Fe  Fe328     1.0  0.39058  0.62274  0.75080  1.0000
  S   S641      1.0  0.36904  0.60986  0.76179  1.0000
  S   S642      1.0  0.42236  0.65111  0.72759  1.0000
  S   S643      1.0  0.38560  0.64451  0.73023  1.0000
  Fe  Fe329     1.0  0.34235  0.69334  0.82871  1.0000
  C   C1878     1.0  0.58269  0.63392  0.71712  1.0000
  S   S644      1.0  0.36986  0.68576  0.82047  1.0000
  H   H1874     1.0  0.34663  0.49426  0.69973  1.0000
  H   H1875     1.0  0.33647  0.49187  0.67628  1.0000
  H   H1876     1.0  0.49404  0.71196  0.78357  1.0000
  C   C1879     1.0  0.39918  0.70558  0.55976  1.0000
  H   H1877     1.0  0.32345  0.63554  0.81595  1.0000
  H   H1878     1.0  0.33430  0.60675  0.70728  1.0000
  C   C1880     1.0  0.35715  0.71997  0.57391  1.0000
  Fe  Fe330     1.0  0.52067  0.65967  0.76288  1.0000
  S   S645      1.0  0.54066  0.64439  0.74675  1.0000
  S   S646      1.0  0.49274  0.66471  0.76527  1.0000
  Fe  Fe331     1.0  0.54586  0.67443  0.77099  1.0000
  S   S647      1.0  0.56754  0.66045  0.75536  1.0000
  S   S648      1.0  0.54770  0.69549  0.78100  1.0000
  Fe  Fe332     1.0  0.55154  0.66700  0.73696  1.0000
  S   S649      1.0  0.56304  0.67548  0.71012  1.0000
  Fe  Fe333     1.0  0.55500  0.63897  0.76659  1.0000
  S   S650      1.0  0.56876  0.61283  0.77542  1.0000
  S   S651      1.0  0.53076  0.68278  0.75163  1.0000
  S   S652      1.0  0.53409  0.65253  0.78376  1.0000
  C   C1881     1.0  0.60274  0.72943  0.76425  1.0000
  H   H1879     1.0  0.33473  0.64684  0.83287  1.0000
  H   H1880     1.0  0.47237  0.59560  0.71332  1.0000
  C   C1882     1.0  0.50398  0.66916  0.81251  1.0000
  S   S653      1.0  0.32908  0.71957  0.82954  1.0000
  H   H1881     1.0  0.33059  0.62663  0.72489  1.0000
  Fe  Fe334     1.0  0.63601  0.72000  0.81095  1.0000
  S   S654      1.0  0.62946  0.70310  0.83546  1.0000
  C   C1883     1.0  0.39328  0.69094  0.56473  1.0000
  Fe  Fe335     1.0  0.60428  0.70840  0.82985  1.0000
  S   S655      1.0  0.59352  0.68682  0.83069  1.0000
  H   H1882     1.0  0.41698  0.70120  0.59134  1.0000
  H   H1883     1.0  0.58958  0.63909  0.70463  1.0000
  C   C1884     1.0  0.37290  0.72534  0.59075  1.0000
  H   H1884     1.0  0.64005  0.68890  0.80774  1.0000
  C   C1885     1.0  0.55064  0.69358  0.70069  1.0000
  C   C1886     1.0  0.53397  0.69845  0.70816  1.0000
  C   C1887     1.0  0.52468  0.71396  0.70191  1.0000
  H   H1885     1.0  0.55999  0.70158  0.73248  1.0000
  S   S656      1.0  0.64473  0.59282  0.74226  1.0000
  S   S657      1.0  0.63058  0.72618  0.86732  1.0000
  H   H1886     1.0  0.52820  0.69029  0.71879  1.0000
  H   H1887     1.0  0.56655  0.61203  0.73933  1.0000
  H   H1888     1.0  0.45448  0.60146  0.72924  1.0000
  H   H1889     1.0  0.53628  0.66886  0.81463  1.0000
  C   C1888     1.0  0.56106  0.69279  0.79428  1.0000
  C   C1889     1.0  0.56263  0.70677  0.79868  1.0000
  C   C1890     1.0  0.57284  0.70511  0.80954  1.0000
  C   C1891     1.0  0.58122  0.68938  0.81643  1.0000
  C   C1892     1.0  0.57962  0.67540  0.81206  1.0000
  C   C1893     1.0  0.56973  0.67709  0.80086  1.0000
  H   H1890     1.0  0.55590  0.71896  0.79371  1.0000
  H   H1891     1.0  0.57391  0.71595  0.81291  1.0000
  H   H1892     1.0  0.58606  0.66319  0.81736  1.0000
  H   H1893     1.0  0.56862  0.66623  0.79756  1.0000
  C   C1894     1.0  0.59039  0.60766  0.76784  1.0000
  C   C1895     1.0  0.59876  0.61939  0.75656  1.0000
  C   C1896     1.0  0.61559  0.61472  0.74931  1.0000
  C   C1897     1.0  0.62422  0.59827  0.75326  1.0000
  C   C1898     1.0  0.61609  0.58657  0.76500  1.0000
  C   C1899     1.0  0.59917  0.59128  0.77228  1.0000
  H   H1894     1.0  0.59223  0.63199  0.75312  1.0000
  H   H1895     1.0  0.62185  0.62383  0.74030  1.0000
  H   H1896     1.0  0.62265  0.57382  0.76807  1.0000
  H   H1897     1.0  0.59277  0.58213  0.78102  1.0000
  H   H1898     1.0  0.61110  0.68004  0.78166  1.0000
  C   C1900     1.0  0.49657  0.69998  0.79187  1.0000
  C   C1901     1.0  0.63299  0.70946  0.76953  1.0000
  C   C1902     1.0  0.34421  0.61286  0.70610  1.0000
  C   C1903     1.0  0.46131  0.63196  0.75928  1.0000
  C   C1904     1.0  0.45517  0.64900  0.75818  1.0000
  C   C1905     1.0  0.46502  0.65884  0.75989  1.0000
  C   C1906     1.0  0.48124  0.65187  0.76232  1.0000
  C   C1907     1.0  0.48754  0.63490  0.76298  1.0000
  C   C1908     1.0  0.47755  0.62499  0.76164  1.0000
  H   H1899     1.0  0.44271  0.65454  0.75634  1.0000
  H   H1900     1.0  0.45999  0.67193  0.75943  1.0000
  H   H1901     1.0  0.49995  0.62935  0.76497  1.0000
  H   H1902     1.0  0.48242  0.61182  0.76251  1.0000
  C   C1909     1.0  0.37453  0.68645  0.79920  1.0000
  C   C1910     1.0  0.36379  0.69710  0.78931  1.0000
  C   C1911     1.0  0.36660  0.69642  0.77268  1.0000
  C   C1912     1.0  0.38013  0.68507  0.76594  1.0000
  C   C1913     1.0  0.39129  0.67495  0.77561  1.0000
  C   C1914     1.0  0.38852  0.67566  0.79225  1.0000
  H   H1903     1.0  0.35330  0.70586  0.79450  1.0000
  H   H1904     1.0  0.35810  0.70438  0.76512  1.0000
  H   H1905     1.0  0.40215  0.66667  0.77026  1.0000
  H   H1906     1.0  0.39705  0.66767  0.79976  1.0000
  C   C1915     1.0  0.36597  0.59796  0.74951  1.0000
  C   C1916     1.0  0.35089  0.59291  0.75313  1.0000
  C   C1917     1.0  0.34816  0.58372  0.74323  1.0000
  C   C1918     1.0  0.36058  0.57936  0.72977  1.0000
  C   C1919     1.0  0.37571  0.58421  0.72634  1.0000
  C   C1920     1.0  0.37834  0.59360  0.73604  1.0000
  H   H1907     1.0  0.34125  0.59617  0.76354  1.0000
  H   H1908     1.0  0.33645  0.58005  0.74600  1.0000
  H   H1909     1.0  0.38540  0.58082  0.71601  1.0000
  H   H1910     1.0  0.39003  0.59733  0.73317  1.0000
  C   C1921     1.0  0.41194  0.67093  0.64703  1.0000
  C   C1922     1.0  0.40893  0.67514  0.66237  1.0000
  C   C1923     1.0  0.41060  0.66257  0.67668  1.0000
  C   C1924     1.0  0.41541  0.64589  0.67550  1.0000
  C   C1925     1.0  0.41847  0.64181  0.66016  1.0000
  C   C1926     1.0  0.41664  0.65426  0.64601  1.0000
  H   H1911     1.0  0.40519  0.68803  0.66321  1.0000
  H   H1912     1.0  0.40821  0.66578  0.68854  1.0000
  H   H1913     1.0  0.42232  0.62895  0.65918  1.0000
  H   H1914     1.0  0.41902  0.65097  0.63420  1.0000
  S   S658      1.0  0.33131  0.54427  0.70493  1.0000
  H   H1915     1.0  0.50714  0.65690  0.82016  1.0000
  N   N156      1.0  0.58922  0.61611  0.72248  1.0000
  H   H1916     1.0  0.57059  0.70003  0.68034  1.0000
  H   H1917     1.0  0.63259  0.67796  0.78122  1.0000
  C   C1927     1.0  0.48833  0.68774  0.79284  1.0000
  C   C1928     1.0  0.45916  0.65455  0.69654  1.0000
  H   H1918     1.0  0.64749  0.65829  0.81374  1.0000
  N   N157      1.0  0.46458  0.62143  0.71301  1.0000
  C   C1929     1.0  0.39597  0.67997  0.57951  1.0000
  N   N158      1.0  0.51205  0.68122  0.81145  1.0000
  C   C1930     1.0  0.35535  0.63100  0.71497  1.0000
  C   C1931     1.0  0.49203  0.67222  0.80321  1.0000
  S   S659      1.0  0.59454  0.73008  0.84245  1.0000
  C   C1932     1.0  0.33674  0.63447  0.81366  1.0000
  C   C1933     1.0  0.55868  0.71376  0.72427  1.0000
  H   H1919     1.0  0.33452  0.68815  0.77542  1.0000
  H   H1920     1.0  0.65404  0.61137  0.77343  1.0000
  C   C1934     1.0  0.34592  0.48221  0.69854  1.0000
  H   H1921     1.0  0.59307  0.70760  0.77657  1.0000
  H   H1922     1.0  0.48128  0.71374  0.66828  1.0000
  C   C1935     1.0  0.41043  0.69839  0.58370  1.0000
  H   H1923     1.0  0.62525  0.58740  0.71826  1.0000
  H   H1924     1.0  0.34480  0.72967  0.62736  1.0000
  H   H1925     1.0  0.53318  0.72200  0.73590  1.0000
  C   C1936     1.0  0.53195  0.72452  0.68796  1.0000
  H   H1926     1.0  0.34287  0.62096  0.79422  1.0000
  H   H1927     1.0  0.64418  0.58546  0.77867  1.0000
  C   C1937     1.0  0.65304  0.57472  0.80117  1.0000
  C   C1938     1.0  0.55773  0.70384  0.68627  1.0000
  C   C1939     1.0  0.54361  0.72523  0.72617  1.0000
  C   C1940     1.0  0.61996  0.68580  0.78422  1.0000
  H   H1928     1.0  0.61371  0.61710  0.70821  1.0000
  H   H1929     1.0  0.48605  0.66248  0.80354  1.0000
  C   C1941     1.0  0.65270  0.68266  0.80372  1.0000
  H   H1930     1.0  0.52105  0.67124  0.83363  1.0000
  C   C1942     1.0  0.40466  0.68366  0.58904  1.0000
  S   S660      1.0  0.33244  0.69860  0.53296  1.0000
  S   S661      1.0  0.34898  0.70545  0.56927  1.0000
  H   H1931     1.0  0.47675  0.62862  0.72752  1.0000
  H   H1932     1.0  0.35749  0.65598  0.83612  1.0000
  N   N159      1.0  0.61911  0.70292  0.77469  1.0000
  H   H1933     1.0  0.38604  0.68846  0.55750  1.0000
  H   H1934     1.0  0.56948  0.63647  0.71639  1.0000
  C   C1943     1.0  0.60555  0.60939  0.71676  1.0000
  C   C1944     1.0  0.34257  0.66509  0.76744  1.0000
  H   H1935     1.0  0.60710  0.56974  0.73881  1.0000
  C   C1945     1.0  0.33055  0.67815  0.77322  1.0000
  C   C1946     1.0  0.37044  0.62677  0.70399  1.0000
  N   N160      1.0  0.40743  0.70925  0.56935  1.0000
  C   C1947     1.0  0.54837  0.71934  0.67988  1.0000
  Fe  Fe336     1.0  0.33354  0.56025  0.72078  1.0000
  C   C1948     1.0  0.52527  0.67729  0.82051  1.0000
  C   C1949     1.0  0.33759  0.65214  0.76462  1.0000
  H   H1936     1.0  0.35567  0.66509  0.76504  1.0000
  C   C1950     1.0  0.46758  0.64929  0.70942  1.0000
  C   C1951     1.0  0.58541  0.58967  0.73989  1.0000
  H   H1937     1.0  0.42634  0.72254  0.55651  1.0000
  H   H1938     1.0  0.51190  0.71783  0.70803  1.0000
  C   C1952     1.0  0.60197  0.58266  0.73395  1.0000
  C   C1953     1.0  0.36505  0.71478  0.58725  1.0000
  N   N161      1.0  0.37241  0.61566  0.69453  1.0000
  C   C1954     1.0  0.35949  0.60884  0.69533  1.0000
  H   H1939     1.0  0.47173  0.65811  0.71340  1.0000
  S   S662      1.0  0.32759  0.68163  0.85288  1.0000
  H   H1940     1.0  0.45156  0.61769  0.69702  1.0000
  C   C1955     1.0  0.50845  0.69650  0.80133  1.0000
  C   C1956     1.0  0.38865  0.61090  0.68383  1.0000
  H   H1941     1.0  0.36113  0.59961  0.68826  1.0000
  S   S663      1.0  0.32242  0.54463  0.74470  1.0000
  Fe  Fe337     1.0  0.33023  0.71174  0.55313  1.0000
  H   H1942     1.0  0.39105  0.66881  0.58372  1.0000
  C   C1957     1.0  0.47030  0.63257  0.71747  1.0000
  H   H1943     1.0  0.39828  0.60586  0.69135  1.0000
  H   H1944     1.0  0.32828  0.71948  0.61440  1.0000
  H   H1945     1.0  0.39196  0.62192  0.67438  1.0000
  H   H1946     1.0  0.45672  0.66752  0.69033  1.0000
  N   N162      1.0  0.35990  0.63962  0.82048  1.0000
  C   C1958     1.0  0.37059  0.63185  0.80851  1.0000
  C   C1959     1.0  0.34319  0.64092  0.82319  1.0000
  C   C1960     1.0  0.36459  0.62507  0.79890  1.0000
  C   C1961     1.0  0.36649  0.64542  0.83131  1.0000
  H   H1947     1.0  0.38386  0.63070  0.80643  1.0000
  H   H1948     1.0  0.37313  0.61863  0.78964  1.0000
  H   H1949     1.0  0.37796  0.65001  0.82449  1.0000
  S   S664      1.0  0.38139  0.72935  0.62919  1.0000
  H   H1950     1.0  0.36933  0.63521  0.84194  1.0000
  H   H1951     1.0  0.39658  0.71427  0.54851  1.0000
  H   H1952     1.0  0.52932  0.68858  0.82035  1.0000
  C   C1962     1.0  0.61214  0.59256  0.72234  1.0000
  C   C1963     1.0  0.45632  0.62647  0.70040  1.0000
  H   H1953     1.0  0.38075  0.63209  0.70333  1.0000
  C   C1964     1.0  0.46672  0.60407  0.72203  1.0000
  H   H1954     1.0  0.47472  0.60130  0.73104  1.0000
  C   C1965     1.0  0.34757  0.62638  0.80151  1.0000
  H   H1955     1.0  0.44679  0.64703  0.68209  1.0000
  C   C1966     1.0  0.45359  0.64306  0.69191  1.0000
  H   H1956     1.0  0.61675  0.68569  0.79767  1.0000
  H   H1957     1.0  0.58358  0.64071  0.72598  1.0000
  H   H1958     1.0  0.58341  0.70869  0.70951  1.0000
  H   H1959     1.0  0.57758  0.58230  0.74951  1.0000
  H   H1960     1.0  0.40668  0.67535  0.60069  1.0000
  H   H1961     1.0  0.51509  0.70597  0.80019  1.0000
  Fe  Fe338     1.0  0.62077  0.72632  0.84541  1.0000
  H   H1962     1.0  0.65147  0.49852  0.76411  1.0000
  S   S665      1.0  0.32684  0.68961  0.81365  1.0000
  H   H1963     1.0  0.64482  0.70190  0.77188  1.0000
  C   C1967     1.0  0.65406  0.49061  0.75546  1.0000
  S   S666      1.0  0.61164  0.72368  0.80467  1.0000
  H   H1964     1.0  0.45257  0.72198  0.66337  1.0000
  C   C1968     1.0  0.47491  0.72667  0.66634  1.0000
  C   C1969     1.0  0.63207  0.72616  0.76161  1.0000
  C   C1970     1.0  0.65040  0.58715  0.78725  1.0000
  H   H1965     1.0  0.64906  0.56319  0.80341  1.0000
  S   S667      1.0  0.41931  0.72774  0.60723  1.0000
  H   H1966     1.0  0.64891  0.72474  0.48583  1.0000
  H   H1967     1.0  0.65225  0.69441  0.86767  1.0000
  S   S668      1.0  0.41167  0.72414  0.64750  1.0000
  H   H1968     1.0  0.41320  0.72951  0.57476  1.0000
  C   C1971     1.0  0.45877  0.73125  0.66377  1.0000
  H   H1969     1.0  0.64303  0.73139  0.75801  1.0000
  C   C1972     1.0  0.64387  0.89218  0.15840  1.0000
  H   H1970     1.0  0.32466  0.79450  0.15329  1.0000
  C   C1973     1.0  0.43243  0.74328  0.23287  1.0000
  C   C1974     1.0  0.61603  0.77193  0.33564  1.0000
  H   H1971     1.0  0.42231  0.77050  0.19825  1.0000
  H   H1972     1.0  0.60501  0.76817  0.34388  1.0000
  H   H1973     1.0  0.36252  0.75456  0.17092  1.0000
  C   C1975     1.0  0.40985  0.77124  0.25564  1.0000
  H   H1974     1.0  0.64996  0.79300  0.05791  1.0000
  H   H1975     1.0  0.32351  0.73800  0.21757  1.0000
  Fe  Fe339     1.0  0.36465  0.76349  0.22147  1.0000
  C   C1976     1.0  0.38521  0.76621  0.27516  1.0000
  S   S669      1.0  0.39010  0.76372  0.20557  1.0000
  H   H1976     1.0  0.37079  0.78785  0.25227  1.0000
  C   C1977     1.0  0.62096  0.76271  0.27045  1.0000
  H   H1977     1.0  0.61697  0.75283  0.28028  1.0000
  H   H1978     1.0  0.37194  0.76717  0.27820  1.0000
  H   H1979     1.0  0.62430  0.79225  0.09985  1.0000
  C   C1978     1.0  0.32847  0.83032  0.12484  1.0000
  H   H1980     1.0  0.38192  0.77187  0.24090  1.0000
  H   H1981     1.0  0.33036  0.95470  0.08675  1.0000
  H   H1982     1.0  0.64504  0.73442  0.35565  1.0000
  C   C1979     1.0  0.63143  0.78861  0.24530  1.0000
  C   C1980     1.0  0.39421  0.75806  0.28743  1.0000
  H   H1983     1.0  0.64220  0.80358  0.07452  1.0000
  C   C1981     1.0  0.40494  0.74310  0.23062  1.0000
  C   C1982     1.0  0.43400  0.75522  0.21808  1.0000
  S   S670      1.0  0.59010  0.76982  0.26364  1.0000
  C   C1983     1.0  0.32730  0.83004  0.17767  1.0000
  C   C1984     1.0  0.61509  0.78658  0.24855  1.0000
  C   C1985     1.0  0.62414  0.75288  0.09974  1.0000
  C   C1986     1.0  0.38334  0.78117  0.24684  1.0000
  H   H1984     1.0  0.63670  0.77561  0.29597  1.0000
  H   H1985     1.0  0.59744  0.76332  0.32181  1.0000
  S   S671      1.0  0.63811  0.76660  0.44095  1.0000
  S   S672      1.0  0.34661  0.75553  0.21266  1.0000
  C   C1987     1.0  0.64443  0.78141  0.31501  1.0000
  H   H1986     1.0  0.59237  0.73857  0.37168  1.0000
  C   C1988     1.0  0.63350  0.73322  0.35386  1.0000
  H   H1987     1.0  0.61586  0.76714  0.11868  1.0000
  H   H1988     1.0  0.61576  0.75312  0.30939  1.0000
  C   C1989     1.0  0.64817  0.77377  0.45211  1.0000
  C   C1990     1.0  0.42106  0.76115  0.20962  1.0000
  C   C1991     1.0  0.33646  0.73302  0.07689  1.0000
  H   H1989     1.0  0.41616  0.77597  0.24313  1.0000
  H   H1990     1.0  0.34367  0.73354  0.32796  1.0000
  C   C1992     1.0  0.61375  0.75770  0.22687  1.0000
  C   C1993     1.0  0.63299  0.77440  0.20922  1.0000
  C   C1994     1.0  0.64079  0.78188  0.33172  1.0000
  C   C1995     1.0  0.37419  0.74749  0.17491  1.0000
  C   C1996     1.0  0.41924  0.76317  0.26763  1.0000
  N   N163      1.0  0.64184  0.75110  0.23015  1.0000
  H   H1991     1.0  0.60569  0.77421  0.30147  1.0000
  H   H1992     1.0  0.62850  0.80399  0.06173  1.0000
  H   H1993     1.0  0.32600  0.79269  0.30429  1.0000
  H   H1994     1.0  0.60655  0.79501  0.24126  1.0000
  C   C1997     1.0  0.33052  0.81779  0.13884  1.0000
  C   C1998     1.0  0.62616  0.78136  0.09496  1.0000
  H   H1995     1.0  0.38802  0.75281  0.29981  1.0000
  H   H1996     1.0  0.64902  0.78593  0.33661  1.0000
  C   C1999     1.0  0.64525  0.76423  0.21754  1.0000
  H   H1997     1.0  0.38358  0.74417  0.16387  1.0000
  C   C2000     1.0  0.40642  0.75530  0.21599  1.0000
  H   H1998     1.0  0.37413  0.73264  0.34151  1.0000
  H   H1999     1.0  0.38947  0.79043  0.23707  1.0000
  C   C2001     1.0  0.62640  0.74762  0.23471  1.0000
  S   S673      1.0  0.65181  0.73929  0.40911  1.0000
  C   C2002     1.0  0.64261  0.77746  0.25443  1.0000
  S   S674      1.0  0.63029  0.73858  0.16934  1.0000
  H   H2000     1.0  0.63538  0.79870  0.23565  1.0000
  Fe  Fe340     1.0  0.32819  0.77719  0.22119  1.0000
  H   H2001     1.0  0.64814  0.84993  0.15630  1.0000
  H   H2002     1.0  0.62367  0.77719  0.35521  1.0000
  H   H2003     1.0  0.39391  0.73811  0.23531  1.0000
  C   C2003     1.0  0.63374  0.77603  0.30896  1.0000
  C   C2004     1.0  0.62652  0.77708  0.34214  1.0000
  S   S675      1.0  0.63298  0.77669  0.39402  1.0000
  S   S676      1.0  0.33320  0.73177  0.12307  1.0000
  C   C2005     1.0  0.60384  0.73554  0.36283  1.0000
  S   S677      1.0  0.64310  0.85155  0.19544  1.0000
  H   H2004     1.0  0.33329  0.84136  0.12257  1.0000
  H   H2005     1.0  0.44518  0.76004  0.21321  1.0000
  C   C2006     1.0  0.41794  0.73710  0.23906  1.0000
  H   H2006     1.0  0.64989  0.73534  0.25160  1.0000
  N   N164      1.0  0.39301  0.77291  0.25957  1.0000
  H   H2007     1.0  0.43261  0.76175  0.26443  1.0000
  C   C2007     1.0  0.60912  0.76524  0.31269  1.0000
  H   H2008     1.0  0.63500  0.90116  0.15185  1.0000
  H   H2009     1.0  0.62552  0.87941  0.17555  1.0000
  S   S678      1.0  0.35947  0.74801  0.24708  1.0000
  N   N165      1.0  0.61976  0.77136  0.31927  1.0000
  C   C2008     1.0  0.63652  0.76729  0.07280  1.0000
  C   C2009     1.0  0.61711  0.77116  0.21403  1.0000
  C   C2010     1.0  0.41132  0.75662  0.28363  1.0000
  C   C2011     1.0  0.62126  0.76719  0.10568  1.0000
  Fe  Fe341     1.0  0.33976  0.74191  0.23888  1.0000
  S   S679      1.0  0.34696  0.78678  0.22747  1.0000
  Fe  Fe342     1.0  0.63932  0.75166  0.38776  1.0000
  H   H2010     1.0  0.63578  0.78481  0.19927  1.0000
  C   C2012     1.0  0.32555  0.81521  0.18938  1.0000
  S   S680      1.0  0.57733  0.74216  0.30812  1.0000
  S   S681      1.0  0.44844  0.73709  0.24366  1.0000
  C   C2013     1.0  0.63176  0.75291  0.08318  1.0000
  C   C2014     1.0  0.60993  0.77341  0.26092  1.0000
  Fe  Fe343     1.0  0.34035  0.77060  0.25256  1.0000
  S   S682      1.0  0.61840  0.74317  0.38342  1.0000
  H   H2011     1.0  0.41841  0.75032  0.29308  1.0000
  N   N166      1.0  0.37163  0.73234  0.18735  1.0000
  H   H2012     1.0  0.32457  0.75964  0.30816  1.0000
  C   C2015     1.0  0.64995  0.86791  0.18003  1.0000
  C   C2016     1.0  0.65499  0.74022  0.23834  1.0000
  Fe  Fe344     1.0  0.64751  0.76472  0.41397  1.0000
  H   H2013     1.0  0.62076  0.74170  0.10807  1.0000
  C   C2017     1.0  0.33060  0.73658  0.33478  1.0000
  Fe  Fe345     1.0  0.58656  0.74540  0.28066  1.0000
  H   H2014     1.0  0.60132  0.75537  0.23107  1.0000
  C   C2018     1.0  0.63851  0.87988  0.17180  1.0000
  C   C2019     1.0  0.64256  0.77156  0.46935  1.0000
  C   C2020     1.0  0.32353  0.80405  0.14215  1.0000
  H   H2015     1.0  0.37849  0.75582  0.17991  1.0000
  S   S683      1.0  0.33930  0.77839  0.27566  1.0000
  H   H2016     1.0  0.32812  0.74873  0.33824  1.0000
  H   H2017     1.0  0.65143  0.83805  0.36343  1.0000
  H   H2018     1.0  0.60737  0.77919  0.20798  1.0000
  H   H2019     1.0  0.32382  0.95789  0.10772  1.0000
  H   H2020     1.0  0.33822  0.83494  0.17551  1.0000
  H   H2021     1.0  0.33504  0.80878  0.19632  1.0000
  H   H2022     1.0  0.32778  0.74203  0.45787  1.0000
  H   H2023     1.0  0.49260  0.73543  0.24934  1.0000
  H   H2024     1.0  0.34460  0.73618  0.08262  1.0000
  H   H2025     1.0  0.64585  0.75609  0.27433  1.0000
  N   N167      1.0  0.63387  0.78120  0.07880  1.0000
  H   H2026     1.0  0.63433  0.74175  0.07851  1.0000
  H   H2027     1.0  0.64288  0.76708  0.06005  1.0000
  H   H2028     1.0  0.33146  0.75725  0.06100  1.0000
  C   C2021     1.0  0.61874  0.73719  0.36532  1.0000
  C   C2022     1.0  0.63726  0.76470  0.26719  1.0000
  H   H2029     1.0  0.62367  0.73726  0.24476  1.0000
  H   H2030     1.0  0.33723  0.81893  0.14729  1.0000
  Fe  Fe346     1.0  0.64663  0.74026  0.14397  1.0000
  C   C2023     1.0  0.32916  0.74481  0.06472  1.0000
  C   C2024     1.0  0.63879  0.79620  0.06769  1.0000
  S   S684      1.0  0.64934  0.76542  0.12828  1.0000
  C   C2025     1.0  0.35678  0.73607  0.56429  1.0000
  C   C2026     1.0  0.63474  0.79144  0.78985  1.0000
  S   S685      1.0  0.57617  0.74659  0.60614  1.0000
  H   H2031     1.0  0.58304  0.81810  0.78471  1.0000
  H   H2032     1.0  0.43846  0.75162  0.65857  1.0000
  C   C2027     1.0  0.32513  0.75835  0.59152  1.0000
  H   H2033     1.0  0.56600  0.85857  0.68526  1.0000
  H   H2034     1.0  0.58547  0.80357  0.80357  1.0000
  S   S686      1.0  0.39972  0.76043  0.62274  1.0000
  H   H2035     1.0  0.49604  0.76611  0.65262  1.0000
  C   C2028     1.0  0.55666  0.85662  0.65073  1.0000
  C   C2029     1.0  0.64163  0.79942  0.77399  1.0000
  H   H2036     1.0  0.55126  0.77076  0.69855  1.0000
  S   S687      1.0  0.35821  0.80784  0.69937  1.0000
  S   S688      1.0  0.64059  0.83117  0.65595  1.0000
  N   N168      1.0  0.55740  0.78325  0.57089  1.0000
  C   C2030     1.0  0.45924  0.75992  0.66062  1.0000
  C   C2031     1.0  0.53189  0.84595  0.65730  1.0000
  H   H2037     1.0  0.35347  0.73356  0.76782  1.0000
  H   H2038     1.0  0.51638  0.79901  0.58325  1.0000
  C   C2032     1.0  0.34157  0.75406  0.61153  1.0000
  S   S689      1.0  0.63202  0.78629  0.56470  1.0000
  C   C2033     1.0  0.35859  0.75990  0.74335  1.0000
  H   H2039     1.0  0.33948  0.77353  0.77831  1.0000
  H   H2040     1.0  0.56396  0.76227  0.68117  1.0000
  S   S690      1.0  0.52004  0.78543  0.65129  1.0000
  C   C2034     1.0  0.55735  0.76669  0.57562  1.0000
  Fe  Fe347     1.0  0.55548  0.76032  0.62325  1.0000
  S   S691      1.0  0.54419  0.78711  0.61467  1.0000
  H   H2041     1.0  0.63680  0.81843  0.75254  1.0000
  Fe  Fe348     1.0  0.54574  0.78944  0.63953  1.0000
  S   S692      1.0  0.55716  0.80987  0.64026  1.0000
  Fe  Fe349     1.0  0.51965  0.78005  0.62734  1.0000
  S   S693      1.0  0.49578  0.78952  0.61792  1.0000
  C   C2035     1.0  0.33910  0.73789  0.61744  1.0000
  C   C2036     1.0  0.57303  0.78881  0.56345  1.0000
  C   C2037     1.0  0.65452  0.86308  0.81466  1.0000
  H   H2042     1.0  0.64645  0.77414  0.49216  1.0000
  H   H2043     1.0  0.65010  0.73233  0.88644  1.0000
  C   C2038     1.0  0.54196  0.74066  0.71511  1.0000
  C   C2039     1.0  0.64818  0.85313  0.84426  1.0000
  H   H2044     1.0  0.63734  0.79722  0.59482  1.0000
  H   H2045     1.0  0.64101  0.86935  0.68380  1.0000
  H   H2046     1.0  0.45318  0.77290  0.65782  1.0000
  S   S694      1.0  0.58977  0.76825  0.80381  1.0000
  N   N169      1.0  0.47515  0.75532  0.66290  1.0000
  S   S695      1.0  0.45040  0.73972  0.62391  1.0000
  H   H2047     1.0  0.54802  0.84923  0.63312  1.0000
  Fe  Fe350     1.0  0.59212  0.82855  0.70366  1.0000
  S   S696      1.0  0.61447  0.80895  0.69693  1.0000
  S   S697      1.0  0.56711  0.82430  0.70422  1.0000
  Fe  Fe351     1.0  0.61254  0.85012  0.70902  1.0000
  S   S698      1.0  0.63638  0.83212  0.70274  1.0000
  S   S699      1.0  0.61395  0.87458  0.71302  1.0000
  Fe  Fe352     1.0  0.62629  0.83015  0.68217  1.0000
  C   C2040     1.0  0.54290  0.79481  0.57335  1.0000
  Fe  Fe353     1.0  0.62231  0.81266  0.71810  1.0000
  C   C2041     1.0  0.61479  0.81720  0.77206  1.0000
  S   S700      1.0  0.60331  0.84972  0.68713  1.0000
  S   S701      1.0  0.59902  0.83086  0.72625  1.0000
  C   C2042     1.0  0.65083  0.77606  0.47889  1.0000
  H   H2048     1.0  0.63276  0.78510  0.84790  1.0000
  C   C2043     1.0  0.55301  0.76106  0.69157  1.0000
  C   C2044     1.0  0.61782  0.79648  0.79646  1.0000
  C   C2045     1.0  0.60158  0.77283  0.78369  1.0000
  C   C2046     1.0  0.59469  0.78516  0.77156  1.0000
  C   C2047     1.0  0.60473  0.79014  0.75604  1.0000
  C   C2048     1.0  0.62170  0.78304  0.75281  1.0000
  C   C2049     1.0  0.62839  0.77015  0.76465  1.0000
  C   C2050     1.0  0.61830  0.76494  0.78001  1.0000
  H   H2049     1.0  0.58168  0.79105  0.77425  1.0000
  H   H2050     1.0  0.59937  0.79964  0.74673  1.0000
  H   H2051     1.0  0.49556  0.73537  0.66778  1.0000
  H   H2052     1.0  0.62371  0.75527  0.78915  1.0000
  S   S702      1.0  0.55829  0.76290  0.64749  1.0000
  C   C2051     1.0  0.32980  0.73219  0.61002  1.0000
  C   C2052     1.0  0.63202  0.75919  0.85608  1.0000
  S   S703      1.0  0.64062  0.87775  0.77364  1.0000
  C   C2053     1.0  0.45079  0.74795  0.66111  1.0000
  H   H2053     1.0  0.52363  0.84074  0.65366  1.0000
  C   C2054     1.0  0.48293  0.73895  0.66595  1.0000
  C   C2055     1.0  0.34371  0.74496  0.76918  1.0000
  S   S704      1.0  0.63502  0.79081  0.73468  1.0000
  H   H2054     1.0  0.56883  0.75748  0.57385  1.0000
  C   C2056     1.0  0.63379  0.87664  0.75651  1.0000
  C   C2057     1.0  0.63019  0.86184  0.75593  1.0000
  C   C2058     1.0  0.62437  0.86093  0.74251  1.0000
  C   C2059     1.0  0.62162  0.87498  0.72989  1.0000
  C   C2060     1.0  0.62506  0.88979  0.73060  1.0000
  C   C2061     1.0  0.63141  0.89055  0.74368  1.0000
  C   C2062     1.0  0.59032  0.81410  0.79450  1.0000
  H   H2055     1.0  0.62173  0.84950  0.74203  1.0000
  H   H2056     1.0  0.62275  0.90078  0.72101  1.0000
  H   H2057     1.0  0.63390  0.90207  0.74414  1.0000
  C   C2063     1.0  0.54064  0.85308  0.67827  1.0000
  N   N170      1.0  0.34996  0.75973  0.75932  1.0000
  C   C2064     1.0  0.56174  0.81025  0.65884  1.0000
  C   C2065     1.0  0.57539  0.81659  0.65808  1.0000
  C   C2066     1.0  0.57780  0.81977  0.67229  1.0000
  C   C2067     1.0  0.56627  0.81709  0.68726  1.0000
  C   C2068     1.0  0.55295  0.81015  0.68820  1.0000
  C   C2069     1.0  0.55079  0.80653  0.67406  1.0000
  H   H2058     1.0  0.58388  0.81950  0.64634  1.0000
  H   H2059     1.0  0.58816  0.82504  0.67146  1.0000
  H   H2060     1.0  0.54397  0.80813  0.69975  1.0000
  H   H2061     1.0  0.54010  0.80188  0.67470  1.0000
  C   C2070     1.0  0.61695  0.77477  0.57637  1.0000
  C   C2071     1.0  0.60412  0.78143  0.58842  1.0000
  C   C2072     1.0  0.59176  0.77271  0.59780  1.0000
  C   C2073     1.0  0.59209  0.75728  0.59514  1.0000
  C   C2074     1.0  0.60494  0.75057  0.58311  1.0000
  C   C2075     1.0  0.61737  0.75927  0.57376  1.0000
  H   H2062     1.0  0.60374  0.79340  0.59052  1.0000
  H   H2063     1.0  0.58199  0.77795  0.60712  1.0000
  H   H2064     1.0  0.60528  0.73861  0.58102  1.0000
  H   H2065     1.0  0.62723  0.75403  0.56450  1.0000
  H   H2066     1.0  0.60706  0.82714  0.76489  1.0000
  N   N171      1.0  0.55501  0.74459  0.70261  1.0000
  H   H2067     1.0  0.53889  0.85344  0.69114  1.0000
  H   H2068     1.0  0.63196  0.85107  0.76585  1.0000
  H   H2069     1.0  0.51890  0.84314  0.68285  1.0000
  H   H2070     1.0  0.56293  0.87727  0.66944  1.0000
  C   C2076     1.0  0.46261  0.75418  0.62142  1.0000
  C   C2077     1.0  0.45628  0.77132  0.61893  1.0000
  C   C2078     1.0  0.46658  0.78207  0.61774  1.0000
  C   C2079     1.0  0.48315  0.77577  0.61927  1.0000
  C   C2080     1.0  0.48939  0.75865  0.62178  1.0000
  C   C2081     1.0  0.47921  0.74796  0.62275  1.0000
  H   H2071     1.0  0.44351  0.77627  0.61789  1.0000
  H   H2072     1.0  0.46165  0.79532  0.61570  1.0000
  H   H2073     1.0  0.50210  0.75357  0.62280  1.0000
  S   S705      1.0  0.36622  0.74903  0.66505  1.0000
  C   C2082     1.0  0.36510  0.76470  0.67501  1.0000
  C   C2083     1.0  0.35094  0.76857  0.68721  1.0000
  C   C2084     1.0  0.34873  0.78196  0.69445  1.0000
  C   C2085     1.0  0.36089  0.79128  0.68993  1.0000
  C   C2086     1.0  0.37527  0.78723  0.67795  1.0000
  C   C2087     1.0  0.37732  0.77402  0.67036  1.0000
  H   H2074     1.0  0.34143  0.76144  0.69079  1.0000
  H   H2075     1.0  0.33751  0.78509  0.70343  1.0000
  H   H2076     1.0  0.38471  0.79444  0.67440  1.0000
  H   H2077     1.0  0.38824  0.77113  0.66087  1.0000
  H   H2078     1.0  0.62422  0.75982  0.84793  1.0000
  C   C2088     1.0  0.52929  0.84722  0.67366  1.0000
  C   C2089     1.0  0.36457  0.74672  0.56789  1.0000
  C   C2090     1.0  0.37271  0.74138  0.58112  1.0000
  H   H2079     1.0  0.56751  0.85994  0.64175  1.0000
  C   C2091     1.0  0.34660  0.77347  0.76580  1.0000
  H   H2080     1.0  0.36439  0.75911  0.56032  1.0000
  C   C2092     1.0  0.48417  0.76788  0.66186  1.0000
  H   H2081     1.0  0.33640  0.77697  0.59378  1.0000
  H   H2082     1.0  0.54205  0.76349  0.68610  1.0000
  C   C2093     1.0  0.63682  0.74427  0.86695  1.0000
  H   H2083     1.0  0.54272  0.74817  0.58768  1.0000
  C   C2094     1.0  0.63679  0.77355  0.85616  1.0000
  S   S706      1.0  0.38271  0.75480  0.58527  1.0000
  C   C2095     1.0  0.52785  0.78987  0.58091  1.0000
  C   C2096     1.0  0.63164  0.81246  0.76506  1.0000
  C   C2097     1.0  0.36439  0.77396  0.73356  1.0000
  H   H2084     1.0  0.57264  0.79689  0.55099  1.0000
  H   H2085     1.0  0.36513  0.79913  0.73245  1.0000
  H   H2086     1.0  0.47722  0.78070  0.65772  1.0000
  C   C2098     1.0  0.64656  0.74379  0.87784  1.0000
  H   H2087     1.0  0.40537  0.73464  0.55660  1.0000
  H   H2088     1.0  0.36092  0.74916  0.73806  1.0000
  Fe  Fe354     1.0  0.42340  0.74082  0.62462  1.0000
  H   H2089     1.0  0.33276  0.74433  0.76510  1.0000
  H   H2090     1.0  0.61244  0.78986  0.80859  1.0000
  S   S707      1.0  0.62925  0.74283  0.82112  1.0000
  C   C2099     1.0  0.34486  0.79118  0.64863  1.0000
  Fe  Fe355     1.0  0.53240  0.75855  0.65710  1.0000
  H   H2091     1.0  0.51618  0.76906  0.59225  1.0000
  H   H2092     1.0  0.48691  0.76670  0.67406  1.0000
  H   H2093     1.0  0.54296  0.80793  0.56978  1.0000
  H   H2094     1.0  0.48421  0.73473  0.62467  1.0000
  H   H2095     1.0  0.35166  0.81363  0.64834  1.0000
  H   H2096     1.0  0.57526  0.79579  0.57146  1.0000
  Fe  Fe356     1.0  0.60393  0.74492  0.81727  1.0000
  H   H2097     1.0  0.32592  0.82296  0.66822  1.0000
  C   C2100     1.0  0.33442  0.76443  0.59858  1.0000
  H   H2098     1.0  0.65032  0.81868  0.96133  1.0000
  C   C2101     1.0  0.52773  0.77302  0.58603  1.0000
  C   C2102     1.0  0.32792  0.81135  0.66452  1.0000
  C   C2103     1.0  0.56605  0.86352  0.67188  1.0000
  C   C2104     1.0  0.35205  0.78781  0.75629  1.0000
  S   S708      1.0  0.52054  0.74452  0.68155  1.0000
  H   H2099     1.0  0.58818  0.82442  0.80077  1.0000
  H   H2100     1.0  0.34890  0.79882  0.76136  1.0000
  C   C2105     1.0  0.54560  0.85076  0.64572  1.0000
  H   H2101     1.0  0.33988  0.74508  0.78259  1.0000
  H   H2102     1.0  0.57891  0.85925  0.66508  1.0000
  N   N172      1.0  0.55423  0.85746  0.66688  1.0000
  H   H2103     1.0  0.37106  0.77417  0.72083  1.0000
  S   S709      1.0  0.53086  0.75297  0.63377  1.0000
  Fe  Fe357     1.0  0.33262  0.81327  0.71543  1.0000
  H   H2104     1.0  0.58387  0.77824  0.56209  1.0000
  Fe  Fe358     1.0  0.38797  0.74277  0.64451  1.0000
  H   H2105     1.0  0.34935  0.75842  0.61667  1.0000
  N   N173      1.0  0.60804  0.80902  0.78745  1.0000
  C   C2106     1.0  0.33305  0.78137  0.65567  1.0000
  C   C2107     1.0  0.54256  0.76133  0.58340  1.0000
  H   H2106     1.0  0.64148  0.76451  0.76214  1.0000
  C   C2108     1.0  0.36108  0.78799  0.74010  1.0000
  H   H2107     1.0  0.35625  0.78679  0.64025  1.0000
  Fe  Fe359     1.0  0.39466  0.74540  0.60753  1.0000
  H   H2108     1.0  0.35080  0.74019  0.55390  1.0000
  H   H2109     1.0  0.64511  0.88724  0.69884  1.0000
  H   H2110     1.0  0.64230  0.78106  0.79679  1.0000
  S   S710      1.0  0.32400  0.83109  0.73249  1.0000
  C   C2109     1.0  0.64537  0.86548  0.83030  1.0000
  H   H2111     1.0  0.64136  0.85485  0.85651  1.0000
  C   C2110     1.0  0.34233  0.80618  0.65324  1.0000
  S   S711      1.0  0.32715  0.73369  0.49283  1.0000
  C   C2111     1.0  0.64649  0.77311  0.86701  1.0000
  Fe  Fe360     1.0  0.65385  0.77509  0.54645  1.0000
  C   C2112     1.0  0.61684  0.73617  0.75892  1.0000
  H   H2112     1.0  0.59076  0.73724  0.76265  1.0000
  H   H2113     1.0  0.62884  0.81359  0.61663  1.0000
  H   H2114     1.0  0.58010  0.73633  0.69054  1.0000
  H   H2115     1.0  0.61590  0.74921  0.75300  1.0000
  H   H2116     1.0  0.65457  0.79524  0.76842  1.0000
  H   H2117     1.0  0.53008  0.74937  0.71638  1.0000
  N   N174      1.0  0.32323  0.74231  0.59703  1.0000
  C   C2113     1.0  0.56983  0.73338  0.70062  1.0000
  H   H2118     1.0  0.33550  0.76942  0.65252  1.0000
  H   H2119     1.0  0.64323  0.97407  0.79962  1.0000
  C   C2114     1.0  0.65146  0.75817  0.87783  1.0000
  C   C2115     1.0  0.64181  0.81021  0.61070  1.0000
  S   S712      1.0  0.65164  0.79170  0.86685  1.0000
  H   H2120     1.0  0.65225  0.87270  0.80386  1.0000
  H   H2121     1.0  0.63626  0.87690  0.83156  1.0000
  C   C2116     1.0  0.64671  0.80089  0.59848  1.0000
  C   C2117     1.0  0.65378  0.81519  0.61520  1.0000
  C   C2118     1.0  0.65428  0.86769  0.67724  1.0000
  H   H2122     1.0  0.63190  0.76608  0.47540  1.0000
  H   H2123     1.0  0.65016  0.82244  0.62464  1.0000
  S   S713      1.0  0.65444  0.76296  0.52611  1.0000
  Fe  Fe361     1.0  0.84367  0.03650  0.20327  1.0000
  C   C2119     1.0  0.68339  0.10030  0.18086  1.0000
  C   C2120     1.0  0.66665  0.15127  0.28368  1.0000
  H   H2124     1.0  0.80655  0.02787  0.12921  1.0000
  C   C2121     1.0  0.84361  0.18090  0.98965  1.0000
  H   H2125     1.0  0.85050  0.20447  0.98417  1.0000
  C   C2122     1.0  0.67015  0.18201  0.14854  1.0000
  H   H2126     1.0  0.67922  0.10650  0.26586  1.0000
  C   C2123     1.0  0.71529  0.09998  0.28703  1.0000
  H   H2127     1.0  0.67377  0.21628  0.11620  1.0000
  C   C2124     1.0  0.69188  0.08862  0.19227  1.0000
  H   H2128     1.0  0.66848  0.22596  0.42138  1.0000
  H   H2129     1.0  0.79594  0.98533  0.14539  1.0000
  H   H2130     1.0  0.69757  0.99372  0.09750  1.0000
  C   C2125     1.0  0.85364  0.01239  0.14886  1.0000
  S   S714      1.0  0.79004  0.20885  0.33121  1.0000
  H   H2131     1.0  0.73349  0.00050  0.10078  1.0000
  Fe  Fe362     1.0  0.77769  0.22643  0.31147  1.0000
  C   C2126     1.0  0.72941  0.10489  0.14304  1.0000
  Fe  Fe363     1.0  0.81299  0.20722  0.31098  1.0000
  S   S715      1.0  0.82953  0.18268  0.30742  1.0000
  H   H2132     1.0  0.81980  0.00902  0.22942  1.0000
  S   S716      1.0  0.65769  0.17252  0.19819  1.0000
  Fe  Fe364     1.0  0.72357  0.14005  0.29134  1.0000
  S   S717      1.0  0.72342  0.16697  0.28696  1.0000
  S   S718      1.0  0.71653  0.12372  0.31609  1.0000
  Fe  Fe365     1.0  0.73683  0.13857  0.25505  1.0000
  S   S719      1.0  0.73761  0.16556  0.24717  1.0000
  S   S720      1.0  0.74309  0.12267  0.23643  1.0000
  Fe  Fe366     1.0  0.74794  0.16072  0.26966  1.0000
  S   S721      1.0  0.77093  0.16777  0.27003  1.0000
  Fe  Fe367     1.0  0.71307  0.16930  0.26509  1.0000
  S   S722      1.0  0.69035  0.18800  0.25946  1.0000
  S   S723      1.0  0.74914  0.13350  0.27619  1.0000
  S   S724      1.0  0.71135  0.14265  0.27078  1.0000
  Fe  Fe368     1.0  0.74078  0.12819  0.00697  1.0000
  S   S725      1.0  0.72664  0.15215  0.99410  1.0000
  S   S726      1.0  0.72641  0.10957  0.02442  1.0000
  Fe  Fe369     1.0  0.77345  0.13896  0.99349  1.0000
  N   N175      1.0  0.90077  0.21776  0.18819  1.0000
  S   S727      1.0  0.80090  0.13224  0.99170  1.0000
  Fe  Fe370     1.0  0.74182  0.16396  0.00295  1.0000
  S   S728      1.0  0.73252  0.18631  0.01451  1.0000
  H   H2133     1.0  0.98542  0.10927  0.26018  1.0000
  H   H2134     1.0  0.83268  0.22276  0.24666  1.0000
  S   S729      1.0  0.75458  0.14023  0.01720  1.0000
  S   S730      1.0  0.76087  0.12469  0.98423  1.0000
  Fe  Fe371     1.0  0.74765  0.04933  0.10377  1.0000
  S   S731      1.0  0.72045  0.04922  0.11122  1.0000
  S   S732      1.0  0.76282  0.05851  0.07867  1.0000
  Fe  Fe372     1.0  0.75276  0.03645  0.13884  1.0000
  S   S733      1.0  0.72614  0.03530  0.14926  1.0000
  S   S734      1.0  0.77003  0.02708  0.15639  1.0000
  Fe  Fe373     1.0  0.72841  0.02437  0.12764  1.0000
  H   H2135     1.0  0.70719  0.12756  0.17170  1.0000
  Fe  Fe374     1.0  0.72064  0.06001  0.13219  1.0000
  S   S735      1.0  0.70205  0.08276  0.13884  1.0000
  S   S736      1.0  0.75564  0.02360  0.11854  1.0000
  S   S737      1.0  0.74717  0.06205  0.12343  1.0000
  Fe  Fe375     1.0  0.82146  0.06157  0.22287  1.0000
  S   S738      1.0  0.82431  0.08302  0.20143  1.0000
  S   S739      1.0  0.80575  0.06573  0.24735  1.0000
  S   S740      1.0  0.84897  0.05606  0.18024  1.0000
  Fe  Fe376     1.0  0.85125  0.07074  0.19728  1.0000
  S   S741      1.0  0.86852  0.08844  0.19081  1.0000
  Fe  Fe377     1.0  0.82160  0.06651  0.18669  1.0000
  S   S742      1.0  0.80647  0.07656  0.16705  1.0000
  S   S743      1.0  0.81620  0.04613  0.20875  1.0000
  Fe  Fe378     1.0  0.92650  0.15083  0.20877  1.0000
  S   S744      1.0  0.93583  0.12715  0.22583  1.0000
  S   S745      1.0  0.93743  0.15677  0.18143  1.0000
  Fe  Fe379     1.0  0.90046  0.16459  0.23615  1.0000
  S   S746      1.0  0.90721  0.14197  0.25556  1.0000
  S   S747      1.0  0.88158  0.18828  0.23905  1.0000
  Fe  Fe380     1.0  0.93368  0.14353  0.24304  1.0000
  Fe  Fe381     1.0  0.90867  0.12763  0.23668  1.0000
  S   S748      1.0  0.89847  0.10439  0.24267  1.0000
  S   S749      1.0  0.92670  0.16711  0.22498  1.0000
  S   S750      1.0  0.89966  0.15018  0.21846  1.0000
  H   H2136     1.0  0.87133  0.20242  0.12750  1.0000
  H   H2137     1.0  0.83585  0.15870  0.99132  1.0000
  S   S751      1.0  0.71751  0.00149  0.13539  1.0000
  H   H2138     1.0  0.97394  0.14146  0.22691  1.0000
  C   C2127     1.0  0.87415  0.09360  0.20669  1.0000
  C   C2128     1.0  0.87684  0.08188  0.22113  1.0000
  C   C2129     1.0  0.88374  0.08557  0.23238  1.0000
  C   C2130     1.0  0.88799  0.10098  0.22930  1.0000
  C   C2131     1.0  0.88461  0.11293  0.21522  1.0000
  C   C2132     1.0  0.87766  0.10927  0.20402  1.0000
  H   H2139     1.0  0.87427  0.06972  0.22329  1.0000
  H   H2140     1.0  0.88627  0.07626  0.24327  1.0000
  H   H2141     1.0  0.88768  0.12486  0.21272  1.0000
  H   H2142     1.0  0.87551  0.11845  0.19293  1.0000
  C   C2133     1.0  0.77878  0.04162  0.15989  1.0000
  C   C2134     1.0  0.78656  0.03712  0.17321  1.0000
  C   C2135     1.0  0.79477  0.04793  0.17568  1.0000
  C   C2136     1.0  0.79507  0.06342  0.16499  1.0000
  C   C2137     1.0  0.78684  0.06816  0.15192  1.0000
  C   C2138     1.0  0.77882  0.05721  0.14928  1.0000
  H   H2143     1.0  0.78638  0.02514  0.18155  1.0000
  H   H2144     1.0  0.80103  0.04413  0.18573  1.0000
  H   H2145     1.0  0.78715  0.08009  0.14350  1.0000
  H   H2146     1.0  0.77318  0.06063  0.13875  1.0000
  C   C2139     1.0  0.73667  0.09524  0.03932  1.0000
  C   C2140     1.0  0.72798  0.08468  0.05217  1.0000
  C   C2141     1.0  0.73584  0.07344  0.06441  1.0000
  C   C2142     1.0  0.75249  0.07261  0.06373  1.0000
  C   C2143     1.0  0.76121  0.08304  0.05078  1.0000
  C   C2144     1.0  0.75329  0.09443  0.03868  1.0000
  H   H2147     1.0  0.71516  0.08516  0.05261  1.0000
  H   H2148     1.0  0.72913  0.06522  0.07418  1.0000
  H   H2149     1.0  0.77413  0.08232  0.05012  1.0000
  H   H2150     1.0  0.76015  0.10238  0.02871  1.0000
  C   C2145     1.0  0.75950  0.10564  0.23990  1.0000
  C   C2146     1.0  0.76338  0.09983  0.25549  1.0000
  C   C2147     1.0  0.77729  0.08713  0.25789  1.0000
  C   C2148     1.0  0.78732  0.08011  0.24469  1.0000
  C   C2149     1.0  0.78305  0.08535  0.22924  1.0000
  C   C2150     1.0  0.76912  0.09812  0.22685  1.0000
  H   H2151     1.0  0.75563  0.10496  0.26581  1.0000
  H   H2152     1.0  0.78045  0.08295  0.26990  1.0000
  H   H2153     1.0  0.79055  0.07972  0.21907  1.0000
  H   H2154     1.0  0.76608  0.10243  0.21479  1.0000
  C   C2151     1.0  0.84408  0.18434  0.28851  1.0000
  C   C2152     1.0  0.84617  0.19989  0.27869  1.0000
  C   C2153     1.0  0.85786  0.20100  0.26359  1.0000
  C   C2154     1.0  0.86740  0.18660  0.25822  1.0000
  C   C2155     1.0  0.86528  0.17107  0.26804  1.0000
  C   C2156     1.0  0.85367  0.16995  0.28319  1.0000
  H   H2155     1.0  0.83891  0.21106  0.28278  1.0000
  H   H2156     1.0  0.85963  0.21302  0.25613  1.0000
  H   H2157     1.0  0.87244  0.15991  0.26391  1.0000
  H   H2158     1.0  0.85207  0.15790  0.29073  1.0000
  C   C2157     1.0  0.75747  0.20882  0.29822  1.0000
  C   C2158     1.0  0.74643  0.20773  0.28951  1.0000
  C   C2159     1.0  0.75034  0.19481  0.28115  1.0000
  C   C2160     1.0  0.76532  0.18312  0.28143  1.0000
  C   C2161     1.0  0.77615  0.18404  0.29042  1.0000
  C   C2162     1.0  0.77219  0.19683  0.29887  1.0000
  H   H2159     1.0  0.83331  0.16863  0.34183  1.0000
  H   H2160     1.0  0.74203  0.19425  0.27400  1.0000
  H   H2161     1.0  0.78767  0.17492  0.29079  1.0000
  H   H2162     1.0  0.78060  0.19737  0.30588  1.0000
  N   N176      1.0  0.70546  0.10069  0.26323  1.0000
  S   S752      1.0  0.75324  0.22532  0.30795  1.0000
  C   C2163     1.0  0.79097  0.99508  0.22004  1.0000
  H   H2163     1.0  0.68373  0.12467  0.37185  1.0000
  C   C2164     1.0  0.71181  0.18806  0.02583  1.0000
  C   C2165     1.0  0.70500  0.19960  0.03600  1.0000
  C   C2166     1.0  0.68596  0.10596  0.28823  1.0000
  C   C2167     1.0  0.75669  0.98219  0.14794  1.0000
  H   H2164     1.0  0.71237  0.20761  0.03677  1.0000
  H   H2165     1.0  0.79453  0.01952  0.21799  1.0000
  C   C2168     1.0  0.70623  0.07264  0.17105  1.0000
  C   C2169     1.0  0.69777  0.08439  0.15964  1.0000
  C   C2170     1.0  0.68629  0.09817  0.16464  1.0000
  C   C2171     1.0  0.72987  0.98883  0.10700  1.0000
  H   H2166     1.0  0.71518  0.06202  0.16732  1.0000
  H   H2167     1.0  0.72549  0.09858  0.29278  1.0000
  S   S753      1.0  0.84857  0.05011  0.21978  1.0000
  C   C2172     1.0  0.69899  0.10379  0.29584  1.0000
  H   H2168     1.0  0.75763  0.08053  0.17914  1.0000
  C   C2173     1.0  0.68364  0.19045  0.47117  1.0000
  C   C2174     1.0  0.67572  0.17564  0.26534  1.0000
  C   C2175     1.0  0.67471  0.16428  0.28055  1.0000
  H   H2169     1.0  0.68199  0.13999  0.15555  1.0000
  Fe  Fe382     1.0  0.66509  0.21911  0.36102  1.0000
  H   H2170     1.0  0.68104  0.16492  0.28953  1.0000
  C   C2176     1.0  0.90311  0.20088  0.15574  1.0000
  C   C2177     1.0  0.92026  0.19838  0.14957  1.0000
  C   C2178     1.0  0.93082  0.18440  0.15704  1.0000
  C   C2179     1.0  0.92421  0.17312  0.17081  1.0000
  C   C2180     1.0  0.90704  0.17537  0.17644  1.0000
  C   C2181     1.0  0.89652  0.18919  0.16895  1.0000
  H   H2171     1.0  0.92545  0.20738  0.13936  1.0000
  H   H2172     1.0  0.94411  0.18266  0.15255  1.0000
  H   H2173     1.0  0.90177  0.16646  0.18653  1.0000
  H   H2174     1.0  0.88324  0.19095  0.17361  1.0000
  C   C2182     1.0  0.81810  0.15468  0.02463  1.0000
  C   C2183     1.0  0.82569  0.13866  0.02215  1.0000
  C   C2184     1.0  0.82035  0.13191  0.01199  1.0000
  C   C2185     1.0  0.80701  0.14090  0.00468  1.0000
  C   C2186     1.0  0.79912  0.15682  0.00739  1.0000
  C   C2187     1.0  0.80482  0.16380  0.01717  1.0000
  H   H2175     1.0  0.92995  0.09756  0.21837  1.0000
  H   H2176     1.0  0.82646  0.11959  0.00995  1.0000
  H   H2177     1.0  0.78881  0.16385  0.00172  1.0000
  H   H2178     1.0  0.79874  0.17606  0.01912  1.0000
  C   C2188     1.0  0.71831  0.09848  0.27063  1.0000
  N   N177      1.0  0.79098  0.22906  0.25320  1.0000
  C   C2189     1.0  0.84781  0.19542  0.97920  1.0000
  C   C2190     1.0  0.68649  0.13188  0.35935  1.0000
  H   H2179     1.0  0.84269  0.99639  0.14192  1.0000
  H   H2180     1.0  0.69590  0.14574  0.05047  1.0000
  H   H2181     1.0  0.71127  0.09612  0.10345  1.0000
  S   S754      1.0  0.66615  0.15775  0.37207  1.0000
  H   H2182     1.0  0.73230  0.14904  0.32183  1.0000
  H   H2183     1.0  0.67701  0.17102  0.33665  1.0000
  C   C2191     1.0  0.84152  0.00896  0.14308  1.0000
  C   C2192     1.0  0.68440  0.14873  0.07543  1.0000
  H   H2184     1.0  0.66976  0.19275  0.13854  1.0000
  N   N178      1.0  0.73594  0.09181  0.16962  1.0000
  C   C2193     1.0  0.82283  0.00117  0.18018  1.0000
  H   H2185     1.0  0.81339  0.20515  0.37159  1.0000
  H   H2186     1.0  0.71094  0.12775  0.14198  1.0000
  S   S755      1.0  0.80957  0.20021  0.05945  1.0000
  C   C2194     1.0  0.69389  0.15037  0.32704  1.0000
  C   C2195     1.0  0.70155  0.13354  0.33086  1.0000
  C   C2196     1.0  0.69770  0.12432  0.34698  1.0000
  H   H2187     1.0  0.92177  0.08079  0.21822  1.0000
  H   H2188     1.0  0.69665  0.15752  0.31456  1.0000
  H   H2189     1.0  0.70354  0.11131  0.34998  1.0000
  H   H2190     1.0  0.70637  0.09088  0.08683  1.0000
  H   H2191     1.0  0.67493  0.14780  0.10152  1.0000
  C   C2197     1.0  0.68851  0.20094  0.04508  1.0000
  C   C2198     1.0  0.74534  0.07805  0.18008  1.0000
  C   C2199     1.0  0.80339  0.19995  0.25621  1.0000
  C   C2200     1.0  0.70255  0.18930  0.21571  1.0000
  S   S756      1.0  0.67299  0.13204  0.22829  1.0000
  H   H2192     1.0  0.92092  0.13729  0.17031  1.0000
  H   H2193     1.0  0.68226  0.98604  0.12488  1.0000
  H   H2194     1.0  0.83003  0.19344  0.25288  1.0000
  S   S757      1.0  0.67093  0.20332  0.08965  1.0000
  C   C2201     1.0  0.83782  0.04045  0.14804  1.0000
  H   H2195     1.0  0.96348  0.11086  0.28316  1.0000
  H   H2196     1.0  0.69077  0.11927  0.10988  1.0000
  C   C2202     1.0  0.84678  0.20285  0.34014  1.0000
  S   S758      1.0  0.68019  0.16381  0.12479  1.0000
  H   H2197     1.0  0.77696  0.21890  0.09483  1.0000
  C   C2203     1.0  0.70200  0.17805  0.02471  1.0000
  C   C2204     1.0  0.79913  0.00627  0.22176  1.0000
  H   H2198     1.0  0.73853  0.07624  0.19324  1.0000
  H   H2199     1.0  0.69889  0.09615  0.24290  1.0000
  H   H2200     1.0  0.83591  0.13151  0.02791  1.0000
  H   H2201     1.0  0.73503  0.21700  0.28899  1.0000
  C   C2205     1.0  0.82600  0.03659  0.14221  1.0000
  H   H2202     1.0  0.67322  0.10911  0.29490  1.0000
  C   C2206     1.0  0.69207  0.12506  0.09681  1.0000
  C   C2207     1.0  0.84641  0.18826  0.33614  1.0000
  C   C2208     1.0  0.77607  0.98603  0.16692  1.0000
  H   H2203     1.0  0.86409  0.00264  0.15202  1.0000
  H   H2204     1.0  0.68568  0.20237  0.17283  1.0000
  S   S759      1.0  0.66123  0.19927  0.38394  1.0000
  H   H2205     1.0  0.72311  0.10438  0.18924  1.0000
  S   S760      1.0  0.88957  0.21883  0.14784  1.0000
  H   H2206     1.0  0.67783  0.17223  0.03201  1.0000
  C   C2209     1.0  0.92400  0.22742  0.16873  1.0000
  S   S761      1.0  0.66165  0.22588  0.45569  1.0000
  C   C2210     1.0  0.90242  0.20337  0.09309  1.0000
  N   N179      1.0  0.72709  0.16813  0.33507  1.0000
  C   C2211     1.0  0.72720  0.18462  0.33195  1.0000
  C   C2212     1.0  0.71670  0.16119  0.34880  1.0000
  C   C2213     1.0  0.71643  0.19470  0.34249  1.0000
  C   C2214     1.0  0.70582  0.17089  0.35964  1.0000
  C   C2215     1.0  0.70568  0.18775  0.35641  1.0000
  C   C2216     1.0  0.73865  0.15759  0.32415  1.0000
  H   H2207     1.0  0.73562  0.19009  0.32128  1.0000
  H   H2208     1.0  0.71661  0.14811  0.35132  1.0000
  H   H2209     1.0  0.71637  0.20783  0.33989  1.0000
  H   H2210     1.0  0.69741  0.16541  0.37039  1.0000
  H   H2211     1.0  0.69726  0.19542  0.36468  1.0000
  H   H2212     1.0  0.74371  0.16503  0.31191  1.0000
  H   H2213     1.0  0.74918  0.15011  0.32991  1.0000
  H   H2214     1.0  0.94256  0.08239  0.20643  1.0000
  N   N180      1.0  0.76104  0.17711  0.04960  1.0000
  C   C2217     1.0  0.76083  0.16334  0.04468  1.0000
  C   C2218     1.0  0.77336  0.17697  0.05688  1.0000
  C   C2219     1.0  0.77300  0.14881  0.04732  1.0000
  C   C2220     1.0  0.78569  0.16266  0.05974  1.0000
  C   C2221     1.0  0.78547  0.14850  0.05493  1.0000
  C   C2222     1.0  0.74844  0.19229  0.04623  1.0000
  H   H2215     1.0  0.75126  0.16362  0.03857  1.0000
  H   H2216     1.0  0.77381  0.18799  0.06039  1.0000
  H   H2217     1.0  0.77300  0.13797  0.04318  1.0000
  H   H2218     1.0  0.79566  0.16270  0.06517  1.0000
  H   H2219     1.0  0.79529  0.13751  0.05659  1.0000
  H   H2220     1.0  0.74734  0.20095  0.05418  1.0000
  H   H2221     1.0  0.75166  0.19873  0.03306  1.0000
  H   H2222     1.0  0.73607  0.18933  0.04867  1.0000
  S   S762      1.0  0.95136  0.14191  0.25902  1.0000
  C   C2223     1.0  0.67866  0.19109  0.04361  1.0000
  H   H2223     1.0  0.77992  0.99956  0.21498  1.0000
  C   C2224     1.0  0.66556  0.17006  0.17786  1.0000
  C   C2225     1.0  0.66469  0.18398  0.16488  1.0000
  H   H2224     1.0  0.67735  0.16122  0.07168  1.0000
  H   H2225     1.0  0.94802  0.21165  0.17050  1.0000
  H   H2226     1.0  0.69701  0.18319  0.16685  1.0000
  H   H2227     1.0  0.90585  0.12503  0.15744  1.0000
  C   C2226     1.0  0.88279  0.21995  0.19442  1.0000
  H   H2228     1.0  0.80073  0.18914  0.97514  1.0000
  N   N181      1.0  0.83515  0.20866  0.35288  1.0000
  C   C2227     1.0  0.68944  0.10447  0.27178  1.0000
  H   H2229     1.0  0.67487  0.11118  0.18434  1.0000
  H   H2230     1.0  0.85526  0.18394  0.32566  1.0000
  H   H2231     1.0  0.68325  0.20996  0.05277  1.0000
  H   H2232     1.0  0.72492  0.09852  0.08343  1.0000
  H   H2233     1.0  0.83597  0.05275  0.15026  1.0000
  C   C2228     1.0  0.87788  0.20172  0.11489  1.0000
  N   N182      1.0  0.69898  0.18568  0.19033  1.0000
  C   C2229     1.0  0.70061  0.19572  0.19940  1.0000
  C   C2230     1.0  0.69894  0.16929  0.19718  1.0000
  C   C2231     1.0  0.66134  0.18374  0.46305  1.0000
  C   C2232     1.0  0.70102  0.16246  0.21339  1.0000
  C   C2233     1.0  0.70289  0.17253  0.22265  1.0000
  H   H2234     1.0  0.85736  0.19752  0.10794  1.0000
  H   H2235     1.0  0.89524  0.20188  0.05716  1.0000
  C   C2234     1.0  0.66770  0.17468  0.25369  1.0000
  C   C2235     1.0  0.83529  0.22447  0.35620  1.0000
  H   H2236     1.0  0.77724  0.21016  0.25950  1.0000
  H   H2237     1.0  0.70431  0.16740  0.23530  1.0000
  N   N183      1.0  0.82789  0.02099  0.13990  1.0000
  C   C2236     1.0  0.81908  0.20344  0.25268  1.0000
  C   C2237     1.0  0.78940  0.21299  0.25644  1.0000
  H   H2238     1.0  0.69647  0.10530  0.30847  1.0000
  N   N184      1.0  0.89468  0.20074  0.08244  1.0000
  H   H2239     1.0  0.87947  0.20984  0.20517  1.0000
  H   H2240     1.0  0.71168  0.11731  0.05924  1.0000
  C   C2238     1.0  0.85170  0.02822  0.15145  1.0000
  C   C2239     1.0  0.67756  0.15228  0.15811  1.0000
  H   H2241     1.0  0.66853  0.18339  0.24188  1.0000
  C   C2240     1.0  0.71826  0.11787  0.14965  1.0000
  H   H2242     1.0  0.70990  0.06564  0.19605  1.0000
  H   H2243     1.0  0.69313  0.21086  0.13457  1.0000
  C   C2241     1.0  0.76037  0.21045  0.97911  1.0000
  C   C2242     1.0  0.82214  0.18574  0.35808  1.0000
  C   C2243     1.0  0.68301  0.14119  0.09217  1.0000
  H   H2244     1.0  0.82661  0.02208  0.18680  1.0000
  H   H2245     1.0  0.90215  0.09604  0.16939  1.0000
  C   C2244     1.0  0.92841  0.20178  0.18890  1.0000
  N   N185      1.0  0.81878  0.10927  0.24179  1.0000
  C   C2245     1.0  0.81678  0.11826  0.25335  1.0000
  C   C2246     1.0  0.80673  0.11218  0.23315  1.0000
  C   C2247     1.0  0.80264  0.13085  0.25614  1.0000
  C   C2248     1.0  0.79248  0.12469  0.23558  1.0000
  C   C2249     1.0  0.79048  0.13408  0.24713  1.0000
  C   C2250     1.0  0.83345  0.09587  0.23922  1.0000
  H   H2246     1.0  0.82614  0.11572  0.26049  1.0000
  H   H2247     1.0  0.80800  0.10468  0.22444  1.0000
  H   H2248     1.0  0.80100  0.13803  0.26529  1.0000
  H   H2249     1.0  0.78293  0.12690  0.22874  1.0000
  H   H2250     1.0  0.77944  0.14377  0.24918  1.0000
  H   H2251     1.0  0.84421  0.09803  0.24249  1.0000
  H   H2252     1.0  0.83060  0.08385  0.24690  1.0000
  H   H2253     1.0  0.83739  0.09490  0.22603  1.0000
  C   C2251     1.0  0.73829  0.09195  0.15323  1.0000
  Fe  Fe383     1.0  0.79003  0.21832  0.04727  1.0000
  C   C2252     1.0  0.65965  0.14961  0.27156  1.0000
  C   C2253     1.0  0.96972  0.11554  0.29011  1.0000
  H   H2254     1.0  0.74671  0.08177  0.14807  1.0000
  H   H2255     1.0  0.86072  0.03088  0.15647  1.0000
  H   H2256     1.0  0.70699  0.16914  0.01702  1.0000
  C   C2254     1.0  0.71167  0.09975  0.08995  1.0000
  C   C2255     1.0  0.90691  0.22933  0.17516  1.0000
  H   H2257     1.0  0.70364  0.19727  0.22302  1.0000
  S   S763      1.0  0.82559  0.16270  0.03719  1.0000
  C   C2256     1.0  0.69480  0.14007  0.06354  1.0000
  H   H2258     1.0  0.67384  0.14353  0.18449  1.0000
  C   C2257     1.0  0.70328  0.07474  0.18731  1.0000
  C   C2258     1.0  0.72523  0.10461  0.17617  1.0000
  S   S764      1.0  0.83592  0.20655  0.02418  1.0000
  Fe  Fe384     1.0  0.66755  0.11112  0.22127  1.0000
  N   N186      1.0  0.92319  0.09930  0.19582  1.0000
  C   C2259     1.0  0.91532  0.09231  0.18857  1.0000
  C   C2260     1.0  0.92547  0.11515  0.18921  1.0000
  C   C2261     1.0  0.90903  0.10142  0.17462  1.0000
  C   C2262     1.0  0.91930  0.12463  0.17531  1.0000
  C   C2263     1.0  0.91096  0.11772  0.16804  1.0000
  C   C2264     1.0  0.92979  0.08948  0.21034  1.0000
  H   H2259     1.0  0.91328  0.07984  0.19391  1.0000
  H   H2260     1.0  0.93196  0.12066  0.19472  1.0000
  C   C2265     1.0  0.83401  0.17967  0.34520  1.0000
  S   S765      1.0  0.68960  0.09172  0.21230  1.0000
  C   C2266     1.0  0.97053  0.14796  0.25021  1.0000
  H   H2261     1.0  0.74726  0.06618  0.17624  1.0000
  C   C2267     1.0  0.97945  0.14562  0.23449  1.0000
  C   C2268     1.0  0.82290  0.20034  0.36178  1.0000
  H   H2262     1.0  0.97102  0.15520  0.27209  1.0000
  C   C2269     1.0  0.87880  0.19832  0.08773  1.0000
  C   C2270     1.0  0.69732  0.19272  0.17318  1.0000
  Fe  Fe385     1.0  0.81781  0.19005  0.03657  1.0000
  C   C2271     1.0  0.91127  0.20414  0.19512  1.0000
  H   H2263     1.0  0.91494  0.20546  0.08883  1.0000
  C   C2272     1.0  0.97789  0.15325  0.25996  1.0000
  H   H2264     1.0  0.84329  0.17838  0.00278  1.0000
  S   S766      1.0  0.82113  0.22809  0.31520  1.0000
  C   C2273     1.0  0.68268  0.15800  0.33952  1.0000
  H   H2265     1.0  0.93669  0.19070  0.19402  1.0000
  C   C2274     1.0  0.67599  0.16618  0.14514  1.0000
  H   H2266     1.0  0.80200  0.18721  0.25910  1.0000
  H   H2267     1.0  0.70102  0.14948  0.21883  1.0000
  H   H2268     1.0  0.85613  0.20974  0.33268  1.0000
  H   H2269     1.0  0.90638  0.19486  0.20530  1.0000
  H   H2270     1.0  0.70037  0.20877  0.19401  1.0000
  C   C2275     1.0  0.89417  0.20381  0.10947  1.0000
  C   C2276     1.0  0.67910  0.14874  0.35573  1.0000
  H   H2271     1.0  0.81515  0.04609  0.13983  1.0000
  H   H2272     1.0  0.80665  0.01069  0.14674  1.0000
  C   C2277     1.0  0.82807  0.98416  0.18049  1.0000
  H   H2273     1.0  0.70795  0.19851  0.16599  1.0000
  H   H2274     1.0  0.75408  0.98634  0.18624  1.0000
  S   S767      1.0  0.79665  0.20639  0.02569  1.0000
  H   H2275     1.0  0.73072  0.10453  0.13025  1.0000
  H   H2276     1.0  0.80583  0.20392  0.99336  1.0000
  C   C2278     1.0  0.68542  0.17977  0.03329  1.0000
  H   H2277     1.0  0.72067  0.09116  0.24227  1.0000
  C   C2279     1.0  0.81459  0.01670  0.13539  1.0000
  H   H2278     1.0  0.71004  0.11258  0.23793  1.0000
  H   H2279     1.0  0.90030  0.20591  0.11791  1.0000
  H   H2280     1.0  0.69708  0.16145  0.19021  1.0000
  C   C2280     1.0  0.67253  0.15425  0.17450  1.0000
  C   C2281     1.0  0.83930  0.16984  0.98314  1.0000
  H   H2281     1.0  0.87254  0.19646  0.07924  1.0000
  C   C2282     1.0  0.65981  0.16154  0.25674  1.0000
  C   C2283     1.0  0.70890  0.10011  0.24573  1.0000
  H   H2282     1.0  0.73098  0.09572  0.26378  1.0000
  S   S768      1.0  0.76210  0.16381  0.98010  1.0000
  H   H2283     1.0  0.91094  0.20989  0.06025  1.0000
  H   H2284     1.0  0.67976  0.10736  0.15587  1.0000
  H   H2285     1.0  0.81976  0.00806  0.12682  1.0000
  C   C2284     1.0  0.70372  0.12397  0.06859  1.0000
  C   C2285     1.0  0.83044  0.00888  0.18755  1.0000
  H   H2286     1.0  0.81320  0.00851  0.17376  1.0000
  H   H2287     1.0  0.96256  0.12830  0.29106  1.0000
  S   S769      1.0  0.85335  0.00903  0.20437  1.0000
  C   C2286     1.0  0.87011  0.19892  0.10398  1.0000
  C   C2287     1.0  0.80689  0.20951  0.98042  1.0000
  H   H2288     1.0  0.91245  0.18768  0.06528  1.0000
  H   H2289     1.0  0.66660  0.14205  0.29513  1.0000
  C   C2288     1.0  0.90378  0.19991  0.06546  1.0000
  C   C2289     1.0  0.78305  0.98473  0.15056  1.0000
  C   C2290     1.0  0.84333  0.99957  0.19538  1.0000
  N   N187      1.0  0.70236  0.11673  0.08505  1.0000
  S   S770      1.0  0.80006  0.22293  0.29103  1.0000
  C   C2291     1.0  0.81341  0.00025  0.22825  1.0000
  C   C2292     1.0  0.71619  0.11780  0.16631  1.0000
  H   H2290     1.0  0.81217  0.17941  0.36487  1.0000
  H   H2291     1.0  0.65961  0.19625  0.16742  1.0000
  S   S771      1.0  0.68658  0.23103  0.35782  1.0000
  H   H2292     1.0  0.72480  0.99515  0.16979  1.0000
  H   H2293     1.0  0.84230  0.98676  0.23554  1.0000
  C   C2293     1.0  0.82059  0.21988  0.24920  1.0000
  H   H2294     1.0  0.68835  0.19586  0.45832  1.0000
  C   C2294     1.0  0.77329  0.98295  0.14092  1.0000
  Fe  Fe386     1.0  0.82574  0.21859  0.04623  1.0000
  H   H2295     1.0  0.66698  0.19016  0.45048  1.0000
  N   N188      1.0  0.81955  0.98355  0.23258  1.0000
  C   C2295     1.0  0.93478  0.21351  0.17563  1.0000
  C   C2296     1.0  0.77714  0.22553  0.10418  1.0000
  H   H2296     1.0  0.96906  0.10744  0.30267  1.0000
  H   H2297     1.0  0.68266  0.99395  0.08616  1.0000
  S   S772      1.0  0.76417  0.22147  0.06298  1.0000
  H   H2298     1.0  0.76759  0.21961  0.97850  1.0000
  H   H2299     1.0  0.87686  0.21990  0.18449  1.0000
  H   H2300     1.0  0.82749  0.22616  0.36854  1.0000
  S   S773      1.0  0.83581  0.22414  0.06559  1.0000
  H   H2301     1.0  0.84807  0.22519  0.35589  1.0000
  C   C2297     1.0  0.72233  0.98613  0.12384  1.0000
  Fe  Fe387     1.0  0.66245  0.18435  0.11184  1.0000
  H   H2302     1.0  0.66185  0.17080  0.46265  1.0000
  H   H2303     1.0  0.76788  0.19781  0.98276  1.0000
  H   H2304     1.0  0.74890  0.21230  0.98892  1.0000
  Fe  Fe388     1.0  0.79680  0.23139  0.33351  1.0000
  S   S774      1.0  0.66319  0.20383  0.34439  1.0000
  H   H2305     1.0  0.78345  0.98795  0.17431  1.0000
  H   H2306     1.0  0.78542  0.21731  0.11238  1.0000
  C   C2298     1.0  0.68456  0.22273  0.13264  1.0000
  C   C2299     1.0  0.69250  0.98589  0.09261  1.0000
  Fe  Fe389     1.0  0.81416  0.22351  0.01407  1.0000
  C   C2300     1.0  0.75943  0.98525  0.17353  1.0000
  C   C2301     1.0  0.67363  0.22583  0.12218  1.0000
  H   H2307     1.0  0.65674  0.18753  0.31781  1.0000
  H   H2308     1.0  0.77846  0.98241  0.12805  1.0000
  C   C2302     1.0  0.65579  0.22472  0.42661  1.0000
  H   H2309     1.0  0.73986  0.22968  0.09138  1.0000
  C   C2303     1.0  0.73262  0.98238  0.17126  1.0000
  Fe  Fe390     1.0  0.65668  0.18530  0.36782  1.0000
  H   H2310     1.0  0.76424  0.22811  0.11158  1.0000
  S   S775      1.0  0.92172  0.23005  0.10559  1.0000
  H   H2311     1.0  0.86555  0.22975  0.03969  1.0000
  S   S776      1.0  0.65783  0.19275  0.05421  1.0000
  N   N189      1.0  0.98700  0.11596  0.28171  1.0000
  H   H2312     1.0  0.80021  0.23050  0.07654  1.0000
  C   C2304     1.0  0.84822  0.98242  0.19619  1.0000
  N   N190      1.0  0.75006  0.98306  0.16413  1.0000
  C   C2305     1.0  0.81181  0.22467  0.97395  1.0000
  H   H2313     1.0  0.80977  0.99152  0.63493  1.0000
  C   C2306     1.0  0.68966  0.12124  0.92106  1.0000
  H   H2314     1.0  0.84000  0.14897  0.96419  1.0000
  C   C2307     1.0  0.84344  0.18725  0.95634  1.0000
  H   H2315     1.0  0.74155  0.16519  0.91280  1.0000
  S   S777      1.0  0.93066  0.19715  0.76940  1.0000
  C   C2308     1.0  0.68122  0.12210  0.81039  1.0000
  H   H2316     1.0  0.74007  0.10638  0.93895  1.0000
  S   S778      1.0  0.89509  0.19410  0.80738  1.0000
  H   H2317     1.0  0.68859  0.17375  0.83824  1.0000
  S   S779      1.0  0.92205  0.21653  0.72508  1.0000
  S   S780      1.0  0.82527  0.19296  0.89310  1.0000
  C   C2309     1.0  0.74022  0.11926  0.93328  1.0000
  Fe  Fe391     1.0  0.80393  0.18953  0.88505  1.0000
  S   S781      1.0  0.80120  0.16532  0.88211  1.0000
  C   C2310     1.0  0.73233  0.21281  0.84519  1.0000
  C   C2311     1.0  0.68179  0.19827  0.54282  1.0000
  C   C2312     1.0  0.68483  0.15060  0.90922  1.0000
  S   S782      1.0  0.68751  0.03853  0.76308  1.0000
  Fe  Fe392     1.0  0.69043  0.04920  0.80330  1.0000
  S   S783      1.0  0.68258  0.06879  0.78205  1.0000
  S   S784      1.0  0.68933  0.05644  0.82704  1.0000
  Fe  Fe393     1.0  0.66761  0.05186  0.78072  1.0000
  C   C2313     1.0  0.66269  0.15788  0.65958  1.0000
  Fe  Fe394     1.0  0.70317  0.05395  0.76619  1.0000
  S   S785      1.0  0.71686  0.06832  0.74314  1.0000
  S   S786      1.0  0.67350  0.03323  0.80346  1.0000
  Fe  Fe395     1.0  0.73472  0.15190  0.85101  1.0000
  S   S787      1.0  0.71705  0.15246  0.87548  1.0000
  S   S788      1.0  0.74952  0.17168  0.83955  1.0000
  Fe  Fe396     1.0  0.72647  0.12086  0.84742  1.0000
  S   S789      1.0  0.70868  0.11840  0.87210  1.0000
  S   S790      1.0  0.73128  0.10686  0.82720  1.0000
  Fe  Fe397     1.0  0.69982  0.14589  0.86428  1.0000
  Fe  Fe398     1.0  0.72765  0.12514  0.88124  1.0000
  S   S791      1.0  0.71641  0.14808  0.83907  1.0000
  S   S792      1.0  0.74649  0.12489  0.85718  1.0000
  Fe  Fe399     1.0  0.78634  0.07066  0.66541  1.0000
  S   S793      1.0  0.81003  0.06401  0.64710  1.0000
  S   S794      1.0  0.76236  0.08752  0.66012  1.0000
  Fe  Fe400     1.0  0.79964  0.04712  0.69422  1.0000
  S   S795      1.0  0.79276  0.03753  0.72160  1.0000
  Fe  Fe401     1.0  0.82249  0.06535  0.66637  1.0000
  S   S796      1.0  0.84477  0.07691  0.66034  1.0000
  Fe  Fe402     1.0  0.80987  0.03757  0.66093  1.0000
  S   S797      1.0  0.79879  0.07416  0.68350  1.0000
  S   S798      1.0  0.78517  0.04420  0.67768  1.0000
  Fe  Fe403     1.0  0.87027  0.13309  0.70076  1.0000
  S   S799      1.0  0.89103  0.13266  0.67831  1.0000
  S   S800      1.0  0.85254  0.11569  0.70957  1.0000
  Fe  Fe404     1.0  0.87525  0.16490  0.70601  1.0000
  S   S801      1.0  0.89598  0.16731  0.68366  1.0000
  S   S802      1.0  0.86616  0.18306  0.72285  1.0000
  Fe  Fe405     1.0  0.88024  0.15985  0.67138  1.0000
  S   S803      1.0  0.87799  0.17043  0.64503  1.0000
  Fe  Fe406     1.0  0.90499  0.14002  0.69277  1.0000
  S   S804      1.0  0.85854  0.15992  0.69285  1.0000
  S   S805      1.0  0.88516  0.13795  0.71610  1.0000
  Fe  Fe407     1.0  0.73951  0.17584  0.61586  1.0000
  S   S806      1.0  0.71595  0.18113  0.63464  1.0000
  S   S807      1.0  0.76380  0.16192  0.62271  1.0000
  Fe  Fe408     1.0  0.72313  0.19242  0.58683  1.0000
  S   S808      1.0  0.69799  0.19868  0.60291  1.0000
  S   S809      1.0  0.72670  0.20167  0.55933  1.0000
  Fe  Fe409     1.0  0.71116  0.20609  0.61778  1.0000
  N   N191      1.0  0.69672  0.12350  0.93246  1.0000
  Fe  Fe410     1.0  0.70476  0.17324  0.61831  1.0000
  S   S810      1.0  0.68692  0.15674  0.63143  1.0000
  S   S811      1.0  0.73594  0.20190  0.60057  1.0000
  S   S812      1.0  0.72873  0.16596  0.60063  1.0000
  H   H2318     1.0  0.94357  0.17420  0.82645  1.0000
  C   C2314     1.0  0.67131  0.17761  0.50417  1.0000
  H   H2319     1.0  0.82786  0.21025  0.71535  1.0000
  H   H2320     1.0  0.68028  0.16113  0.90002  1.0000
  C   C2315     1.0  0.79075  0.11634  0.94801  1.0000
  H   H2321     1.0  0.79966  0.16643  0.92650  1.0000
  C   C2316     1.0  0.74484  0.20601  0.86870  1.0000
  H   H2322     1.0  0.74555  0.19944  0.88127  1.0000
  N   N192      1.0  0.66546  0.11169  0.74589  1.0000
  C   C2317     1.0  0.78178  0.20949  0.58486  1.0000
  C   C2318     1.0  0.67171  0.98141  0.76681  1.0000
  H   H2323     1.0  0.76042  0.21353  0.55558  1.0000
  C   C2319     1.0  0.74775  0.00552  0.74716  1.0000
  H   H2324     1.0  0.68737  0.09415  0.75107  1.0000
  S   S813      1.0  0.66887  0.22029  0.76627  1.0000
  C   C2320     1.0  0.72433  0.22159  0.64266  1.0000
  H   H2325     1.0  0.70354  0.10006  0.72243  1.0000
  H   H2326     1.0  0.69302  0.21889  0.81357  1.0000
  H   H2327     1.0  0.74433  0.21582  0.65522  1.0000
  H   H2328     1.0  0.73054  0.21278  0.63484  1.0000
  C   C2321     1.0  0.67070  0.16702  0.64493  1.0000
  C   C2322     1.0  0.80752  0.98771  0.64827  1.0000
  C   C2323     1.0  0.84939  0.21020  0.68646  1.0000
  H   H2329     1.0  0.94983  0.19023  0.80891  1.0000
  H   H2330     1.0  0.66257  0.98786  0.75945  1.0000
  H   H2331     1.0  0.69045  0.12594  0.61894  1.0000
  H   H2332     1.0  0.67171  0.19146  0.62986  1.0000
  H   H2333     1.0  0.69042  0.12127  0.70087  1.0000
  Fe  Fe411     1.0  0.82052  0.21843  0.87662  1.0000
  H   H2334     1.0  0.66689  0.14458  0.66285  1.0000
  H   H2335     1.0  0.96475  0.13632  0.68769  1.0000
  C   C2324     1.0  0.85778  0.17897  0.64194  1.0000
  C   C2325     1.0  0.84551  0.18695  0.65343  1.0000
  C   C2326     1.0  0.82934  0.19337  0.65072  1.0000
  C   C2327     1.0  0.82538  0.19134  0.63678  1.0000
  C   C2328     1.0  0.83762  0.18325  0.62541  1.0000
  C   C2329     1.0  0.85386  0.17740  0.62781  1.0000
  H   H2336     1.0  0.84854  0.18831  0.66428  1.0000
  H   H2337     1.0  0.81990  0.19964  0.65954  1.0000
  H   H2338     1.0  0.83463  0.18176  0.61459  1.0000
  H   H2339     1.0  0.86336  0.17140  0.61881  1.0000
  C   C2330     1.0  0.76311  0.10807  0.64954  1.0000
  C   C2331     1.0  0.77806  0.11345  0.64414  1.0000
  C   C2332     1.0  0.77823  0.12998  0.63575  1.0000
  C   C2333     1.0  0.76348  0.14117  0.63285  1.0000
  C   C2334     1.0  0.74858  0.13574  0.63814  1.0000
  C   C2335     1.0  0.74841  0.11923  0.64647  1.0000
  H   H2340     1.0  0.78945  0.10482  0.64633  1.0000
  H   H2341     1.0  0.78980  0.13407  0.63131  1.0000
  H   H2342     1.0  0.73715  0.14425  0.63590  1.0000
  H   H2343     1.0  0.73684  0.11510  0.65057  1.0000
  C   C2336     1.0  0.84648  0.08842  0.67364  1.0000
  C   C2337     1.0  0.86203  0.09131  0.67269  1.0000
  C   C2338     1.0  0.86389  0.10028  0.68322  1.0000
  C   C2339     1.0  0.85016  0.10650  0.69470  1.0000
  C   C2340     1.0  0.83453  0.10396  0.69535  1.0000
  C   C2341     1.0  0.83270  0.09492  0.68489  1.0000
  H   H2344     1.0  0.87274  0.08638  0.66396  1.0000
  H   H2345     1.0  0.87603  0.10199  0.68276  1.0000
  H   H2346     1.0  0.82386  0.10876  0.70421  1.0000
  H   H2347     1.0  0.82061  0.09307  0.68552  1.0000
  Fe  Fe412     1.0  0.69483  0.02109  0.78575  1.0000
  C   C2342     1.0  0.73837  0.06103  0.73839  1.0000
  C   C2343     1.0  0.74724  0.06718  0.72268  1.0000
  C   C2344     1.0  0.76406  0.06022  0.71772  1.0000
  C   C2345     1.0  0.77221  0.04741  0.72860  1.0000
  H   H2348     1.0  0.74099  0.07689  0.71405  1.0000
  H   H2349     1.0  0.77051  0.06456  0.70528  1.0000
  C   C2346     1.0  0.66563  0.18431  0.64113  1.0000
  H   H2350     1.0  0.67843  0.00383  0.76697  1.0000
  C   C2347     1.0  0.73172  0.01483  0.74677  1.0000
  C   C2348     1.0  0.81098  0.22286  0.94636  1.0000
  H   H2351     1.0  0.67416  0.13453  0.84571  1.0000
  H   H2352     1.0  0.69239  0.10293  0.95220  1.0000
  C   C2349     1.0  0.81512  0.06551  0.72702  1.0000
  H   H2353     1.0  0.79329  0.10572  0.95794  1.0000
  C   C2350     1.0  0.98468  0.21406  0.77547  1.0000
  C   C2351     1.0  0.68284  0.19787  0.67121  1.0000
  C   C2352     1.0  0.70143  0.07008  0.82702  1.0000
  C   C2353     1.0  0.71172  0.07683  0.81249  1.0000
  C   C2354     1.0  0.72078  0.08808  0.81277  1.0000
  C   C2355     1.0  0.71947  0.09285  0.82749  1.0000
  C   C2356     1.0  0.70904  0.08628  0.84199  1.0000
  C   C2357     1.0  0.70018  0.07480  0.84177  1.0000
  H   H2354     1.0  0.71279  0.07327  0.80107  1.0000
  H   H2355     1.0  0.72891  0.09302  0.80152  1.0000
  H   H2356     1.0  0.70808  0.08973  0.85343  1.0000
  H   H2357     1.0  0.69229  0.06957  0.85306  1.0000
  C   C2358     1.0  0.78687  0.16739  0.87015  1.0000
  C   C2359     1.0  0.77671  0.15592  0.87469  1.0000
  C   C2360     1.0  0.76518  0.15729  0.86537  1.0000
  C   C2361     1.0  0.76405  0.16988  0.85119  1.0000
  C   C2362     1.0  0.77445  0.18118  0.84641  1.0000
  C   C2363     1.0  0.78568  0.18010  0.85602  1.0000
  H   H2358     1.0  0.77765  0.14600  0.88548  1.0000
  H   H2359     1.0  0.75729  0.14847  0.86913  1.0000
  H   H2360     1.0  0.77378  0.19079  0.83531  1.0000
  H   H2361     1.0  0.79374  0.18878  0.85225  1.0000
  H   H2362     1.0  0.71639  0.03445  0.73258  1.0000
  H   H2363     1.0  0.80610  0.00160  0.68207  1.0000
  S   S814      1.0  0.97022  0.12794  0.74483  1.0000
  C   C2364     1.0  0.90548  0.20877  0.72428  1.0000
  C   C2365     1.0  0.90502  0.20554  0.70938  1.0000
  C   C2366     1.0  0.89270  0.19803  0.70874  1.0000
  C   C2367     1.0  0.88071  0.19389  0.72297  1.0000
  C   C2368     1.0  0.88060  0.19804  0.73764  1.0000
  C   C2369     1.0  0.89308  0.20532  0.73836  1.0000
  H   H2364     1.0  0.91450  0.20835  0.69842  1.0000
  H   H2365     1.0  0.89260  0.19530  0.69727  1.0000
  H   H2366     1.0  0.87123  0.19502  0.74864  1.0000
  H   H2367     1.0  0.89329  0.20789  0.74989  1.0000
  C   C2370     1.0  0.72882  0.02702  0.73267  1.0000
  C   C2371     1.0  0.87983  0.20454  0.82168  1.0000
  C   C2372     1.0  0.86780  0.19645  0.83301  1.0000
  C   C2373     1.0  0.74480  0.20410  0.96264  1.0000
  C   C2374     1.0  0.83619  0.22582  0.72561  1.0000
  C   C2375     1.0  0.71476  0.21594  0.77454  1.0000
  C   C2376     1.0  0.66932  0.09853  0.81449  1.0000
  C   C2377     1.0  0.69150  0.19093  0.48319  1.0000
  C   C2378     1.0  0.68563  0.18832  0.55771  1.0000
  C   C2379     1.0  0.69936  0.18943  0.56282  1.0000
  C   C2380     1.0  0.70956  0.20020  0.55286  1.0000
  C   C2381     1.0  0.70588  0.21000  0.53783  1.0000
  C   C2382     1.0  0.69187  0.20922  0.53293  1.0000
  C   C2383     1.0  0.67264  0.10682  0.65699  1.0000
  H   H2368     1.0  0.70219  0.18171  0.57435  1.0000
  N   N193      1.0  0.84870  0.21911  0.69898  1.0000
  H   H2369     1.0  0.69962  0.11998  0.63653  1.0000
  S   S815      1.0  0.82447  0.03830  0.67860  1.0000
  S   S816      1.0  0.71246  0.03545  0.78749  1.0000
  H   H2370     1.0  0.76592  0.21634  0.86498  1.0000
  H   H2371     1.0  0.96012  0.17315  0.69986  1.0000
  C   C2384     1.0  0.65608  0.10794  0.76298  1.0000
  Fe  Fe413     1.0  0.69119  0.19955  0.76349  1.0000
  N   N194      1.0  0.84314  0.05924  0.71152  1.0000
  H   H2372     1.0  0.68393  0.21912  0.71590  1.0000
  C   C2385     1.0  0.74895  0.22637  0.71272  1.0000
  Fe  Fe414     1.0  0.92242  0.21919  0.75023  1.0000
  H   H2373     1.0  0.68252  0.14460  0.82519  1.0000
  C   C2386     1.0  0.66710  0.12718  0.71786  1.0000
  C   C2387     1.0  0.97171  0.15112  0.78787  1.0000
  H   H2374     1.0  0.70946  0.19098  0.66761  1.0000
  S   S817      1.0  0.74502  0.15966  0.94598  1.0000
  H   H2375     1.0  0.80241  0.06400  0.73005  1.0000
  H   H2376     1.0  0.70432  0.14077  0.94098  1.0000
  H   H2377     1.0  0.77804  0.12737  0.91176  1.0000
  S   S818      1.0  0.80514  0.19860  0.63350  1.0000
  H   H2378     1.0  0.76982  0.03190  0.75312  1.0000
  H   H2379     1.0  0.68308  0.09709  0.66018  1.0000
  C   C2388     1.0  0.66927  0.21653  0.68971  1.0000
  H   H2380     1.0  0.98013  0.22234  0.72200  1.0000
  S   S819      1.0  0.68299  0.18960  0.74629  1.0000
  C   C2389     1.0  0.85554  0.05039  0.69958  1.0000
  C   C2390     1.0  0.79229  0.13194  0.94866  1.0000
  H   H2381     1.0  0.79612  0.13315  0.95917  1.0000
  N   N195      1.0  0.75617  0.21225  0.96324  1.0000
  C   C2391     1.0  0.86033  0.22816  0.69658  1.0000
  C   C2392     1.0  0.69856  0.20753  0.68448  1.0000
  S   S820      1.0  0.71573  0.20622  0.75880  1.0000
  H   H2382     1.0  0.71046  0.20759  0.68647  1.0000
  H   H2383     1.0  0.68046  0.11166  0.79060  1.0000
  C   C2393     1.0  0.85530  0.22089  0.84471  1.0000
  N   N196      1.0  0.75591  0.22360  0.84337  1.0000
  H   H2384     1.0  0.93814  0.12225  0.74713  1.0000
  H   H2385     1.0  0.85518  0.21641  0.67389  1.0000
  N   N197      1.0  0.84218  0.13513  0.65249  1.0000
  C   C2394     1.0  0.83683  0.12388  0.64779  1.0000
  C   C2395     1.0  0.83107  0.14828  0.65808  1.0000
  C   C2396     1.0  0.81992  0.12540  0.64906  1.0000
  C   C2397     1.0  0.81412  0.15047  0.65904  1.0000
  C   C2398     1.0  0.80852  0.13885  0.65465  1.0000
  C   C2399     1.0  0.85992  0.13366  0.65092  1.0000
  H   H2386     1.0  0.84560  0.11346  0.64328  1.0000
  H   H2387     1.0  0.83532  0.15720  0.66174  1.0000
  H   H2388     1.0  0.81573  0.11618  0.64572  1.0000
  H   H2389     1.0  0.80543  0.16118  0.66308  1.0000
  H   H2390     1.0  0.79537  0.14031  0.65554  1.0000
  H   H2391     1.0  0.86211  0.13611  0.66206  1.0000
  H   H2392     1.0  0.86725  0.12109  0.64957  1.0000
  H   H2393     1.0  0.86470  0.14279  0.63993  1.0000
  C   C2400     1.0  0.77847  0.18322  0.58399  1.0000
  C   C2401     1.0  0.79280  0.18502  0.60432  1.0000
  H   H2394     1.0  0.94206  0.17595  0.74353  1.0000
  C   C2402     1.0  0.69825  0.13899  0.93230  1.0000
  H   H2395     1.0  0.78425  0.18757  0.61609  1.0000
  H   H2396     1.0  0.66663  0.08937  0.80967  1.0000
  C   C2403     1.0  0.74103  0.20504  0.94757  1.0000
  H   H2397     1.0  0.77323  0.00144  0.73366  1.0000
  S   S821      1.0  0.70283  0.99330  0.78766  1.0000
  C   C2404     1.0  0.79012  0.16184  0.93718  1.0000
  C   C2405     1.0  0.83687  0.21769  0.71335  1.0000
  C   C2406     1.0  0.76014  0.22308  0.93389  1.0000
  H   H2398     1.0  0.85063  0.21008  0.95429  1.0000
  N   N198      1.0  0.93989  0.17210  0.72092  1.0000
  C   C2407     1.0  0.93477  0.17208  0.73743  1.0000
  C   C2408     1.0  0.93041  0.16783  0.71303  1.0000
  H   H2399     1.0  0.84276  0.19020  0.94343  1.0000
  C   C2409     1.0  0.91559  0.16298  0.72181  1.0000
  C   C2410     1.0  0.91034  0.16276  0.73866  1.0000
  H   H2400     1.0  0.75250  0.21574  0.70704  1.0000
  H   H2401     1.0  0.83956  0.08573  0.73562  1.0000
  H   H2402     1.0  0.93428  0.16800  0.69990  1.0000
  C   C2411     1.0  0.68527  0.18446  0.49979  1.0000
  H   H2403     1.0  0.90818  0.15951  0.71552  1.0000
  C   C2412     1.0  0.84771  0.06897  0.71892  1.0000
  H   H2404     1.0  0.85666  0.19732  0.68947  1.0000
  H   H2405     1.0  0.93508  0.14383  0.78707  1.0000
  C   C2413     1.0  0.66982  0.10887  0.83765  1.0000
  N   N199      1.0  0.74096  0.16907  0.79873  1.0000
  C   C2414     1.0  0.72949  0.16847  0.79075  1.0000
  C   C2415     1.0  0.75086  0.15476  0.80542  1.0000
  C   C2416     1.0  0.72806  0.15333  0.78880  1.0000
  C   C2417     1.0  0.74971  0.13939  0.80377  1.0000
  C   C2418     1.0  0.73833  0.13872  0.79529  1.0000
  C   C2419     1.0  0.74207  0.18516  0.80059  1.0000
  H   H2406     1.0  0.72136  0.17975  0.78583  1.0000
  H   H2407     1.0  0.75959  0.15514  0.81224  1.0000
  H   H2408     1.0  0.71902  0.15295  0.78235  1.0000
  H   H2409     1.0  0.75733  0.12799  0.80935  1.0000
  H   H2410     1.0  0.73726  0.12682  0.79407  1.0000
  H   H2411     1.0  0.74172  0.19449  0.78880  1.0000
  H   H2412     1.0  0.73159  0.18948  0.81044  1.0000
  H   H2413     1.0  0.75383  0.18442  0.80404  1.0000
  H   H2414     1.0  0.68895  0.10889  0.92085  1.0000
  H   H2415     1.0  0.86588  0.05690  0.69337  1.0000
  S   S822      1.0  0.92712  0.22328  0.79241  1.0000
  C   C2420     1.0  0.87959  0.22082  0.82190  1.0000
  S   S823      1.0  0.67240  0.15631  0.86997  1.0000
  C   C2421     1.0  0.83311  0.16196  0.96073  1.0000
  C   C2422     1.0  0.69080  0.10677  0.72559  1.0000
  H   H2416     1.0  0.73866  0.19672  0.97387  1.0000
  C   C2423     1.0  0.84790  0.19856  0.96240  1.0000
  N   N200      1.0  0.68430  0.21690  0.69195  1.0000
  H   H2417     1.0  0.89865  0.15936  0.74544  1.0000
  Fe  Fe415     1.0  0.79237  0.22008  0.64554  1.0000
  H   H2418     1.0  0.78079  0.15470  0.91355  1.0000
  C   C2424     1.0  0.94393  0.12545  0.73416  1.0000
  H   H2419     1.0  0.98499  0.14736  0.78335  1.0000
  H   H2420     1.0  0.67794  0.13292  0.90032  1.0000
  C   C2425     1.0  0.72585  0.22593  0.77255  1.0000
  H   H2421     1.0  0.96543  0.13493  0.77653  1.0000
  H   H2422     1.0  0.69578  0.10430  0.62847  1.0000
  C   C2426     1.0  0.81958  0.07575  0.73435  1.0000
  C   C2427     1.0  0.69087  0.11696  0.63098  1.0000
  H   H2423     1.0  0.78010  0.16993  0.58880  1.0000
  C   C2428     1.0  0.69240  0.15276  0.92064  1.0000
  S   S824      1.0  0.78221  0.21694  0.67286  1.0000
  H   H2424     1.0  0.70214  0.19661  0.47968  1.0000
  S   S825      1.0  0.69903  0.22967  0.62654  1.0000
  Fe  Fe416     1.0  0.78347  0.22371  0.88870  1.0000
  H   H2425     1.0  0.67793  0.17979  0.56538  1.0000
  H   H2426     1.0  0.69390  0.16497  0.92037  1.0000
  H   H2427     1.0  0.68230  0.19061  0.66294  1.0000
  C   C2429     1.0  0.74248  0.14624  0.93512  1.0000
  H   H2428     1.0  0.72165  0.01269  0.75741  1.0000
  Fe  Fe417     1.0  0.67109  0.17388  0.76959  1.0000
  H   H2429     1.0  0.76483  0.18313  0.56635  1.0000
  C   C2430     1.0  0.76356  0.04181  0.74465  1.0000
  C   C2431     1.0  0.74657  0.04851  0.74950  1.0000
  H   H2430     1.0  0.73786  0.14704  0.89691  1.0000
  S   S826      1.0  0.81531  0.01692  0.64720  1.0000
  H   H2431     1.0  0.72810  0.05304  0.70796  1.0000
  H   H2432     1.0  0.74923  0.04772  0.69768  1.0000
  H   H2433     1.0  0.80396  0.19004  0.60243  1.0000
  H   H2434     1.0  0.68901  0.21694  0.52142  1.0000
  S   S827      1.0  0.73368  0.11294  0.90640  1.0000
  C   C2432     1.0  0.73886  0.14213  0.90959  1.0000
  N   N201      1.0  0.78435  0.19267  0.59056  1.0000
  C   C2433     1.0  0.68262  0.13227  0.83380  1.0000
  H   H2435     1.0  0.79682  0.17134  0.60580  1.0000
  C   C2434     1.0  0.75726  0.02054  0.71948  1.0000
  H   H2436     1.0  0.73983  0.04383  0.76171  1.0000
  C   C2435     1.0  0.74100  0.15241  0.91864  1.0000
  H   H2437     1.0  0.68750  0.13156  0.80200  1.0000
  C   C2436     1.0  0.95889  0.13336  0.70068  1.0000
  C   C2437     1.0  0.73815  0.12560  0.91694  1.0000
  H   H2438     1.0  0.96496  0.17283  0.71884  1.0000
  N   N202      1.0  0.74155  0.02985  0.71933  1.0000
  C   C2438     1.0  0.69808  0.19803  0.67386  1.0000
  C   C2439     1.0  0.73311  0.23021  0.72248  1.0000
  C   C2440     1.0  0.68069  0.99049  0.77106  1.0000
  C   C2441     1.0  0.73817  0.04244  0.70454  1.0000
  S   S828      1.0  0.93279  0.13137  0.68969  1.0000
  C   C2442     1.0  0.93789  0.16118  0.79962  1.0000
  H   H2439     1.0  0.83670  0.20981  0.68599  1.0000
  C   C2443     1.0  0.76734  0.20771  0.56525  1.0000
  H   H2440     1.0  0.66688  0.99948  0.80673  1.0000
  C   C2444     1.0  0.67722  0.11088  0.80384  1.0000
  H   H2441     1.0  0.73459  0.03690  0.69619  1.0000
  H   H2442     1.0  0.86791  0.18386  0.83289  1.0000
  C   C2445     1.0  0.91993  0.16741  0.74656  1.0000
  N   N203      1.0  0.67740  0.12107  0.82710  1.0000
  C   C2446     1.0  0.70214  0.22095  0.80212  1.0000
  H   H2443     1.0  0.77801  0.17073  0.93685  1.0000
  Fe  Fe418     1.0  0.65851  0.20185  0.78787  1.0000
  H   H2444     1.0  0.82669  0.22477  0.73690  1.0000
  Fe  Fe419     1.0  0.91053  0.21005  0.78739  1.0000
  N   N204      1.0  0.66980  0.18391  0.47561  1.0000
  C   C2447     1.0  0.68157  0.10345  0.74181  1.0000
  C   C2448     1.0  0.94289  0.13020  0.70530  1.0000
  H   H2445     1.0  0.81032  0.08244  0.74301  1.0000
  S   S829      1.0  0.78505  0.19895  0.90581  1.0000
  C   C2449     1.0  0.73281  0.20453  0.86149  1.0000
  S   S830      1.0  0.66939  0.14748  0.77395  1.0000
  C   C2450     1.0  0.94370  0.14921  0.78994  1.0000
  C   C2451     1.0  0.96073  0.14420  0.78403  1.0000
  H   H2446     1.0  0.65789  0.22359  0.69599  1.0000
  C   C2452     1.0  0.77336  0.21726  0.57204  1.0000
  C   C2453     1.0  0.69231  0.98228  0.78082  1.0000
  C   C2454     1.0  0.66364  0.17749  0.49186  1.0000
  C   C2455     1.0  0.93543  0.12616  0.72209  1.0000
  H   H2447     1.0  0.88888  0.22712  0.81330  1.0000
  H   H2448     1.0  0.78619  0.21695  0.59035  1.0000
  H   H2449     1.0  0.67725  0.19418  0.81551  1.0000
  H   H2450     1.0  0.78414  0.10271  0.93407  1.0000
  H   H2451     1.0  0.82358  0.04927  0.71003  1.0000
  C   C2456     1.0  0.78566  0.11466  0.93464  1.0000
  C   C2457     1.0  0.65826  0.12358  0.73423  1.0000
  C   C2458     1.0  0.80849  0.99839  0.65756  1.0000
  H   H2452     1.0  0.74582  0.21568  0.92135  1.0000
  C   C2459     1.0  0.68350  0.13474  0.90937  1.0000
  C   C2460     1.0  0.76063  0.00835  0.73343  1.0000
  C   C2461     1.0  0.66893  0.18940  0.82660  1.0000
  C   C2462     1.0  0.74221  0.12959  0.94242  1.0000
  H   H2453     1.0  0.72315  0.21160  0.83938  1.0000
  Fe  Fe420     1.0  0.80587  0.20451  0.91271  1.0000
  C   C2463     1.0  0.78385  0.14391  0.92316  1.0000
  H   H2454     1.0  0.79368  0.16162  0.94870  1.0000
  H   H2455     1.0  0.92318  0.12350  0.72575  1.0000
  H   H2456     1.0  0.66118  0.13626  0.70853  1.0000
  H   H2457     1.0  0.72411  0.19669  0.86836  1.0000
  S   S831      1.0  0.80495  0.19527  0.94022  1.0000
  S   S832      1.0  0.97223  0.20053  0.77641  1.0000
  C   C2464     1.0  0.95515  0.17767  0.71155  1.0000
  H   H2458     1.0  0.86054  0.03758  0.70591  1.0000
  H   H2459     1.0  0.86033  0.07074  0.71558  1.0000
  N   N205      1.0  0.78874  0.14548  0.93636  1.0000
  C   C2465     1.0  0.70290  0.21354  0.78930  1.0000
  C   C2466     1.0  0.76988  0.19058  0.57125  1.0000
  C   C2467     1.0  0.66469  0.17164  0.85403  1.0000
  H   H2460     1.0  0.91571  0.16775  0.75956  1.0000
  H   H2461     1.0  0.69105  0.18500  0.50930  1.0000
  C   C2468     1.0  0.86741  0.22893  0.83344  1.0000
  H   H2462     1.0  0.69429  0.20594  0.79091  1.0000
  H   H2463     1.0  0.95263  0.19146  0.70859  1.0000
  C   C2469     1.0  0.80647  0.20752  0.95290  1.0000
  S   S833      1.0  0.68158  0.18180  0.78638  1.0000
  H   H2464     1.0  0.83454  0.16537  0.94707  1.0000
  H   H2465     1.0  0.97952  0.13538  0.70894  1.0000
  S   S834      1.0  0.80066  0.21397  0.86707  1.0000
  C   C2470     1.0  0.75639  0.21561  0.85939  1.0000
  H   H2466     1.0  0.92462  0.16503  0.80421  1.0000
  H   H2467     1.0  0.75016  0.99623  0.75815  1.0000
  H   H2468     1.0  0.84999  0.04983  0.68957  1.0000
  C   C2471     1.0  0.80531  0.99349  0.67481  1.0000
  C   C2472     1.0  0.83599  0.07746  0.73035  1.0000
  C   C2473     1.0  0.68508  0.22671  0.70309  1.0000
  C   C2474     1.0  0.96726  0.13288  0.71271  1.0000
  C   C2475     1.0  0.95982  0.12890  0.72949  1.0000
  C   C2476     1.0  0.78228  0.12849  0.92208  1.0000
  C   C2477     1.0  0.65682  0.99250  0.81039  1.0000
  Fe  Fe421     1.0  0.94645  0.21237  0.77264  1.0000
  H   H2469     1.0  0.84618  0.19835  0.85306  1.0000
  C   C2478     1.0  0.85549  0.20463  0.84445  1.0000
  H   H2470     1.0  0.76740  0.02282  0.70897  1.0000
  H   H2471     1.0  0.71261  0.10006  0.93837  1.0000
  C   C2479     1.0  0.68347  0.11868  0.71353  1.0000
  N   N206      1.0  0.67451  0.11809  0.64225  1.0000
  H   H2472     1.0  0.74358  0.12467  0.95507  1.0000
  H   H2473     1.0  0.86981  0.22915  0.68527  1.0000
  S   S835      1.0  0.66462  0.19640  0.53669  1.0000
  C   C2480     1.0  0.67538  0.17778  0.83951  1.0000
  H   H2474     1.0  0.69535  0.12671  0.83591  1.0000
  N   N207      1.0  0.94877  0.16809  0.80309  1.0000
  C   C2481     1.0  0.82716  0.05722  0.71564  1.0000
  C   C2482     1.0  0.73216  0.22338  0.65412  1.0000
  C   C2483     1.0  0.70270  0.10907  0.94475  1.0000
  H   H2475     1.0  0.71377  0.21832  0.53005  1.0000
  H   H2476     1.0  0.70803  0.11255  0.95336  1.0000
  C   C2484     1.0  0.96549  0.16306  0.79752  1.0000
  C   C2485     1.0  0.80412  0.20105  0.96998  1.0000
  H   H2477     1.0  0.66353  0.08614  0.71853  1.0000
  C   C2486     1.0  0.94257  0.18035  0.81352  1.0000
  N   N208      1.0  0.83904  0.17318  0.96675  1.0000
  H   H2478     1.0  0.72437  0.22246  0.72456  1.0000
  H   H2479     1.0  0.66089  0.11269  0.77104  1.0000
  H   H2480     1.0  0.77140  0.23061  0.56752  1.0000
  C   C2487     1.0  0.66555  0.09751  0.83150  1.0000
  H   H2481     1.0  0.66623  0.17282  0.51711  1.0000
  H   H2482     1.0  0.73233  0.19819  0.94710  1.0000
  H   H2483     1.0  0.65590  0.09895  0.68002  1.0000
  C   C2488     1.0  0.74407  0.22232  0.83624  1.0000
  H   H2484     1.0  0.66555  0.06649  0.74540  1.0000
  H   H2485     1.0  0.66301  0.13989  0.62696  1.0000
  H   H2486     1.0  0.81970  0.16255  0.96634  1.0000
  H   H2487     1.0  0.92937  0.18652  0.81346  1.0000
  Fe  Fe422     1.0  0.65960  0.20887  0.75116  1.0000
  H   H2488     1.0  0.66745  0.10759  0.85092  1.0000
  C   C2489     1.0  0.66831  0.20705  0.67929  1.0000
  H   H2489     1.0  0.97417  0.16848  0.80027  1.0000
  H   H2490     1.0  0.77834  0.22465  0.82544  1.0000
  C   C2490     1.0  0.76396  0.22152  0.94909  1.0000
  H   H2491     1.0  0.73527  0.22759  0.76131  1.0000
  H   H2492     1.0  0.84312  0.98284  0.64700  1.0000
  C   C2491     1.0  0.74866  0.21473  0.93314  1.0000
  H   H2493     1.0  0.74373  0.22853  0.82351  1.0000
  H   H2494     1.0  0.66010  0.08745  0.83986  1.0000
  H   H2495     1.0  0.81287  0.22793  0.93318  1.0000
  H   H2496     1.0  0.76620  0.23056  0.92268  1.0000
  H   H2497     1.0  0.65715  0.09436  0.76747  1.0000
  H   H2498     1.0  0.77324  0.22771  0.94944  1.0000
  S   S836      1.0  0.80279  0.23037  0.89706  1.0000
  S   S837      1.0  0.90086  0.23106  0.76788  1.0000
  C   C2492     1.0  0.97973  0.23116  0.76988  1.0000
  C   C2493     1.0  0.65734  0.10781  0.66825  1.0000
  C   C2494     1.0  0.70863  0.23135  0.64120  1.0000
  C   C2495     1.0  0.98590  0.23061  0.72551  1.0000
  Fe  Fe423     1.0  0.74796  0.14989  0.97237  1.0000
  H   H2499     1.0  0.69690  0.23105  0.69925  1.0000
  C   C2496     1.0  0.66141  0.13057  0.63837  1.0000
  S   S838      1.0  0.66999  0.23109  0.49429  1.0000
  H   H2500     1.0  0.65636  0.20683  0.67753  1.0000
  H   H2501     1.0  0.68213  0.23099  0.57758  1.0000
  H   H2502     1.0  0.98835  0.22574  0.81115  1.0000
  H   H2503     1.0  0.73418  0.33594  0.33152  1.0000
  H   H2504     1.0  0.80336  0.33146  0.12008  1.0000
  H   H2505     1.0  0.72694  0.36248  0.37635  1.0000
  H   H2506     1.0  0.72422  0.28655  0.35395  1.0000
  C   C2497     1.0  0.80660  0.27752  0.24627  1.0000
  H   H2507     1.0  0.73847  0.37584  0.31521  1.0000
  H   H2508     1.0  0.76920  0.24892  0.38517  1.0000
  C   C2498     1.0  0.76998  0.25875  0.37418  1.0000
  Fe  Fe424     1.0  0.72649  0.39363  0.27989  1.0000
  S   S839      1.0  0.70028  0.39138  0.29235  1.0000
  S   S840      1.0  0.74551  0.36980  0.27918  1.0000
  Fe  Fe425     1.0  0.71799  0.43127  0.27104  1.0000
  S   S841      1.0  0.69119  0.43202  0.28257  1.0000
  S   S842      1.0  0.72532  0.45565  0.25765  1.0000
  Fe  Fe426     1.0  0.70022  0.41230  0.30323  1.0000
  S   S843      1.0  0.68885  0.41685  0.32878  1.0000
  Fe  Fe427     1.0  0.69384  0.41114  0.27050  1.0000
  C   C2499     1.0  0.88235  0.24032  0.06609  1.0000
  S   S844      1.0  0.72702  0.41300  0.29258  1.0000
  S   S845      1.0  0.72003  0.41187  0.25714  1.0000
  Fe  Fe428     1.0  0.69794  0.33342  0.39593  1.0000
  S   S846      1.0  0.72369  0.32232  0.40013  1.0000
  S   S847      1.0  0.68812  0.36077  0.39437  1.0000
  Fe  Fe429     1.0  0.69102  0.29997  0.39758  1.0000
  S   S848      1.0  0.71618  0.28610  0.40168  1.0000
  C   C2500     1.0  0.67539  0.31424  0.46636  1.0000
  Fe  Fe430     1.0  0.71235  0.30257  0.41940  1.0000
  S   S849      1.0  0.71643  0.29055  0.44529  1.0000
  Fe  Fe431     1.0  0.72510  0.30712  0.38218  1.0000
  S   S850      1.0  0.74554  0.30591  0.35946  1.0000
  S   S851      1.0  0.68635  0.31490  0.41671  1.0000
  S   S852      1.0  0.70013  0.31974  0.37656  1.0000
  H   H2509     1.0  0.68269  0.29717  0.18598  1.0000
  C   C2501     1.0  0.72338  0.27738  0.34788  1.0000
  H   H2510     1.0  0.66727  0.43243  0.20156  1.0000
  C   C2502     1.0  0.67437  0.29622  0.09045  1.0000
  N   N209      1.0  0.73859  0.35665  0.33712  1.0000
  H   H2511     1.0  0.68782  0.27055  0.46516  1.0000
  Fe  Fe432     1.0  0.89752  0.27344  0.11253  1.0000
  S   S853      1.0  0.91717  0.26977  0.08957  1.0000
  S   S854      1.0  0.88200  0.29850  0.11616  1.0000
  Fe  Fe433     1.0  0.79029  0.34706  0.19815  1.0000
  S   S855      1.0  0.76777  0.34002  0.19637  1.0000
  S   S856      1.0  0.78809  0.37032  0.20637  1.0000
  Fe  Fe434     1.0  0.81355  0.31528  0.18996  1.0000
  S   S857      1.0  0.79312  0.30511  0.18781  1.0000
  S   S858      1.0  0.83914  0.29921  0.18874  1.0000
  Fe  Fe435     1.0  0.78433  0.33094  0.17404  1.0000
  S   S859      1.0  0.77576  0.33341  0.15105  1.0000
  Fe  Fe436     1.0  0.77843  0.31493  0.21017  1.0000
  S   S860      1.0  0.76363  0.30042  0.23214  1.0000
  S   S861      1.0  0.80607  0.34048  0.17428  1.0000
  S   S862      1.0  0.79968  0.32272  0.21375  1.0000
  Fe  Fe437     1.0  0.72380  0.28255  0.11642  1.0000
  S   S863      1.0  0.72995  0.26519  0.13971  1.0000
  S   S864      1.0  0.74200  0.28582  0.09210  1.0000
  Fe  Fe438     1.0  0.68776  0.29375  0.13223  1.0000
  S   S865      1.0  0.69039  0.27776  0.15702  1.0000
  C   C2503     1.0  0.66310  0.35797  0.13978  1.0000
  Fe  Fe439     1.0  0.71415  0.28608  0.15174  1.0000
  S   S866      1.0  0.71972  0.29248  0.17273  1.0000
  Fe  Fe440     1.0  0.70569  0.25843  0.14297  1.0000
  C   C2504     1.0  0.68230  0.24551  0.37038  1.0000
  S   S867      1.0  0.71007  0.30416  0.12816  1.0000
  S   S868      1.0  0.70106  0.27379  0.11843  1.0000
  C   C2505     1.0  0.75990  0.32241  0.15680  1.0000
  C   C2506     1.0  0.75381  0.31923  0.14476  1.0000
  C   C2507     1.0  0.74152  0.30989  0.14954  1.0000
  C   C2508     1.0  0.73516  0.30400  0.16633  1.0000
  C   C2509     1.0  0.74108  0.30739  0.17831  1.0000
  C   C2510     1.0  0.75351  0.31645  0.17355  1.0000
  H   H2512     1.0  0.75874  0.32377  0.13179  1.0000
  H   H2513     1.0  0.73707  0.30721  0.14023  1.0000
  H   H2514     1.0  0.73625  0.30278  0.19130  1.0000
  H   H2515     1.0  0.75817  0.31867  0.18293  1.0000
  H   H2516     1.0  0.68271  0.28701  0.34997  1.0000
  C   C2511     1.0  0.79482  0.28534  0.23663  1.0000
  C   C2512     1.0  0.77795  0.28856  0.24409  1.0000
  C   C2513     1.0  0.77277  0.28294  0.26113  1.0000
  H   H2517     1.0  0.70221  0.26641  0.38453  1.0000
  H   H2518     1.0  0.79885  0.28887  0.22337  1.0000
  H   H2519     1.0  0.75971  0.28530  0.26693  1.0000
  H   H2520     1.0  0.74863  0.26399  0.34815  1.0000
  C   C2514     1.0  0.70801  0.26657  0.33585  1.0000
  C   C2515     1.0  0.67405  0.25071  0.13700  1.0000
  H   H2521     1.0  0.76532  0.23912  0.25289  1.0000
  C   C2516     1.0  0.68538  0.45001  0.22792  1.0000
  H   H2522     1.0  0.78056  0.27065  0.28395  1.0000
  H   H2523     1.0  0.67420  0.26042  0.14265  1.0000
  H   H2524     1.0  0.89853  0.23991  0.16942  1.0000
  H   H2525     1.0  0.70999  0.47661  0.20480  1.0000
  C   C2517     1.0  0.96123  0.26565  0.12490  1.0000
  C   C2518     1.0  0.96996  0.27246  0.13208  1.0000
  H   H2526     1.0  0.94787  0.26937  0.12691  1.0000
  H   H2527     1.0  0.96321  0.28136  0.13968  1.0000
  C   C2519     1.0  0.87062  0.29879  0.13651  1.0000
  C   C2520     1.0  0.87252  0.28466  0.14922  1.0000
  C   C2521     1.0  0.86296  0.28497  0.16529  1.0000
  C   C2522     1.0  0.85114  0.29923  0.16860  1.0000
  C   C2523     1.0  0.84907  0.31329  0.15585  1.0000
  C   C2524     1.0  0.85895  0.31313  0.13988  1.0000
  H   H2528     1.0  0.88132  0.27350  0.14670  1.0000
  H   H2529     1.0  0.86458  0.27407  0.17512  1.0000
  H   H2530     1.0  0.84012  0.32440  0.15835  1.0000
  H   H2531     1.0  0.85747  0.32409  0.13009  1.0000
  C   C2525     1.0  0.68925  0.46462  0.31645  1.0000
  C   C2526     1.0  0.76374  0.25386  0.06177  1.0000
  C   C2527     1.0  0.75865  0.26816  0.06831  1.0000
  C   C2528     1.0  0.74713  0.26843  0.08336  1.0000
  C   C2529     1.0  0.74032  0.25456  0.09164  1.0000
  H   H2532     1.0  0.96088  0.28868  0.09336  1.0000
  H   H2533     1.0  0.77278  0.25365  0.05024  1.0000
  H   H2534     1.0  0.76392  0.27889  0.06185  1.0000
  H   H2535     1.0  0.73162  0.25455  0.10339  1.0000
  C   C2530     1.0  0.70340  0.29458  0.07785  1.0000
  C   C2531     1.0  0.72836  0.34403  0.25857  1.0000
  H   H2536     1.0  0.82316  0.33762  0.11309  1.0000
  H   H2537     1.0  0.82407  0.34824  0.19852  1.0000
  H   H2538     1.0  0.67362  0.44903  0.25358  1.0000
  C   C2532     1.0  0.73631  0.37283  0.32862  1.0000
  C   C2533     1.0  0.75988  0.28691  0.36007  1.0000
  C   C2534     1.0  0.77174  0.28412  0.34572  1.0000
  H   H2539     1.0  0.77244  0.29388  0.33466  1.0000
  C   C2535     1.0  0.75798  0.36997  0.25921  1.0000
  C   C2536     1.0  0.76095  0.38487  0.24849  1.0000
  C   C2537     1.0  0.77035  0.38490  0.23231  1.0000
  C   C2538     1.0  0.77629  0.37012  0.22664  1.0000
  C   C2539     1.0  0.77305  0.35526  0.23731  1.0000
  C   C2540     1.0  0.76434  0.35512  0.25369  1.0000
  H   H2540     1.0  0.75631  0.39636  0.25275  1.0000
  H   H2541     1.0  0.77287  0.39642  0.22415  1.0000
  H   H2542     1.0  0.77732  0.34383  0.23306  1.0000
  H   H2543     1.0  0.76206  0.34355  0.26193  1.0000
  C   C2541     1.0  0.68797  0.40048  0.34640  1.0000
  C   C2542     1.0  0.69188  0.38371  0.34549  1.0000
  C   C2543     1.0  0.69168  0.37118  0.36013  1.0000
  C   C2544     1.0  0.68761  0.37551  0.37558  1.0000
  C   C2545     1.0  0.68343  0.39224  0.37631  1.0000
  C   C2546     1.0  0.68359  0.40462  0.36185  1.0000
  H   H2544     1.0  0.69515  0.38043  0.33358  1.0000
  H   H2545     1.0  0.69481  0.35826  0.35949  1.0000
  C   C2547     1.0  0.68447  0.36868  0.24386  1.0000
  H   H2546     1.0  0.77297  0.24495  0.26749  1.0000
  H   H2547     1.0  0.65918  0.41321  0.23116  1.0000
  H   H2548     1.0  0.68269  0.32188  0.45575  1.0000
  C   C2548     1.0  0.67812  0.46279  0.30834  1.0000
  C   C2549     1.0  0.66599  0.25332  0.37628  1.0000
  C   C2550     1.0  0.68467  0.38126  0.25137  1.0000
  S   S869      1.0  0.65606  0.38821  0.18679  1.0000
  H   H2549     1.0  0.73144  0.46786  0.30799  1.0000
  H   H2550     1.0  0.66543  0.27439  0.09330  1.0000
  C   C2551     1.0  0.77679  0.25452  0.10301  1.0000
  H   H2551     1.0  0.96692  0.29756  0.07152  1.0000
  C   C2552     1.0  0.69535  0.24999  0.37376  1.0000
  C   C2553     1.0  0.78457  0.27467  0.27076  1.0000
  C   C2554     1.0  0.67452  0.33720  0.12311  1.0000
  N   N210      1.0  0.98694  0.28496  0.08330  1.0000
  S   S870      1.0  0.81640  0.26250  0.27517  1.0000
  H   H2552     1.0  0.81964  0.27525  0.24044  1.0000
  H   H2553     1.0  0.77820  0.25400  0.24561  1.0000
  H   H2554     1.0  0.68392  0.33237  0.11331  1.0000
  H   H2555     1.0  0.84495  0.26766  0.14242  1.0000
  H   H2556     1.0  0.92885  0.23648  0.15827  1.0000
  C   C2555     1.0  0.83605  0.30587  0.11777  1.0000
  C   C2556     1.0  0.67575  0.27111  0.38741  1.0000
  C   C2557     1.0  0.69210  0.26281  0.38223  1.0000
  C   C2558     1.0  0.73087  0.38576  0.33711  1.0000
  S   S871      1.0  0.67457  0.41341  0.25633  1.0000
  H   H2557     1.0  0.69145  0.35620  0.24743  1.0000
  C   C2559     1.0  0.73222  0.33244  0.24873  1.0000
  C   C2560     1.0  0.67613  0.28003  0.08881  1.0000
  C   C2561     1.0  0.72849  0.46227  0.28617  1.0000
  H   H2558     1.0  0.68576  0.42195  0.15381  1.0000
  N   N211      1.0  0.82764  0.33586  0.22258  1.0000
  C   C2562     1.0  0.88080  0.23708  0.05150  1.0000
  H   H2559     1.0  0.72708  0.44976  0.29220  1.0000
  H   H2560     1.0  0.68565  0.47130  0.25558  1.0000
  C   C2563     1.0  0.73077  0.32323  0.46221  1.0000
  C   C2564     1.0  0.66172  0.42021  0.15212  1.0000
  C   C2565     1.0  0.72653  0.31584  0.45165  1.0000
  C   C2566     1.0  0.72236  0.30029  0.45765  1.0000
  C   C2567     1.0  0.72821  0.46812  0.26938  1.0000
  H   H2561     1.0  0.73464  0.31924  0.25416  1.0000
  H   H2562     1.0  0.73398  0.33525  0.45751  1.0000
  H   H2563     1.0  0.72652  0.32214  0.43892  1.0000
  C   C2568     1.0  0.69706  0.25379  0.43149  1.0000
  H   H2564     1.0  0.66252  0.30292  0.09637  1.0000
  N   N212      1.0  0.69119  0.27129  0.08199  1.0000
  Fe  Fe441     1.0  0.90170  0.23686  0.12704  1.0000
  C   C2569     1.0  0.67277  0.42797  0.15485  1.0000
  C   C2570     1.0  0.75706  0.23993  0.07014  1.0000
  C   C2571     1.0  0.67003  0.26923  0.45231  1.0000
  C   C2572     1.0  0.66558  0.38817  0.22777  1.0000
  C   C2573     1.0  0.73726  0.26468  0.34463  1.0000
  C   C2574     1.0  0.68504  0.23533  0.13972  1.0000
  S   S872      1.0  0.67414  0.35654  0.22275  1.0000
  H   H2565     1.0  0.70338  0.24996  0.07162  1.0000
  C   C2575     1.0  0.96996  0.28682  0.08165  1.0000
  C   C2576     1.0  0.69248  0.48031  0.31414  1.0000
  H   H2566     1.0  0.66643  0.31132  0.19688  1.0000
  H   H2567     1.0  0.67519  0.44952  0.16155  1.0000
  H   H2568     1.0  0.87014  0.24200  0.09115  1.0000
  H   H2569     1.0  0.69822  0.45432  0.20239  1.0000
  C   C2577     1.0  0.81180  0.32678  0.24984  1.0000
  C   C2578     1.0  0.68172  0.45492  0.24288  1.0000
  C   C2579     1.0  0.68098  0.25655  0.42919  1.0000
  C   C2580     1.0  0.66208  0.32860  0.13227  1.0000
  C   C2581     1.0  0.86913  0.23960  0.07985  1.0000
  N   N213      1.0  0.78300  0.24091  0.09608  1.0000
  H   H2570     1.0  0.68017  0.39567  0.38817  1.0000
  H   H2571     1.0  0.70800  0.24374  0.36957  1.0000
  H   H2572     1.0  0.68193  0.30102  0.46718  1.0000
  H   H2573     1.0  0.80760  0.24525  0.24741  1.0000
  H   H2574     1.0  0.82124  0.28136  0.16186  1.0000
  C   C2582     1.0  0.83623  0.31989  0.22238  1.0000
  H   H2575     1.0  0.77687  0.28019  0.10059  1.0000
  C   C2583     1.0  0.72167  0.25374  0.33239  1.0000
  N   N214      1.0  0.82326  0.31338  0.12864  1.0000
  H   H2576     1.0  0.73699  0.34009  0.36078  1.0000
  H   H2577     1.0  0.75031  0.27650  0.38561  1.0000
  H   H2578     1.0  0.68045  0.41751  0.36267  1.0000
  H   H2579     1.0  0.72088  0.38698  0.21521  1.0000
  H   H2580     1.0  0.81768  0.30050  0.26031  1.0000
  C   C2584     1.0  0.80149  0.27230  0.26336  1.0000
  H   H2581     1.0  0.70753  0.24796  0.42311  1.0000
  H   H2582     1.0  0.83950  0.29431  0.23568  1.0000
  C   C2585     1.0  0.73334  0.33788  0.23173  1.0000
  H   H2583     1.0  0.74684  0.34773  0.31457  1.0000
  H   H2584     1.0  0.73652  0.32891  0.22399  1.0000
  H   H2585     1.0  0.69651  0.26693  0.33271  1.0000
  H   H2586     1.0  0.72776  0.33999  0.27176  1.0000
  C   C2586     1.0  0.75918  0.27431  0.37439  1.0000
  Fe  Fe442     1.0  0.93177  0.25104  0.10726  1.0000
  H   H2587     1.0  0.68699  0.31586  0.08667  1.0000
  C   C2587     1.0  0.67549  0.39736  0.24684  1.0000
  H   H2588     1.0  0.84402  0.34765  0.20210  1.0000
  S   S873      1.0  0.95973  0.24674  0.10407  1.0000
  C   C2588     1.0  0.81507  0.33077  0.12361  1.0000
  C   C2589     1.0  0.73079  0.35488  0.22474  1.0000
  S   S874      1.0  0.66281  0.30915  0.12910  1.0000
  C   C2590     1.0  0.96987  0.25440  0.11478  1.0000
  H   H2589     1.0  0.69156  0.37846  0.26091  1.0000
  S   S875      1.0  0.66153  0.46698  0.19936  1.0000
  N   N215      1.0  0.69865  0.47508  0.23035  1.0000
  H   H2590     1.0  0.73205  0.35898  0.21147  1.0000
  C   C2591     1.0  0.73548  0.35290  0.35403  1.0000
  C   C2592     1.0  0.74402  0.34312  0.32823  1.0000
  H   H2591     1.0  0.85438  0.28357  0.11402  1.0000
  H   H2592     1.0  0.70541  0.34408  0.14412  1.0000
  H   H2593     1.0  0.79891  0.28120  0.07475  1.0000
  C   C2593     1.0  0.83854  0.28035  0.13842  1.0000
  H   H2594     1.0  0.66705  0.31190  0.17581  1.0000
  C   C2594     1.0  0.78249  0.26858  0.34550  1.0000
  H   H2595     1.0  0.69430  0.29543  0.35855  1.0000
  H   H2596     1.0  0.69451  0.30213  0.33666  1.0000
  C   C2595     1.0  0.69443  0.29136  0.34731  1.0000
  H   H2597     1.0  0.80830  0.35195  0.23597  1.0000
  C   C2596     1.0  0.79462  0.26982  0.08088  1.0000
  C   C2597     1.0  0.69953  0.25889  0.44449  1.0000
  N   N216      1.0  0.68568  0.32192  0.17928  1.0000
  C   C2598     1.0  0.69129  0.32608  0.19066  1.0000
  C   C2599     1.0  0.69072  0.32821  0.16275  1.0000
  C   C2600     1.0  0.70198  0.33708  0.18559  1.0000
  C   C2601     1.0  0.70146  0.33916  0.15724  1.0000
  C   C2602     1.0  0.70716  0.34356  0.16875  1.0000
  C   C2603     1.0  0.67492  0.30996  0.18477  1.0000
  C   C2604     1.0  0.77615  0.24243  0.25486  1.0000
  H   H2598     1.0  0.68654  0.32464  0.15374  1.0000
  H   H2599     1.0  0.65582  0.24993  0.37393  1.0000
  C   C2605     1.0  0.69576  0.45772  0.21419  1.0000
  S   S876      1.0  0.90144  0.24372  0.06710  1.0000
  C   C2606     1.0  0.69310  0.25384  0.08183  1.0000
  S   S877      1.0  0.81684  0.23483  0.98663  1.0000
  C   C2607     1.0  0.70228  0.47036  0.21561  1.0000
  H   H2600     1.0  0.80193  0.32958  0.26033  1.0000
  C   C2608     1.0  0.78139  0.25578  0.35962  1.0000
  H   H2601     1.0  0.79166  0.26652  0.33439  1.0000
  H   H2602     1.0  0.84535  0.31695  0.21145  1.0000
  H   H2603     1.0  0.72854  0.39858  0.33042  1.0000
  H   H2604     1.0  0.80735  0.31050  0.15256  1.0000
  C   C2609     1.0  0.79517  0.24133  0.08195  1.0000
  H   H2605     1.0  0.81189  0.33722  0.13401  1.0000
  C   C2610     1.0  0.72770  0.38203  0.35437  1.0000
  S   S878      1.0  0.80554  0.23730  0.03490  1.0000
  C   C2611     1.0  0.73000  0.36551  0.36291  1.0000
  C   C2612     1.0  0.98736  0.26807  0.12926  1.0000
  H   H2606     1.0  0.72282  0.39192  0.36113  1.0000
  N   N217      1.0  0.70892  0.27804  0.34372  1.0000
  H   H2607     1.0  0.82573  0.36152  0.21055  1.0000
  S   S879      1.0  0.91287  0.25621  0.13019  1.0000
  H   H2608     1.0  0.68747  0.32096  0.20375  1.0000
  C   C2613     1.0  0.72583  0.36094  0.25118  1.0000
  Fe  Fe443     1.0  0.80614  0.24406  0.29679  1.0000
  H   H2609     1.0  0.71676  0.27137  0.07137  1.0000
  C   C2614     1.0  0.98724  0.24978  0.11222  1.0000
  S   S880      1.0  0.67100  0.28788  0.39715  1.0000
  C   C2615     1.0  0.84381  0.28924  0.12247  1.0000
  H   H2610     1.0  0.71429  0.29995  0.07391  1.0000
  H   H2611     1.0  0.73745  0.38737  0.22424  1.0000
  C   C2616     1.0  0.70473  0.27837  0.07649  1.0000
  C   C2617     1.0  0.82532  0.28803  0.14933  1.0000
  H   H2612     1.0  0.81072  0.25602  0.06283  1.0000
  H   H2613     1.0  0.84068  0.31281  0.10555  1.0000
  N   N218      1.0  0.66773  0.26430  0.43946  1.0000
  C   C2618     1.0  0.82059  0.31048  0.24981  1.0000
  C   C2619     1.0  0.66613  0.40077  0.23488  1.0000
  H   H2614     1.0  0.70624  0.34043  0.19470  1.0000
  C   C2620     1.0  0.72529  0.38388  0.22688  1.0000
  H   H2615     1.0  0.89093  0.23771  0.04075  1.0000
  C   C2621     1.0  0.66326  0.25385  0.12645  1.0000
  C   C2622     1.0  0.68812  0.30349  0.08500  1.0000
  H   H2616     1.0  0.75540  0.33456  0.33178  1.0000
  S   S881      1.0  0.70074  0.23293  0.14998  1.0000
  C   C2623     1.0  0.80114  0.25577  0.07412  1.0000
  C   C2624     1.0  0.85476  0.23522  0.07919  1.0000
  C   C2625     1.0  0.78240  0.26921  0.09545  1.0000
  H   H2617     1.0  0.72322  0.36986  0.25885  1.0000
  H   H2618     1.0  0.68463  0.35855  0.11977  1.0000
  C   C2626     1.0  0.81765  0.30459  0.14410  1.0000
  C   C2627     1.0  0.81551  0.33939  0.23604  1.0000
  S   S882      1.0  0.88465  0.25451  0.11145  1.0000
  Fe  Fe444     1.0  0.90536  0.24919  0.08998  1.0000
  C   C2628     1.0  0.83289  0.30699  0.23601  1.0000
  C   C2629     1.0  0.67490  0.35201  0.12673  1.0000
  H   H2619     1.0  0.71602  0.39151  0.23522  1.0000
  C   C2630     1.0  0.83056  0.34895  0.20773  1.0000
  H   H2620     1.0  0.66202  0.47526  0.29131  1.0000
  H   H2621     1.0  0.69544  0.45388  0.32433  1.0000
  C   C2631     1.0  0.67481  0.37213  0.23208  1.0000
  N   N219      1.0  0.72701  0.36616  0.23448  1.0000
  H   H2622     1.0  0.68159  0.25159  0.08011  1.0000
  S   S883      1.0  0.78238  0.24921  0.31540  1.0000
  H   H2623     1.0  0.66640  0.40817  0.14883  1.0000
  H   H2624     1.0  0.71196  0.25715  0.44628  1.0000
  C   C2632     1.0  0.73634  0.25278  0.33688  1.0000
  C   C2633     1.0  0.68595  0.26654  0.45505  1.0000
  C   C2634     1.0  0.74505  0.24045  0.08486  1.0000
  H   H2625     1.0  0.71569  0.35185  0.16462  1.0000
  H   H2626     1.0  0.67550  0.45067  0.31013  1.0000
  H   H2627     1.0  0.67991  0.44047  0.22686  1.0000
  C   C2635     1.0  0.73093  0.47255  0.29510  1.0000
  C   C2636     1.0  0.66688  0.44344  0.15907  1.0000
  S   S884      1.0  0.66479  0.37526  0.14566  1.0000
  H   H2628     1.0  0.67914  0.25256  0.41908  1.0000
  H   H2629     1.0  0.84475  0.23439  0.09003  1.0000
  H   H2630     1.0  0.97976  0.30196  0.09931  1.0000
  H   H2631     1.0  0.76699  0.25432  0.11411  1.0000
  C   C2637     1.0  0.67050  0.47655  0.29791  1.0000
  H   H2632     1.0  0.72082  0.24445  0.32647  1.0000
  H   H2633     1.0  0.96832  0.27547  0.07901  1.0000
  H   H2634     1.0  0.74697  0.24280  0.33441  1.0000
  S   S885      1.0  0.79349  0.23583  0.35877  1.0000
  H   H2635     1.0  0.66308  0.31585  0.46365  1.0000
  C   C2638     1.0  0.66316  0.24145  0.11891  1.0000
  H   H2636     1.0  0.83012  0.23490  0.34680  1.0000
  H   H2637     1.0  0.69570  0.24589  0.09380  1.0000
  C   C2639     1.0  0.66273  0.26604  0.38478  1.0000
  H   H2638     1.0  0.65955  0.27531  0.46051  1.0000
  C   C2640     1.0  0.68852  0.46754  0.24390  1.0000
  H   H2639     1.0  0.65794  0.39078  0.21897  1.0000
  C   C2641     1.0  0.86643  0.23258  0.05086  1.0000
  C   C2642     1.0  0.80633  0.23259  0.24958  1.0000
  H   H2640     1.0  0.87765  0.23188  0.19850  1.0000
  C   C2643     1.0  0.85343  0.23143  0.06481  1.0000
  H   H2641     1.0  0.78247  0.25606  0.86688  1.0000
  C   C2644     1.0  0.77892  0.46408  0.60998  1.0000
  Fe  Fe445     1.0  0.72426  0.32060  0.55357  1.0000
  S   S886      1.0  0.71707  0.33999  0.56893  1.0000
  Fe  Fe446     1.0  0.70979  0.29451  0.54785  1.0000
  S   S887      1.0  0.68767  0.28291  0.55613  1.0000
  Fe  Fe447     1.0  0.74623  0.28787  0.54745  1.0000
  S   S888      1.0  0.76581  0.26701  0.55706  1.0000
  S   S889      1.0  0.72340  0.29436  0.56652  1.0000
  Fe  Fe448     1.0  0.76252  0.41261  0.61663  1.0000
  S   S890      1.0  0.74144  0.41084  0.63881  1.0000
  Fe  Fe449     1.0  0.76009  0.38071  0.60818  1.0000
  S   S891      1.0  0.73894  0.37660  0.62970  1.0000
  S   S892      1.0  0.77032  0.36205  0.59176  1.0000
  Fe  Fe450     1.0  0.72926  0.40394  0.62252  1.0000
  S   S893      1.0  0.70370  0.41533  0.61821  1.0000
  Fe  Fe451     1.0  0.75333  0.38362  0.64380  1.0000
  S   S894      1.0  0.75586  0.36732  0.66873  1.0000
  S   S895      1.0  0.74938  0.40768  0.59983  1.0000
  S   S896      1.0  0.77551  0.38577  0.62278  1.0000
  C   C2645     1.0  0.80735  0.41074  0.62653  1.0000
  C   C2646     1.0  0.91409  0.25969  0.70886  1.0000
  H   H2642     1.0  0.82963  0.24348  0.65970  1.0000
  S   S897      1.0  0.91615  0.26970  0.77195  1.0000
  S   S898      1.0  0.75766  0.23817  0.88775  1.0000
  C   C2647     1.0  0.66193  0.38691  0.79356  1.0000
  H   H2643     1.0  0.78220  0.46707  0.59660  1.0000
  H   H2644     1.0  0.86800  0.25724  0.79793  1.0000
  H   H2645     1.0  0.69115  0.41797  0.74523  1.0000
  C   C2648     1.0  0.70698  0.24262  0.55557  1.0000
  S   S899      1.0  0.74822  0.31425  0.53551  1.0000
  H   H2646     1.0  0.96792  0.23633  0.76635  1.0000
  Fe  Fe452     1.0  0.74030  0.28213  0.77168  1.0000
  S   S900      1.0  0.73717  0.30461  0.78150  1.0000
  S   S901      1.0  0.75433  0.28149  0.74568  1.0000
  Fe  Fe453     1.0  0.72023  0.26497  0.80311  1.0000
  S   S902      1.0  0.71494  0.28596  0.81575  1.0000
  Fe  Fe454     1.0  0.71075  0.30214  0.79127  1.0000
  Fe  Fe455     1.0  0.74185  0.28629  0.80488  1.0000
  S   S903      1.0  0.76053  0.28749  0.81808  1.0000
  S   S904      1.0  0.71355  0.28097  0.77958  1.0000
  S   S905      1.0  0.74737  0.26390  0.79414  1.0000
  Fe  Fe456     1.0  0.85590  0.29632  0.68417  1.0000
  S   S906      1.0  0.86550  0.31954  0.67745  1.0000
  S   S907      1.0  0.86156  0.27903  0.66712  1.0000
  Fe  Fe457     1.0  0.83875  0.30071  0.71866  1.0000
  S   S908      1.0  0.84654  0.32455  0.71516  1.0000
  S   S909      1.0  0.82604  0.28836  0.74368  1.0000
  Fe  Fe458     1.0  0.84010  0.33085  0.69032  1.0000
  S   S910      1.0  0.82856  0.35653  0.67803  1.0000
  Fe  Fe459     1.0  0.87113  0.31136  0.70270  1.0000
  S   S911      1.0  0.89482  0.31435  0.70650  1.0000
  S   S912      1.0  0.82990  0.30825  0.69488  1.0000
  S   S913      1.0  0.86394  0.28695  0.70817  1.0000
  C   C2649     1.0  0.66056  0.43409  0.64629  1.0000
  H   H2647     1.0  0.92719  0.27754  0.70938  1.0000
  C   C2650     1.0  0.67270  0.42885  0.63309  1.0000
  H   H2648     1.0  0.73666  0.26439  0.73255  1.0000
  S   S914      1.0  0.77940  0.28134  0.61969  1.0000
  H   H2649     1.0  0.69412  0.45283  0.61632  1.0000
  S   S915      1.0  0.70833  0.32147  0.53646  1.0000
  H   H2650     1.0  0.91654  0.25167  0.72047  1.0000
  C   C2651     1.0  0.77954  0.47533  0.61886  1.0000
  C   C2652     1.0  0.90123  0.26650  0.68554  1.0000
  C   C2653     1.0  0.68433  0.42310  0.75638  1.0000
  H   H2651     1.0  0.71965  0.36117  0.74841  1.0000
  C   C2654     1.0  0.84603  0.26762  0.67347  1.0000
  C   C2655     1.0  0.83554  0.26731  0.68912  1.0000
  C   C2656     1.0  0.82287  0.25851  0.69415  1.0000
  C   C2657     1.0  0.82061  0.25005  0.68350  1.0000
  H   H2652     1.0  0.76056  0.27400  0.71369  1.0000
  C   C2658     1.0  0.84392  0.25898  0.66286  1.0000
  H   H2653     1.0  0.83743  0.27347  0.69759  1.0000
  H   H2654     1.0  0.81490  0.25818  0.70636  1.0000
  H   H2655     1.0  0.78886  0.25182  0.60643  1.0000
  H   H2656     1.0  0.85208  0.25913  0.65076  1.0000
  C   C2659     1.0  0.70611  0.34346  0.76569  1.0000
  C   C2660     1.0  0.77448  0.28296  0.74482  1.0000
  C   C2661     1.0  0.78610  0.28464  0.72978  1.0000
  C   C2662     1.0  0.80209  0.28607  0.72934  1.0000
  C   C2663     1.0  0.80641  0.28594  0.74390  1.0000
  C   C2664     1.0  0.79483  0.28402  0.75890  1.0000
  C   C2665     1.0  0.77888  0.28272  0.75933  1.0000
  H   H2657     1.0  0.78279  0.28499  0.71846  1.0000
  H   H2658     1.0  0.81110  0.28705  0.71780  1.0000
  H   H2659     1.0  0.79803  0.28380  0.77021  1.0000
  H   H2660     1.0  0.77001  0.28164  0.77096  1.0000
  H   H2661     1.0  0.81495  0.46150  0.64596  1.0000
  C   C2666     1.0  0.77084  0.45638  0.64444  1.0000
  H   H2662     1.0  0.81447  0.29435  0.78126  1.0000
  H   H2663     1.0  0.86902  0.24390  0.70650  1.0000
  H   H2664     1.0  0.67014  0.43235  0.62084  1.0000
  H   H2665     1.0  0.74123  0.45442  0.62183  1.0000
  C   C2667     1.0  0.65960  0.31917  0.51020  1.0000
  C   C2668     1.0  0.75788  0.25292  0.86907  1.0000
  C   C2669     1.0  0.77196  0.25947  0.86112  1.0000
  C   C2670     1.0  0.77237  0.27066  0.84577  1.0000
  C   C2671     1.0  0.75902  0.27478  0.83802  1.0000
  C   C2672     1.0  0.74496  0.26818  0.84598  1.0000
  C   C2673     1.0  0.74428  0.25746  0.86162  1.0000
  H   H2666     1.0  0.79726  0.28458  0.80896  1.0000
  H   H2667     1.0  0.78309  0.27603  0.83985  1.0000
  H   H2668     1.0  0.73457  0.27135  0.84016  1.0000
  H   H2669     1.0  0.73340  0.25237  0.86773  1.0000
  C   C2674     1.0  0.74869  0.32718  0.73389  1.0000
  H   H2670     1.0  0.68155  0.45644  0.64500  1.0000
  H   H2671     1.0  0.94196  0.28127  0.78107  1.0000
  H   H2672     1.0  0.76798  0.45322  0.65782  1.0000
  H   H2673     1.0  0.71244  0.31415  0.60225  1.0000
  S   S916      1.0  0.65667  0.39682  0.71168  1.0000
  C   C2675     1.0  0.70781  0.35757  0.75296  1.0000
  C   C2676     1.0  0.69415  0.36718  0.74638  1.0000
  H   H2674     1.0  0.72633  0.29338  0.49741  1.0000
  C   C2677     1.0  0.90948  0.28250  0.75429  1.0000
  C   C2678     1.0  0.89797  0.27851  0.74812  1.0000
  C   C2679     1.0  0.89287  0.28868  0.73384  1.0000
  C   C2680     1.0  0.89972  0.30250  0.72534  1.0000
  C   C2681     1.0  0.91135  0.30637  0.73144  1.0000
  C   C2682     1.0  0.91601  0.29655  0.74606  1.0000
  H   H2675     1.0  0.89279  0.26775  0.75451  1.0000
  H   H2676     1.0  0.88389  0.28561  0.72927  1.0000
  H   H2677     1.0  0.91667  0.31704  0.72492  1.0000
  H   H2678     1.0  0.92491  0.29967  0.75079  1.0000
  C   C2683     1.0  0.67923  0.42005  0.66481  1.0000
  S   S917      1.0  0.71069  0.24189  0.81534  1.0000
  H   H2679     1.0  0.72727  0.31825  0.62757  1.0000
  C   C2684     1.0  0.75898  0.36978  0.53973  1.0000
  C   C2685     1.0  0.73592  0.31181  0.61793  1.0000
  C   C2686     1.0  0.69157  0.41504  0.65145  1.0000
  H   H2680     1.0  0.70363  0.40788  0.65338  1.0000
  H   H2681     1.0  0.76937  0.35925  0.54270  1.0000
  H   H2682     1.0  0.72218  0.35267  0.50912  1.0000
  C   C2687     1.0  0.77575  0.36461  0.67195  1.0000
  C   C2688     1.0  0.78536  0.37631  0.66330  1.0000
  C   C2689     1.0  0.80153  0.37374  0.66540  1.0000
  C   C2690     1.0  0.80814  0.35948  0.67610  1.0000
  C   C2691     1.0  0.79845  0.34786  0.68491  1.0000
  C   C2692     1.0  0.78227  0.35040  0.68279  1.0000
  H   H2683     1.0  0.78027  0.38738  0.65512  1.0000
  H   H2684     1.0  0.80904  0.38269  0.65866  1.0000
  H   H2685     1.0  0.80337  0.33701  0.69343  1.0000
  H   H2686     1.0  0.77495  0.34121  0.68930  1.0000
  C   C2693     1.0  0.77042  0.27131  0.57388  1.0000
  C   C2694     1.0  0.76520  0.28730  0.57700  1.0000
  C   C2695     1.0  0.76868  0.29055  0.59065  1.0000
  C   C2696     1.0  0.77679  0.27767  0.60157  1.0000
  C   C2697     1.0  0.78214  0.26172  0.59834  1.0000
  C   C2698     1.0  0.77913  0.25861  0.58441  1.0000
  H   H2687     1.0  0.75867  0.29721  0.56880  1.0000
  H   H2688     1.0  0.76491  0.30299  0.59280  1.0000
  H   H2689     1.0  0.93700  0.25354  0.79643  1.0000
  H   H2690     1.0  0.67463  0.29636  0.81349  1.0000
  C   C2699     1.0  0.73207  0.34527  0.57575  1.0000
  C   C2700     1.0  0.72702  0.35789  0.58465  1.0000
  C   C2701     1.0  0.73865  0.36292  0.58980  1.0000
  C   C2702     1.0  0.75544  0.35530  0.58615  1.0000
  C   C2703     1.0  0.76049  0.34247  0.57747  1.0000
  C   C2704     1.0  0.74884  0.33751  0.57220  1.0000
  H   H2691     1.0  0.71406  0.36396  0.58744  1.0000
  H   H2692     1.0  0.73461  0.37287  0.59640  1.0000
  H   H2693     1.0  0.77347  0.33647  0.57466  1.0000
  H   H2694     1.0  0.75287  0.32778  0.56533  1.0000
  H   H2695     1.0  0.98848  0.26904  0.79581  1.0000
  H   H2696     1.0  0.66827  0.36983  0.74731  1.0000
  C   C2705     1.0  0.66711  0.28889  0.79525  1.0000
  C   C2706     1.0  0.68185  0.27981  0.53944  1.0000
  C   C2707     1.0  0.69063  0.28453  0.52326  1.0000
  C   C2708     1.0  0.68546  0.28265  0.50995  1.0000
  C   C2709     1.0  0.72870  0.26920  0.62418  1.0000
  H   H2697     1.0  0.65562  0.42844  0.77835  1.0000
  H   H2698     1.0  0.70115  0.29003  0.52093  1.0000
  C   C2710     1.0  0.96550  0.27706  0.78768  1.0000
  C   C2711     1.0  0.77433  0.44893  0.61827  1.0000
  N   N220      1.0  0.66592  0.26017  0.80101  1.0000
  S   S918      1.0  0.77115  0.25777  0.66538  1.0000
  S   S919      1.0  0.73261  0.28563  0.52971  1.0000
  H   H2699     1.0  0.69664  0.39060  0.76353  1.0000
  C   C2712     1.0  0.73383  0.24714  0.55424  1.0000
  N   N221      1.0  0.75536  0.25036  0.71658  1.0000
  H   H2700     1.0  0.75273  0.34741  0.49947  1.0000
  C   C2713     1.0  0.72269  0.24486  0.54640  1.0000
  H   H2701     1.0  0.77554  0.26107  0.70106  1.0000
  H   H2702     1.0  0.69638  0.33080  0.50134  1.0000
  H   H2703     1.0  0.91354  0.28889  0.65367  1.0000
  C   C2714     1.0  0.71701  0.30153  0.60854  1.0000
  Fe  Fe460     1.0  0.73221  0.31270  0.51936  1.0000
  H   H2704     1.0  0.71659  0.33635  0.77100  1.0000
  H   H2705     1.0  0.73736  0.32091  0.60592  1.0000
  C   C2715     1.0  0.73312  0.32522  0.73388  1.0000
  N   N222      1.0  0.72948  0.29814  0.61677  1.0000
  S   S920      1.0  0.68792  0.32228  0.78879  1.0000
  H   H2706     1.0  0.66511  0.34535  0.77022  1.0000
  C   C2716     1.0  0.70185  0.45407  0.62377  1.0000
  H   H2707     1.0  0.76345  0.24426  0.82536  1.0000
  H   H2708     1.0  0.73754  0.24953  0.57712  1.0000
  H   H2709     1.0  0.92094  0.29608  0.68334  1.0000
  N   N223      1.0  0.97435  0.25023  0.80442  1.0000
  H   H2710     1.0  0.77504  0.23606  0.84119  1.0000
  H   H2711     1.0  0.97691  0.23620  0.73555  1.0000
  H   H2712     1.0  0.72589  0.37355  0.54745  1.0000
  N   N224      1.0  0.71847  0.45308  0.61758  1.0000
  H   H2713     1.0  0.76964  0.35529  0.51401  1.0000
  C   C2717     1.0  0.72909  0.24735  0.57103  1.0000
  H   H2714     1.0  0.74834  0.30732  0.62104  1.0000
  H   H2715     1.0  0.78351  0.24636  0.58183  1.0000
  C   C2718     1.0  0.81604  0.45162  0.62516  1.0000
  C   C2719     1.0  0.76713  0.26095  0.71345  1.0000
  C   C2720     1.0  0.74007  0.25387  0.72671  1.0000
  C   C2721     1.0  0.72574  0.45093  0.60058  1.0000
  H   H2716     1.0  0.81863  0.46271  0.61608  1.0000
  N   N225      1.0  0.70255  0.24249  0.57211  1.0000
  H   H2717     1.0  0.77228  0.23355  0.70231  1.0000
  H   H2718     1.0  0.90201  0.30518  0.66466  1.0000
  N   N226      1.0  0.67663  0.41067  0.76933  1.0000
  N   N227      1.0  0.67379  0.31889  0.48196  1.0000
  C   C2722     1.0  0.80816  0.42367  0.64819  1.0000
  C   C2723     1.0  0.68467  0.39435  0.77144  1.0000
  H   H2719     1.0  0.96786  0.28915  0.78091  1.0000
  H   H2720     1.0  0.72848  0.31455  0.74194  1.0000
  C   C2724     1.0  0.75626  0.35781  0.51816  1.0000
  C   C2725     1.0  0.72961  0.35633  0.51528  1.0000
  N   N228      1.0  0.74877  0.36501  0.53146  1.0000
  C   C2726     1.0  0.72147  0.45667  0.64322  1.0000
  S   S921      1.0  0.69612  0.38546  0.73136  1.0000
  H   H2721     1.0  0.69300  0.42721  0.76105  1.0000
  H   H2722     1.0  0.68508  0.23679  0.59485  1.0000
  C   C2727     1.0  0.72208  0.36367  0.52884  1.0000
  H   H2723     1.0  0.73343  0.25660  0.63032  1.0000
  H   H2724     1.0  0.68177  0.41677  0.67705  1.0000
  N   N229      1.0  0.80335  0.30944  0.64783  1.0000
  C   C2728     1.0  0.79917  0.32513  0.65071  1.0000
  C   C2729     1.0  0.79754  0.30605  0.63611  1.0000
  C   C2730     1.0  0.78844  0.33776  0.64214  1.0000
  C   C2731     1.0  0.78686  0.31843  0.62727  1.0000
  C   C2732     1.0  0.78220  0.33433  0.63043  1.0000
  C   C2733     1.0  0.81482  0.29642  0.65672  1.0000
  H   H2725     1.0  0.80411  0.32798  0.65967  1.0000
  H   H2726     1.0  0.80112  0.29371  0.63352  1.0000
  H   H2727     1.0  0.78500  0.35014  0.64452  1.0000
  H   H2728     1.0  0.78228  0.31571  0.61797  1.0000
  H   H2729     1.0  0.77385  0.34403  0.62374  1.0000
  H   H2730     1.0  0.82781  0.29620  0.64963  1.0000
  H   H2731     1.0  0.81381  0.29844  0.66919  1.0000
  H   H2732     1.0  0.81208  0.28403  0.65859  1.0000
  C   C2734     1.0  0.98650  0.23835  0.81335  1.0000
  S   S922      1.0  0.66404  0.27577  0.49586  1.0000
  H   H2733     1.0  0.86524  0.25636  0.77821  1.0000
  C   C2735     1.0  0.66812  0.27284  0.54231  1.0000
  C   C2736     1.0  0.67401  0.27041  0.82022  1.0000
  C   C2737     1.0  0.83110  0.25030  0.66784  1.0000
  C   C2738     1.0  0.68828  0.41957  0.63557  1.0000
  H   H2734     1.0  0.66178  0.23553  0.80633  1.0000
  C   C2739     1.0  0.66045  0.31641  0.49469  1.0000
  H   H2735     1.0  0.75623  0.31797  0.74184  1.0000
  Fe  Fe461     1.0  0.91940  0.24319  0.77125  1.0000
  H   H2736     1.0  0.71944  0.28015  0.47884  1.0000
  H   H2737     1.0  0.74501  0.27951  0.63134  1.0000
  C   C2740     1.0  0.92019  0.27414  0.70258  1.0000
  H   H2738     1.0  0.71062  0.26257  0.61560  1.0000
  N   N230      1.0  0.72933  0.35072  0.71355  1.0000
  C   C2741     1.0  0.72357  0.33714  0.72351  1.0000
  C   C2742     1.0  0.74464  0.35267  0.71339  1.0000
  C   C2743     1.0  0.70837  0.24434  0.66296  1.0000
  C   C2744     1.0  0.75453  0.34097  0.72357  1.0000
  C   C2745     1.0  0.67708  0.34867  0.76537  1.0000
  C   C2746     1.0  0.71950  0.36278  0.70228  1.0000
  H   H2739     1.0  0.71140  0.33562  0.72370  1.0000
  H   H2740     1.0  0.74932  0.36329  0.70524  1.0000
  S   S923      1.0  0.73490  0.32521  0.49217  1.0000
  H   H2741     1.0  0.70601  0.36326  0.70716  1.0000
  H   H2742     1.0  0.72128  0.37550  0.70076  1.0000
  H   H2743     1.0  0.72335  0.35956  0.68993  1.0000
  Fe  Fe462     1.0  0.67118  0.40103  0.72759  1.0000
  C   C2747     1.0  0.81012  0.27826  0.80547  1.0000
  H   H2744     1.0  0.68369  0.36925  0.78491  1.0000
  H   H2745     1.0  0.80496  0.41284  0.65730  1.0000
  H   H2746     1.0  0.81498  0.43916  0.60717  1.0000
  H   H2747     1.0  0.76670  0.34254  0.72335  1.0000
  C   C2748     1.0  0.81394  0.43825  0.62021  1.0000
  C   C2749     1.0  0.90337  0.29203  0.66424  1.0000
  H   H2748     1.0  0.80996  0.26037  0.82870  1.0000
  C   C2750     1.0  0.69070  0.33908  0.77202  1.0000
  H   H2749     1.0  0.66588  0.30114  0.78715  1.0000
  C   C2751     1.0  0.67255  0.32443  0.51266  1.0000
  C   C2752     1.0  0.70065  0.24273  0.65133  1.0000
  C   C2753     1.0  0.81717  0.26467  0.81649  1.0000
  H   H2750     1.0  0.81743  0.24312  0.95175  1.0000
  C   C2754     1.0  0.70997  0.28882  0.60808  1.0000
  C   C2755     1.0  0.72648  0.29970  0.48472  1.0000
  C   C2756     1.0  0.66177  0.41546  0.77963  1.0000
  H   H2751     1.0  0.86162  0.23972  0.79572  1.0000
  C   C2757     1.0  0.67883  0.36260  0.75245  1.0000
  H   H2752     1.0  0.70223  0.25321  0.67072  1.0000
  C   C2758     1.0  0.71594  0.27255  0.61589  1.0000
  S   S924      1.0  0.77480  0.43473  0.60660  1.0000
  H   H2753     1.0  0.67484  0.43412  0.75227  1.0000
  Fe  Fe463     1.0  0.78197  0.25739  0.63865  1.0000
  H   H2754     1.0  0.68848  0.25026  0.65020  1.0000
  H   H2755     1.0  0.76406  0.38056  0.53167  1.0000
  H   H2756     1.0  0.75176  0.37319  0.55166  1.0000
  C   C2759     1.0  0.77002  0.44522  0.63556  1.0000
  C   C2760     1.0  0.90470  0.25570  0.70023  1.0000
  C   C2761     1.0  0.68602  0.32709  0.49956  1.0000
  H   H2757     1.0  0.80789  0.41353  0.61302  1.0000
  H   H2758     1.0  0.76648  0.43359  0.64208  1.0000
  H   H2759     1.0  0.98852  0.24055  0.71440  1.0000
  C   C2762     1.0  0.72865  0.24394  0.72968  1.0000
  S   S925      1.0  0.66822  0.42844  0.71721  1.0000
  N   N231      1.0  0.80994  0.42456  0.63171  1.0000
  C   C2763     1.0  0.73189  0.36810  0.53674  1.0000
  N   N232      1.0  0.84291  0.26188  0.79634  1.0000
  C   C2764     1.0  0.83370  0.25665  0.81173  1.0000
  C   C2765     1.0  0.83616  0.27531  0.78551  1.0000
  H   H2760     1.0  0.70876  0.36553  0.53353  1.0000
  C   C2766     1.0  0.81972  0.28372  0.78994  1.0000
  C   C2767     1.0  0.67149  0.27608  0.51276  1.0000
  C   C2768     1.0  0.86029  0.25341  0.79180  1.0000
  H   H2761     1.0  0.95793  0.23365  0.81117  1.0000
  H   H2762     1.0  0.84341  0.27962  0.77331  1.0000
  H   H2763     1.0  0.86735  0.24148  0.83367  1.0000
  H   H2764     1.0  0.89152  0.29109  0.66209  1.0000
  H   H2765     1.0  0.90011  0.24435  0.70499  1.0000
  H   H2766     1.0  0.77468  0.25640  0.72302  1.0000
  C   C2769     1.0  0.74680  0.35340  0.50985  1.0000
  H   H2767     1.0  0.69208  0.28660  0.49745  1.0000
  C   C2770     1.0  0.73524  0.28224  0.62466  1.0000
  H   H2768     1.0  0.70004  0.29157  0.60158  1.0000
  C   C2771     1.0  0.67743  0.38223  0.78352  1.0000
  H   H2769     1.0  0.89374  0.26346  0.67897  1.0000
  C   C2772     1.0  0.68638  0.32431  0.48420  1.0000
  H   H2770     1.0  0.73937  0.44591  0.59866  1.0000
  H   H2771     1.0  0.74600  0.24909  0.54724  1.0000
  C   C2773     1.0  0.91656  0.28460  0.68785  1.0000
  H   H2772     1.0  0.67292  0.24508  0.82326  1.0000
  C   C2774     1.0  0.84780  0.23533  0.72314  1.0000
  N   N233      1.0  0.90692  0.28089  0.67971  1.0000
  C   C2775     1.0  0.68582  0.24064  0.58129  1.0000
  C   C2776     1.0  0.95102  0.27265  0.78774  1.0000
  C   C2777     1.0  0.70460  0.45720  0.64980  1.0000
  C   C2778     1.0  0.77578  0.47139  0.63615  1.0000
  H   H2773     1.0  0.66300  0.46225  0.72438  1.0000
  H   H2774     1.0  0.79485  0.40830  0.63286  1.0000
  H   H2775     1.0  0.81693  0.39939  0.62957  1.0000
  S   S926      1.0  0.80578  0.23991  0.64319  1.0000
  H   H2776     1.0  0.67842  0.26806  0.83147  1.0000
  C   C2779     1.0  0.67088  0.25743  0.81548  1.0000
  C   C2780     1.0  0.94824  0.25701  0.79636  1.0000
  C   C2781     1.0  0.66342  0.24632  0.79580  1.0000
  S   S927      1.0  0.73399  0.23709  0.67842  1.0000
  C   C2782     1.0  0.66381  0.42980  0.66211  1.0000
  H   H2777     1.0  0.67238  0.32593  0.52481  1.0000
  H   H2778     1.0  0.72612  0.24491  0.53330  1.0000
  H   H2779     1.0  0.65604  0.37756  0.80273  1.0000
  C   C2783     1.0  0.69467  0.45610  0.63998  1.0000
  C   C2784     1.0  0.86002  0.23645  0.70859  1.0000
  C   C2785     1.0  0.67205  0.28623  0.81005  1.0000
  C   C2786     1.0  0.72418  0.23475  0.66425  1.0000
  Fe  Fe464     1.0  0.76059  0.23658  0.66580  1.0000
  H   H2780     1.0  0.80831  0.43630  0.66665  1.0000
  H   H2781     1.0  0.69919  0.45842  0.66250  1.0000
  H   H2782     1.0  0.72036  0.44190  0.59775  1.0000
  C   C2787     1.0  0.96008  0.24588  0.80471  1.0000
  H   H2783     1.0  0.73298  0.24198  0.78336  1.0000
  H   H2784     1.0  0.98626  0.25488  0.76448  1.0000
  C   C2788     1.0  0.97707  0.26566  0.79622  1.0000
  S   S928      1.0  0.94015  0.23330  0.75178  1.0000
  H   H2785     1.0  0.67478  0.23789  0.70311  1.0000
  H   H2786     1.0  0.69829  0.24109  0.54937  1.0000
  C   C2789     1.0  0.81010  0.43685  0.65356  1.0000
  S   S929      1.0  0.80517  0.23853  0.69039  1.0000
  C   C2790     1.0  0.73064  0.31523  0.47884  1.0000
  H   H2787     1.0  0.83907  0.24619  0.82046  1.0000
  C   C2791     1.0  0.81399  0.45093  0.64194  1.0000
  C   C2792     1.0  0.71328  0.24504  0.57982  1.0000
  C   C2793     1.0  0.72818  0.45475  0.62692  1.0000
  Fe  Fe465     1.0  0.79375  0.23826  0.67006  1.0000
  H   H2788     1.0  0.84728  0.24189  0.73246  1.0000
  C   C2794     1.0  0.76884  0.23256  0.83332  1.0000
  H   H2789     1.0  0.67434  0.24220  0.78626  1.0000
  C   C2795     1.0  0.72464  0.23396  0.78511  1.0000
  H   H2790     1.0  0.71652  0.24667  0.73770  1.0000
  H   H2791     1.0  0.98226  0.23802  0.82681  1.0000
  H   H2792     1.0  0.72934  0.45762  0.65067  1.0000
  C   C2796     1.0  0.66054  0.46998  0.73314  1.0000
  H   H2793     1.0  0.66053  0.27773  0.77921  1.0000
  H   H2794     1.0  0.72335  0.46300  0.59174  1.0000
  C   C2797     1.0  0.66414  0.27562  0.79085  1.0000
  C   C2798     1.0  0.66295  0.27095  0.52897  1.0000
  H   H2795     1.0  0.66122  0.26925  0.55480  1.0000
  H   H2796     1.0  0.70959  0.24540  0.59281  1.0000
  S   S930      1.0  0.76950  0.23771  0.63863  1.0000
  C   C2799     1.0  0.76001  0.23661  0.70993  1.0000
  H   H2797     1.0  0.67691  0.25265  0.57869  1.0000
  C   C2800     1.0  0.72252  0.29223  0.47415  1.0000
  H   H2798     1.0  0.69699  0.32612  0.47419  1.0000
  C   C2801     1.0  0.81360  0.23141  0.95689  1.0000
  C   C2802     1.0  0.71278  0.23143  0.79990  1.0000
  S   S931      1.0  0.83984  0.23173  0.85855  1.0000
  C   C2803     1.0  0.75834  0.72025  0.33658  1.0000
  C   C2804     1.0  0.82030  0.71834  0.18917  1.0000
  H   H2799     1.0  0.87365  0.68405  0.21744  1.0000
  H   H2800     1.0  0.76135  0.67949  0.09167  1.0000
  H   H2801     1.0  0.74054  0.67472  0.41049  1.0000
  H   H2802     1.0  0.86338  0.70027  0.27599  1.0000
  C   C2805     1.0  0.91679  0.72929  0.05820  1.0000
  S   S932      1.0  0.69942  0.72809  0.39207  1.0000
  C   C2806     1.0  0.70859  0.69464  0.39584  1.0000
  Fe  Fe466     1.0  0.72717  0.56317  0.29604  1.0000
  S   S933      1.0  0.75039  0.54409  0.28964  1.0000
  S   S934      1.0  0.72101  0.57664  0.31703  1.0000
  Fe  Fe467     1.0  0.71222  0.55911  0.26935  1.0000
  S   S935      1.0  0.73431  0.54027  0.26061  1.0000
  S   S936      1.0  0.69124  0.56679  0.25616  1.0000
  Fe  Fe468     1.0  0.74890  0.55686  0.26335  1.0000
  S   S937      1.0  0.76944  0.56325  0.24183  1.0000
  S   S938      1.0  0.71019  0.54719  0.29622  1.0000
  S   S939      1.0  0.72685  0.57687  0.26981  1.0000
  Fe  Fe469     1.0  0.75989  0.62705  0.39109  1.0000
  S   S940      1.0  0.74938  0.65430  0.38452  1.0000
  S   S941      1.0  0.76235  0.61482  0.41765  1.0000
  Fe  Fe470     1.0  0.76187  0.62265  0.35620  1.0000
  S   S942      1.0  0.75154  0.64966  0.34731  1.0000
  S   S943      1.0  0.77049  0.60631  0.33729  1.0000
  Fe  Fe471     1.0  0.76825  0.65397  0.36077  1.0000
  S   S944      1.0  0.78072  0.67556  0.35073  1.0000
  Fe  Fe472     1.0  0.73354  0.64752  0.37178  1.0000
  S   S945      1.0  0.70694  0.66083  0.37221  1.0000
  S   S946      1.0  0.78024  0.62710  0.36802  1.0000
  S   S947      1.0  0.74250  0.62005  0.37992  1.0000
  Fe  Fe473     1.0  0.82197  0.67694  0.04873  1.0000
  H   H2803     1.0  0.70336  0.48965  0.24430  1.0000
  S   S948      1.0  0.84374  0.67265  0.06061  1.0000
  S   S949      1.0  0.78399  0.67753  0.03262  1.0000
  Fe  Fe474     1.0  0.80009  0.65600  0.04604  1.0000
  S   S950      1.0  0.79544  0.63067  0.04968  1.0000
  S   S951      1.0  0.82385  0.66230  0.02989  1.0000
  H   H2804     1.0  0.66113  0.72968  0.23209  1.0000
  S   S952      1.0  0.67074  0.50446  0.20747  1.0000
  Fe  Fe475     1.0  0.89548  0.69678  0.12621  1.0000
  S   S953      1.0  0.87075  0.71425  0.12953  1.0000
  S   S954      1.0  0.89649  0.67021  0.13890  1.0000
  H   H2805     1.0  0.73139  0.64791  0.42132  1.0000
  C   C2807     1.0  0.78980  0.64459  0.00483  1.0000
  C   C2808     1.0  0.85157  0.67074  0.26532  1.0000
  H   H2806     1.0  0.87083  0.70914  0.24551  1.0000
  S   S955      1.0  0.90156  0.70415  0.09854  1.0000
  S   S956      1.0  0.90889  0.71380  0.13022  1.0000
  Fe  Fe476     1.0  0.74105  0.57947  0.17036  1.0000
  S   S957      1.0  0.75575  0.59209  0.17890  1.0000
  S   S958      1.0  0.73101  0.55863  0.18905  1.0000
  Fe  Fe477     1.0  0.74504  0.60192  0.13594  1.0000
  S   S959      1.0  0.75993  0.61641  0.14164  1.0000
  S   S960      1.0  0.73987  0.60757  0.11064  1.0000
  Fe  Fe478     1.0  0.77268  0.59153  0.15400  1.0000
  S   S961      1.0  0.80027  0.58393  0.14862  1.0000
  Fe  Fe479     1.0  0.74134  0.61552  0.16574  1.0000
  S   S962      1.0  0.72994  0.63785  0.17692  1.0000
  S   S963      1.0  0.75926  0.57692  0.14645  1.0000
  S   S964      1.0  0.72519  0.60293  0.15914  1.0000
  Fe  Fe480     1.0  0.80359  0.63987  0.22198  1.0000
  S   S965      1.0  0.79236  0.64759  0.19966  1.0000
  S   S966      1.0  0.79234  0.62516  0.24641  1.0000
  Fe  Fe481     1.0  0.82835  0.66200  0.20675  1.0000
  S   S967      1.0  0.81896  0.67196  0.18344  1.0000
  S   S968      1.0  0.84875  0.67262  0.20830  1.0000
  Fe  Fe482     1.0  0.79370  0.67318  0.19991  1.0000
  S   S969      1.0  0.77301  0.69494  0.19422  1.0000
  Fe  Fe483     1.0  0.81871  0.64557  0.18525  1.0000
  S   S970      1.0  0.83056  0.63680  0.16158  1.0000
  S   S971      1.0  0.80313  0.66566  0.22320  1.0000
  S   S972      1.0  0.82996  0.63531  0.20763  1.0000
  S   S973      1.0  0.76111  0.70643  0.06147  1.0000
  H   H2807     1.0  0.74642  0.67300  0.45878  1.0000
  N   N234      1.0  0.74158  0.66865  0.09238  1.0000
  C   C2809     1.0  0.72903  0.64743  0.08226  1.0000
  S   S974      1.0  0.81646  0.71993  0.23565  1.0000
  H   H2808     1.0  0.67878  0.57974  0.20259  1.0000
  Fe  Fe484     1.0  0.81137  0.71051  0.26310  1.0000
  S   S975      1.0  0.81157  0.68364  0.27435  1.0000
  C   C2810     1.0  0.74803  0.68001  0.09766  1.0000
  H   H2809     1.0  0.72981  0.63413  0.45067  1.0000
  N   N235      1.0  0.74519  0.72306  0.34946  1.0000
  C   C2811     1.0  0.69977  0.70935  0.38762  1.0000
  H   H2810     1.0  0.72631  0.66165  0.11610  1.0000
  H   H2811     1.0  0.94361  0.70711  0.11772  1.0000
  H   H2812     1.0  0.71874  0.48671  0.22594  1.0000
  C   C2812     1.0  0.77167  0.71077  0.20409  1.0000
  C   C2813     1.0  0.77721  0.70702  0.21875  1.0000
  C   C2814     1.0  0.77774  0.71972  0.22571  1.0000
  C   C2815     1.0  0.69799  0.61172  0.19451  1.0000
  S   S976      1.0  0.78818  0.72984  0.26795  1.0000
  Fe  Fe485     1.0  0.65608  0.52788  0.19481  1.0000
  H   H2813     1.0  0.78099  0.69436  0.22485  1.0000
  H   H2814     1.0  0.78239  0.71668  0.23687  1.0000
  C   C2816     1.0  0.78393  0.55079  0.17929  1.0000
  H   H2815     1.0  0.91608  0.70294  0.04218  1.0000
  C   C2817     1.0  0.80869  0.59803  0.15322  1.0000
  C   C2818     1.0  0.82520  0.59891  0.14600  1.0000
  C   C2819     1.0  0.83178  0.61094  0.14859  1.0000
  C   C2820     1.0  0.82202  0.62178  0.15879  1.0000
  C   C2821     1.0  0.80552  0.62081  0.16614  1.0000
  C   C2822     1.0  0.79877  0.60906  0.16317  1.0000
  H   H2816     1.0  0.83284  0.59045  0.13821  1.0000
  H   H2817     1.0  0.84455  0.61167  0.14292  1.0000
  H   H2818     1.0  0.79789  0.62932  0.17383  1.0000
  H   H2819     1.0  0.78595  0.60851  0.16864  1.0000
  C   C2823     1.0  0.71513  0.65084  0.16585  1.0000
  C   C2824     1.0  0.70434  0.66465  0.17143  1.0000
  C   C2825     1.0  0.69222  0.67466  0.16269  1.0000
  C   C2826     1.0  0.69080  0.67068  0.14850  1.0000
  C   C2827     1.0  0.70142  0.65677  0.14313  1.0000
  C   C2828     1.0  0.71378  0.64708  0.15155  1.0000
  H   H2820     1.0  0.70526  0.66761  0.18252  1.0000
  H   H2821     1.0  0.76521  0.60471  0.45169  1.0000
  H   H2822     1.0  0.72229  0.63676  0.14687  1.0000
  C   C2829     1.0  0.88543  0.66955  0.15933  1.0000
  C   C2830     1.0  0.88339  0.68272  0.16681  1.0000
  C   C2831     1.0  0.87311  0.68295  0.18255  1.0000
  C   C2832     1.0  0.86413  0.67054  0.19035  1.0000
  C   C2833     1.0  0.86645  0.65722  0.18301  1.0000
  C   C2834     1.0  0.87747  0.65649  0.16772  1.0000
  H   H2823     1.0  0.88970  0.69275  0.16044  1.0000
  H   H2824     1.0  0.87157  0.69312  0.18830  1.0000
  H   H2825     1.0  0.85975  0.64746  0.18908  1.0000
  H   H2826     1.0  0.87934  0.64608  0.16217  1.0000
  C   C2835     1.0  0.78006  0.62467  0.06690  1.0000
  C   C2836     1.0  0.77616  0.63106  0.08115  1.0000
  C   C2837     1.0  0.76429  0.62536  0.09499  1.0000
  C   C2838     1.0  0.75594  0.61373  0.09432  1.0000
  C   C2839     1.0  0.75968  0.60765  0.07995  1.0000
  C   C2840     1.0  0.77193  0.61285  0.06643  1.0000
  H   H2827     1.0  0.78243  0.64017  0.08162  1.0000
  H   H2828     1.0  0.76121  0.63037  0.10593  1.0000
  H   H2829     1.0  0.75318  0.59876  0.07934  1.0000
  H   H2830     1.0  0.77492  0.60784  0.05547  1.0000
  C   C2841     1.0  0.84759  0.68845  0.06763  1.0000
  C   C2842     1.0  0.86147  0.68506  0.07457  1.0000
  C   C2843     1.0  0.86454  0.69708  0.08094  1.0000
  C   C2844     1.0  0.85386  0.71271  0.08017  1.0000
  H   H2831     1.0  0.74701  0.67684  0.11126  1.0000
  C   C2845     1.0  0.83689  0.70405  0.06692  1.0000
  H   H2832     1.0  0.86979  0.67299  0.07521  1.0000
  H   H2833     1.0  0.87512  0.69423  0.08649  1.0000
  C   C2846     1.0  0.67397  0.49205  0.29594  1.0000
  S   S977      1.0  0.80680  0.69670  0.99086  1.0000
  H   H2834     1.0  0.69305  0.50762  0.26425  1.0000
  C   C2847     1.0  0.74035  0.65631  0.07100  1.0000
  H   H2835     1.0  0.70046  0.51062  0.29192  1.0000
  S   S978      1.0  0.66740  0.54698  0.17468  1.0000
  C   C2848     1.0  0.70521  0.48876  0.23128  1.0000
  C   C2849     1.0  0.78572  0.64611  0.97779  1.0000
  H   H2836     1.0  0.76117  0.73032  0.18568  1.0000
  H   H2837     1.0  0.74411  0.53674  0.21941  1.0000
  C   C2850     1.0  0.96552  0.71178  0.12144  1.0000
  H   H2838     1.0  0.77680  0.66645  0.99041  1.0000
  C   C2851     1.0  0.70351  0.67939  0.37859  1.0000
  C   C2852     1.0  0.69434  0.69407  0.37058  1.0000
  H   H2839     1.0  0.68924  0.69396  0.36047  1.0000
  C   C2853     1.0  0.79074  0.67701  0.32986  1.0000
  C   C2854     1.0  0.79308  0.66399  0.32207  1.0000
  C   C2855     1.0  0.80028  0.66577  0.30512  1.0000
  C   C2856     1.0  0.80443  0.68079  0.29583  1.0000
  C   C2857     1.0  0.80238  0.69367  0.30369  1.0000
  C   C2858     1.0  0.79587  0.69164  0.32075  1.0000
  H   H2840     1.0  0.78942  0.65254  0.32913  1.0000
  H   H2841     1.0  0.80226  0.65564  0.29914  1.0000
  H   H2842     1.0  0.80581  0.70522  0.29665  1.0000
  H   H2843     1.0  0.79455  0.70154  0.32682  1.0000
  C   C2859     1.0  0.77599  0.58033  0.24309  1.0000
  C   C2860     1.0  0.77097  0.58603  0.25778  1.0000
  C   C2861     1.0  0.77630  0.59965  0.25877  1.0000
  C   C2862     1.0  0.78648  0.60773  0.24501  1.0000
  C   C2863     1.0  0.79135  0.60219  0.23022  1.0000
  C   C2864     1.0  0.78618  0.58839  0.22930  1.0000
  H   H2844     1.0  0.76310  0.57983  0.26845  1.0000
  H   H2845     1.0  0.77240  0.60399  0.27018  1.0000
  H   H2846     1.0  0.79919  0.60843  0.21955  1.0000
  H   H2847     1.0  0.79004  0.58403  0.21789  1.0000
  C   C2865     1.0  0.73454  0.58703  0.32038  1.0000
  C   C2866     1.0  0.72849  0.59692  0.33222  1.0000
  C   C2867     1.0  0.73926  0.60360  0.33693  1.0000
  C   C2868     1.0  0.75624  0.60023  0.32998  1.0000
  C   C2869     1.0  0.76222  0.59085  0.31768  1.0000
  C   C2870     1.0  0.75140  0.58439  0.31277  1.0000
  H   H2848     1.0  0.71545  0.59907  0.33812  1.0000
  H   H2849     1.0  0.73450  0.61084  0.34638  1.0000
  H   H2850     1.0  0.77535  0.58816  0.31225  1.0000
  H   H2851     1.0  0.75618  0.57689  0.30356  1.0000
  H   H2852     1.0  0.69870  0.50072  0.22463  1.0000
  C   C2871     1.0  0.77310  0.72597  0.01053  1.0000
  C   C2872     1.0  0.65965  0.67957  0.37802  1.0000
  C   C2873     1.0  0.68479  0.54981  0.25426  1.0000
  C   C2874     1.0  0.69260  0.53357  0.26044  1.0000
  C   C2875     1.0  0.68697  0.52012  0.25935  1.0000
  C   C2876     1.0  0.81827  0.66780  0.97890  1.0000
  C   C2877     1.0  0.66599  0.53910  0.24546  1.0000
  H   H2853     1.0  0.70284  0.53137  0.26625  1.0000
  H   H2854     1.0  0.71540  0.64226  0.10747  1.0000
  C   C2878     1.0  0.75236  0.54266  0.33379  1.0000
  C   C2879     1.0  0.68493  0.55032  0.17887  1.0000
  C   C2880     1.0  0.68960  0.54254  0.19395  1.0000
  C   C2881     1.0  0.70391  0.54495  0.19693  1.0000
  C   C2882     1.0  0.71342  0.55537  0.18495  1.0000
  C   C2883     1.0  0.70860  0.56338  0.17001  1.0000
  C   C2884     1.0  0.69438  0.56083  0.16696  1.0000
  H   H2855     1.0  0.68216  0.53471  0.20335  1.0000
  H   H2856     1.0  0.70746  0.53889  0.20861  1.0000
  H   H2857     1.0  0.71595  0.57134  0.16066  1.0000
  H   H2858     1.0  0.69082  0.56686  0.15529  1.0000
  C   C2885     1.0  0.77807  0.63929  0.45055  1.0000
  C   C2886     1.0  0.76960  0.62386  0.42978  1.0000
  C   C2887     1.0  0.77490  0.63881  0.42329  1.0000
  C   C2888     1.0  0.77911  0.64645  0.43362  1.0000
  H   H2859     1.0  0.77548  0.64464  0.41036  1.0000
  H   H2860     1.0  0.78285  0.65819  0.42851  1.0000
  H   H2861     1.0  0.92934  0.72269  0.05916  1.0000
  H   H2862     1.0  0.83704  0.70410  0.14195  1.0000
  Fe  Fe486     1.0  0.73339  0.52921  0.28755  1.0000
  C   C2889     1.0  0.76565  0.72733  0.19693  1.0000
  C   C2890     1.0  0.95308  0.71429  0.11281  1.0000
  C   C2891     1.0  0.68689  0.60292  0.19372  1.0000
  C   C2892     1.0  0.85429  0.67947  0.27542  1.0000
  S   S979      1.0  0.79920  0.66883  0.06569  1.0000
  H   H2863     1.0  0.67812  0.60854  0.18576  1.0000
  H   H2864     1.0  0.80018  0.61525  0.12380  1.0000
  C   C2893     1.0  0.77338  0.62401  0.45694  1.0000
  Fe  Fe487     1.0  0.80758  0.68505  0.01773  1.0000
  C   C2894     1.0  0.97810  0.72077  0.11512  1.0000
  H   H2865     1.0  0.73357  0.50715  0.26464  1.0000
  H   H2866     1.0  0.66550  0.56509  0.24179  1.0000
  H   H2867     1.0  0.90063  0.69741  0.06063  1.0000
  H   H2868     1.0  0.74798  0.68731  0.42943  1.0000
  H   H2869     1.0  0.76440  0.53922  0.18031  1.0000
  H   H2870     1.0  0.75531  0.67382  0.06750  1.0000
  C   C2895     1.0  0.80107  0.62127  0.99165  1.0000
  C   C2896     1.0  0.76913  0.61637  0.44659  1.0000
  H   H2871     1.0  0.75671  0.52928  0.33893  1.0000
  H   H2872     1.0  0.79586  0.55295  0.21294  1.0000
  H   H2873     1.0  0.83180  0.72825  0.07239  1.0000
  C   C2897     1.0  0.72389  0.64944  0.09855  1.0000
  Fe  Fe488     1.0  0.87753  0.72281  0.10201  1.0000
  H   H2874     1.0  0.74467  0.65461  0.05838  1.0000
  C   C2898     1.0  0.79875  0.62833  0.00517  1.0000
  S   S980      1.0  0.82807  0.72407  0.26747  1.0000
  C   C2899     1.0  0.91113  0.70385  0.05532  1.0000
  H   H2875     1.0  0.69786  0.62426  0.18724  1.0000
  C   C2900     1.0  0.86155  0.69317  0.26825  1.0000
  C   C2901     1.0  0.68723  0.58682  0.20315  1.0000
  C   C2902     1.0  0.73218  0.49471  0.27072  1.0000
  H   H2876     1.0  0.76403  0.70772  0.33494  1.0000
  H   H2877     1.0  0.78824  0.65026  0.01511  1.0000
  H   H2878     1.0  0.81131  0.71076  0.19147  1.0000
  C   C2903     1.0  0.74351  0.67589  0.43413  1.0000
  C   C2904     1.0  0.78928  0.54969  0.20562  1.0000
  H   H2879     1.0  0.84060  0.70138  0.17736  1.0000
  H   H2880     1.0  0.72460  0.63864  0.07855  1.0000
  H   H2881     1.0  0.71410  0.69489  0.40560  1.0000
  H   H2882     1.0  0.70008  0.65353  0.13238  1.0000
  H   H2883     1.0  0.75000  0.52408  0.20443  1.0000
  S   S981      1.0  0.66571  0.50590  0.25207  1.0000
  H   H2884     1.0  0.75890  0.51715  0.22243  1.0000
  H   H2885     1.0  0.73981  0.54460  0.33140  1.0000
  H   H2886     1.0  0.80215  0.56209  0.18220  1.0000
  N   N236      1.0  0.73768  0.65294  0.45652  1.0000
  C   C2905     1.0  0.74255  0.66776  0.45073  1.0000
  C   C2906     1.0  0.73330  0.64606  0.44624  1.0000
  C   C2907     1.0  0.80959  0.68434  0.97649  1.0000
  C   C2908     1.0  0.73411  0.65385  0.42958  1.0000
  C   C2909     1.0  0.73027  0.66022  0.10341  1.0000
  H   H2887     1.0  0.70140  0.48163  0.32022  1.0000
  N   N237      1.0  0.84089  0.68624  0.12735  1.0000
  C   C2910     1.0  0.73932  0.66883  0.42350  1.0000
  N   N238      1.0  0.76817  0.53691  0.20439  1.0000
  H   H2888     1.0  0.96524  0.70299  0.13318  1.0000
  H   H2889     1.0  0.80602  0.58430  0.11121  1.0000
  Fe  Fe489     1.0  0.78539  0.69123  0.05060  1.0000
  C   C2911     1.0  0.85366  0.65472  0.12076  1.0000
  H   H2890     1.0  0.72825  0.70712  0.35710  1.0000
  N   N239      1.0  0.80647  0.60950  0.10000  1.0000
  C   C2912     1.0  0.81484  0.61311  0.08389  1.0000
  C   C2913     1.0  0.80674  0.61817  0.11103  1.0000
  C   C2914     1.0  0.82343  0.62598  0.07838  1.0000
  C   C2915     1.0  0.81544  0.63093  0.10602  1.0000
  C   C2916     1.0  0.82378  0.63489  0.08954  1.0000
  C   C2917     1.0  0.79781  0.59575  0.10572  1.0000
  H   H2891     1.0  0.81460  0.60630  0.07509  1.0000
  H   H2892     1.0  0.82968  0.62910  0.06548  1.0000
  H   H2893     1.0  0.81572  0.63761  0.11492  1.0000
  H   H2894     1.0  0.83045  0.64487  0.08536  1.0000
  H   H2895     1.0  0.79385  0.59345  0.09546  1.0000
  H   H2896     1.0  0.78640  0.59855  0.11532  1.0000
  N   N240      1.0  0.78123  0.63977  0.28883  1.0000
  C   C2918     1.0  0.76942  0.64595  0.30125  1.0000
  C   C2919     1.0  0.78709  0.65024  0.27454  1.0000
  C   C2920     1.0  0.76334  0.66307  0.29963  1.0000
  C   C2921     1.0  0.78115  0.66739  0.27244  1.0000
  C   C2922     1.0  0.76931  0.67383  0.28513  1.0000
  C   C2923     1.0  0.78730  0.62178  0.29092  1.0000
  H   H2897     1.0  0.76484  0.63762  0.31259  1.0000
  H   H2898     1.0  0.79663  0.64544  0.26477  1.0000
  H   H2899     1.0  0.75433  0.66794  0.30969  1.0000
  H   H2900     1.0  0.78620  0.67566  0.26128  1.0000
  H   H2901     1.0  0.76512  0.68716  0.28386  1.0000
  H   H2902     1.0  0.79803  0.61843  0.28083  1.0000
  H   H2903     1.0  0.79126  0.61644  0.30289  1.0000
  H   H2904     1.0  0.77727  0.61601  0.29083  1.0000
  H   H2905     1.0  0.85441  0.67775  0.14662  1.0000
  C   C2924     1.0  0.77152  0.54187  0.18751  1.0000
  C   C2925     1.0  0.85119  0.67476  0.13664  1.0000
  H   H2906     1.0  0.77919  0.71303  0.01347  1.0000
  C   C2926     1.0  0.74646  0.66702  0.07628  1.0000
  C   C2927     1.0  0.75976  0.72781  0.05402  1.0000
  H   H2907     1.0  0.65547  0.54138  0.24004  1.0000
  N   N241      1.0  0.90581  0.72132  0.05647  1.0000
  H   H2908     1.0  0.85032  0.67587  0.28876  1.0000
  H   H2909     1.0  0.88128  0.72347  0.05385  1.0000
  H   H2910     1.0  0.83887  0.71225  0.12004  1.0000
  H   H2911     1.0  0.77538  0.73121  0.31539  1.0000
  C   C2928     1.0  0.69229  0.70905  0.37524  1.0000
  C   C2929     1.0  0.84335  0.66656  0.11120  1.0000
  S   S982      1.0  0.73428  0.50195  0.29930  1.0000
  H   H2912     1.0  0.74848  0.72122  0.01847  1.0000
  H   H2913     1.0  0.78594  0.72641  0.04978  1.0000
  N   N242      1.0  0.74990  0.65684  0.20293  1.0000
  C   C2930     1.0  0.75234  0.63990  0.20678  1.0000
  C   C2931     1.0  0.74890  0.66527  0.21465  1.0000
  C   C2932     1.0  0.75436  0.63094  0.22259  1.0000
  C   C2933     1.0  0.75104  0.65669  0.23052  1.0000
  C   C2934     1.0  0.75377  0.63942  0.23448  1.0000
  C   C2935     1.0  0.74770  0.66608  0.18636  1.0000
  H   H2914     1.0  0.75295  0.63323  0.19755  1.0000
  H   H2915     1.0  0.74670  0.67871  0.21168  1.0000
  H   H2916     1.0  0.75662  0.61749  0.22556  1.0000
  H   H2917     1.0  0.75075  0.66339  0.23961  1.0000
  H   H2918     1.0  0.75559  0.63261  0.24670  1.0000
  H   H2919     1.0  0.75267  0.67756  0.18272  1.0000
  H   H2920     1.0  0.75443  0.65856  0.17693  1.0000
  H   H2921     1.0  0.73433  0.66946  0.18609  1.0000
  H   H2922     1.0  0.82347  0.66232  0.98976  1.0000
  H   H2923     1.0  0.78651  0.55479  0.16592  1.0000
  C   C2936     1.0  0.77693  0.54062  0.21342  1.0000
  S   S983      1.0  0.93702  0.72979  0.08722  1.0000
  H   H2924     1.0  0.82020  0.70568  0.13274  1.0000
  C   C2937     1.0  0.73251  0.48891  0.28747  1.0000
  N   N243      1.0  0.75226  0.55259  0.34522  1.0000
  C   C2938     1.0  0.76689  0.55542  0.34604  1.0000
  C   C2939     1.0  0.73769  0.55868  0.35521  1.0000
  C   C2940     1.0  0.76713  0.56493  0.35676  1.0000
  C   C2941     1.0  0.73750  0.56818  0.36614  1.0000
  C   C2942     1.0  0.75232  0.57139  0.36682  1.0000
  H   H2925     1.0  0.86564  0.64971  0.14101  1.0000
  H   H2926     1.0  0.77840  0.55078  0.33798  1.0000
  H   H2927     1.0  0.72603  0.55679  0.35428  1.0000
  H   H2928     1.0  0.77861  0.56788  0.35681  1.0000
  H   H2929     1.0  0.72587  0.57351  0.37358  1.0000
  H   H2930     1.0  0.75231  0.57929  0.37473  1.0000
  S   S984      1.0  0.80797  0.70049  0.03494  1.0000
  H   H2931     1.0  0.68399  0.68541  0.16693  1.0000
  H   H2932     1.0  0.71663  0.66824  0.39819  1.0000
  H   H2933     1.0  0.82616  0.70682  0.06160  1.0000
  H   H2934     1.0  0.76056  0.54639  0.32158  1.0000
  C   C2943     1.0  0.83708  0.68238  0.11466  1.0000
  C   C2944     1.0  0.71025  0.67965  0.39149  1.0000
  N   N244      1.0  0.86299  0.68946  0.24121  1.0000
  N   N245      1.0  0.71002  0.58818  0.21340  1.0000
  C   C2945     1.0  0.69881  0.57968  0.21312  1.0000
  C   C2946     1.0  0.70957  0.60409  0.20445  1.0000
  H   H2935     1.0  0.74101  0.69292  0.09408  1.0000
  H   H2936     1.0  0.67593  0.66213  0.36355  1.0000
  C   C2947     1.0  0.83671  0.71311  0.18124  1.0000
  C   C2948     1.0  0.72223  0.58050  0.22377  1.0000
  H   H2937     1.0  0.69905  0.56712  0.22034  1.0000
  H   H2938     1.0  0.71828  0.61094  0.20484  1.0000
  S   S985      1.0  0.78100  0.65090  0.46329  1.0000
  H   H2939     1.0  0.73430  0.71139  0.37374  1.0000
  C   C2949     1.0  0.79275  0.55484  0.18843  1.0000
  H   H2940     1.0  0.72374  0.56680  0.22725  1.0000
  H   H2941     1.0  0.73459  0.58314  0.21711  1.0000
  H   H2942     1.0  0.71804  0.58526  0.23533  1.0000
  C   C2950     1.0  0.75468  0.52822  0.21308  1.0000
  H   H2943     1.0  0.73050  0.48884  0.24864  1.0000
  H   H2944     1.0  0.84542  0.66041  0.27075  1.0000
  H   H2945     1.0  0.77419  0.53680  0.22681  1.0000
  C   C2951     1.0  0.83392  0.70288  0.13071  1.0000
  C   C2952     1.0  0.73872  0.70906  0.36102  1.0000
  H   H2946     1.0  0.85853  0.64233  0.11839  1.0000
  H   H2947     1.0  0.74845  0.69740  0.36164  1.0000
  H   H2948     1.0  0.92089  0.69714  0.06246  1.0000
  H   H2949     1.0  0.77270  0.61826  0.46989  1.0000
  S   S986      1.0  0.67618  0.68302  0.13699  1.0000
  S   S987      1.0  0.66142  0.72332  0.19821  1.0000
  C   C2953     1.0  0.73030  0.48430  0.26167  1.0000
  H   H2950     1.0  0.84042  0.66362  0.10102  1.0000
  H   H2951     1.0  0.82930  0.69163  0.10700  1.0000
  C   C2954     1.0  0.85586  0.67603  0.24814  1.0000
  C   C2955     1.0  0.67161  0.55255  0.24657  1.0000
  H   H2952     1.0  0.85319  0.66949  0.24039  1.0000
  C   C2956     1.0  0.84009  0.71616  0.07308  1.0000
  C   C2957     1.0  0.67349  0.52286  0.25206  1.0000
  H   H2953     1.0  0.69073  0.51184  0.31299  1.0000
  C   C2958     1.0  0.89003  0.72973  0.05524  1.0000
  C   C2959     1.0  0.86710  0.69486  0.22318  1.0000
  C   C2960     1.0  0.86572  0.69813  0.25100  1.0000
  H   H2954     1.0  0.80827  0.60870  0.99187  1.0000
  C   C2961     1.0  0.68882  0.50995  0.30146  1.0000
  Fe  Fe490     1.0  0.65930  0.70312  0.14933  1.0000
  C   C2962     1.0  0.85771  0.65886  0.13347  1.0000
  S   S988      1.0  0.66903  0.72342  0.15234  1.0000
  H   H2955     1.0  0.68559  0.72046  0.36876  1.0000
  H   H2956     1.0  0.80400  0.62136  0.01581  1.0000
  H   H2957     1.0  0.66800  0.50266  0.28777  1.0000
  H   H2958     1.0  0.86080  0.71932  0.17195  1.0000
  C   C2963     1.0  0.78323  0.65359  0.99107  1.0000
  H   H2959     1.0  0.85552  0.70081  0.21857  1.0000
  H   H2960     1.0  0.87524  0.70393  0.21903  1.0000
  H   H2961     1.0  0.66836  0.67765  0.38574  1.0000
  S   S989      1.0  0.85749  0.72831  0.08762  1.0000
  H   H2962     1.0  0.67884  0.52036  0.29727  1.0000
  C   C2964     1.0  0.84808  0.72300  0.17844  1.0000
  C   C2965     1.0  0.66399  0.67072  0.36549  1.0000
  Fe  Fe491     1.0  0.91299  0.72288  0.10272  1.0000
  N   N246      1.0  0.79456  0.63014  0.97822  1.0000
  C   C2966     1.0  0.95309  0.72584  0.09778  1.0000
  N   N247      1.0  0.68475  0.49379  0.30412  1.0000
  H   H2963     1.0  0.65636  0.66674  0.34531  1.0000
  C   C2967     1.0  0.75587  0.73058  0.01320  1.0000
  C   C2968     1.0  0.97622  0.65338  0.81836  1.0000
  C   C2969     1.0  0.67586  0.59338  0.82017  1.0000
  Fe  Fe492     1.0  0.76456  0.54539  0.64073  1.0000
  S   S990      1.0  0.77682  0.52413  0.65800  1.0000
  S   S991      1.0  0.73911  0.56007  0.64952  1.0000
  Fe  Fe493     1.0  0.79299  0.54016  0.61191  1.0000
  S   S992      1.0  0.80772  0.51814  0.62699  1.0000
  S   S993      1.0  0.80355  0.55020  0.58504  1.0000
  Fe  Fe494     1.0  0.78334  0.51016  0.63777  1.0000
  S   S994      1.0  0.91102  0.72248  0.75662  1.0000
  Fe  Fe495     1.0  0.79986  0.53399  0.64589  1.0000
  S   S995      1.0  0.81478  0.53449  0.66361  1.0000
  S   S996      1.0  0.76927  0.53094  0.62120  1.0000
  S   S997      1.0  0.78698  0.55649  0.63008  1.0000
  Fe  Fe496     1.0  0.78133  0.64557  0.49072  1.0000
  S   S998      1.0  0.75786  0.65041  0.51012  1.0000
  Fe  Fe497     1.0  0.80316  0.64194  0.51497  1.0000
  S   S999      1.0  0.78159  0.64645  0.53574  1.0000
  S   S1000     1.0  0.82894  0.63727  0.51907  1.0000
  Fe  Fe498     1.0  0.77138  0.62972  0.52731  1.0000
  S   S1001     1.0  0.75780  0.61280  0.54833  1.0000
  Fe  Fe499     1.0  0.77029  0.66661  0.51688  1.0000
  S   S1002     1.0  0.76005  0.69136  0.52388  1.0000
  S   S1003     1.0  0.79399  0.62345  0.50754  1.0000
  S   S1004     1.0  0.79278  0.66343  0.49652  1.0000
  C   C2970     1.0  0.94197  0.65895  0.82408  1.0000
  H   H2964     1.0  0.72086  0.53198  0.65700  1.0000
  S   S1005     1.0  0.68272  0.53877  0.80060  1.0000
  Fe  Fe500     1.0  0.69868  0.55355  0.73933  1.0000
  S   S1006     1.0  0.72439  0.55690  0.72606  1.0000
  S   S1007     1.0  0.69666  0.52907  0.75650  1.0000
  Fe  Fe501     1.0  0.94008  0.66345  0.77200  1.0000
  S   S1008     1.0  0.92647  0.68115  0.78856  1.0000
  S   S1009     1.0  0.96771  0.65251  0.76996  1.0000
  Fe  Fe502     1.0  0.90851  0.66476  0.76028  1.0000
  S   S1010     1.0  0.89286  0.68241  0.77650  1.0000
  S   S1011     1.0  0.89337  0.66264  0.74331  1.0000
  Fe  Fe503     1.0  0.91412  0.69521  0.76749  1.0000
  H   H2965     1.0  0.87375  0.72166  0.63478  1.0000
  Fe  Fe504     1.0  0.90664  0.66650  0.79585  1.0000
  S   S1012     1.0  0.89569  0.65666  0.82266  1.0000
  S   S1013     1.0  0.92918  0.67861  0.75026  1.0000
  S   S1014     1.0  0.92086  0.64764  0.78049  1.0000
  Fe  Fe505     1.0  0.81033  0.68158  0.87958  1.0000
  S   S1015     1.0  0.81819  0.65483  0.89146  1.0000
  S   S1016     1.0  0.82583  0.69525  0.85688  1.0000
  Fe  Fe506     1.0  0.77609  0.68427  0.90238  1.0000
  S   S1017     1.0  0.78138  0.65760  0.91555  1.0000
  C   C2971     1.0  0.83665  0.70002  0.51605  1.0000
  Fe  Fe507     1.0  0.80561  0.66275  0.91563  1.0000
  S   S1018     1.0  0.81603  0.65278  0.93889  1.0000
  Fe  Fe508     1.0  0.79311  0.65273  0.89012  1.0000
  S   S1019     1.0  0.79177  0.63224  0.87901  1.0000
  S   S1020     1.0  0.79959  0.68983  0.90379  1.0000
  S   S1021     1.0  0.78585  0.67911  0.87698  1.0000
  Fe  Fe509     1.0  0.84741  0.60244  0.67931  1.0000
  S   S1022     1.0  0.82208  0.61520  0.69066  1.0000
  S   S1023     1.0  0.84801  0.59451  0.65614  1.0000
  Fe  Fe510     1.0  0.86314  0.60823  0.70481  1.0000
  S   S1024     1.0  0.83875  0.62109  0.71794  1.0000
  S   S1025     1.0  0.88540  0.60422  0.71588  1.0000
  Fe  Fe511     1.0  0.82882  0.60095  0.71464  1.0000
  S   S1026     1.0  0.81163  0.58679  0.73444  1.0000
  Fe  Fe512     1.0  0.83475  0.63394  0.69252  1.0000
  S   S1027     1.0  0.82660  0.66163  0.68567  1.0000
  S   S1028     1.0  0.85346  0.58684  0.70337  1.0000
  S   S1029     1.0  0.85985  0.62238  0.67934  1.0000
  Fe  Fe513     1.0  0.83752  0.69671  0.57163  1.0000
  S   S1030     1.0  0.80987  0.70402  0.57704  1.0000
  S   S1031     1.0  0.85218  0.68143  0.55275  1.0000
  Fe  Fe514     1.0  0.81180  0.69787  0.60348  1.0000
  S   S1032     1.0  0.79481  0.68368  0.62334  1.0000
  S   S1033     1.0  0.83924  0.68834  0.59828  1.0000
  Fe  Fe515     1.0  0.73037  0.59570  0.81646  1.0000
  S   S1034     1.0  0.72386  0.61207  0.79305  1.0000
  S   S1035     1.0  0.73293  0.56814  0.82046  1.0000
  Fe  Fe516     1.0  0.72922  0.62472  0.83140  1.0000
  S   S1036     1.0  0.72203  0.64330  0.80914  1.0000
  S   S1037     1.0  0.72837  0.63668  0.85219  1.0000
  Fe  Fe517     1.0  0.70520  0.62726  0.80989  1.0000
  S   S1038     1.0  0.67866  0.63555  0.80779  1.0000
  Fe  Fe518     1.0  0.74144  0.62632  0.79458  1.0000
  S   S1039     1.0  0.75806  0.63797  0.77203  1.0000
  S   S1040     1.0  0.71045  0.61002  0.83340  1.0000
  S   S1041     1.0  0.74998  0.60857  0.81665  1.0000
  C   C2972     1.0  0.67327  0.65715  0.80196  1.0000
  H   H2966     1.0  0.79182  0.71984  0.54051  1.0000
  Fe  Fe519     1.0  0.67961  0.54426  0.77436  1.0000
  C   C2973     1.0  0.68533  0.66630  0.79303  1.0000
  H   H2967     1.0  0.78112  0.65339  0.96687  1.0000
  C   C2974     1.0  0.66486  0.69183  0.79544  1.0000
  H   H2968     1.0  0.69048  0.69077  0.78303  1.0000
  H   H2969     1.0  0.69792  0.66000  0.78871  1.0000
  H   H2970     1.0  0.93046  0.63956  0.81405  1.0000
  C   C2975     1.0  0.79563  0.60085  0.74413  1.0000
  C   C2976     1.0  0.79412  0.61786  0.73761  1.0000
  C   C2977     1.0  0.78230  0.62920  0.74613  1.0000
  C   C2978     1.0  0.77198  0.62356  0.76116  1.0000
  C   C2979     1.0  0.77327  0.60652  0.76758  1.0000
  C   C2980     1.0  0.78511  0.59514  0.75902  1.0000
  H   H2971     1.0  0.80215  0.62235  0.72609  1.0000
  H   H2972     1.0  0.78126  0.64239  0.74116  1.0000
  H   H2973     1.0  0.76541  0.60219  0.77931  1.0000
  H   H2974     1.0  0.78644  0.58197  0.76416  1.0000
  C   C2981     1.0  0.81621  0.66832  0.66939  1.0000
  C   C2982     1.0  0.81734  0.68368  0.65865  1.0000
  C   C2983     1.0  0.81076  0.68841  0.64447  1.0000
  C   C2984     1.0  0.80224  0.67819  0.64149  1.0000
  C   C2985     1.0  0.80029  0.66325  0.65271  1.0000
  C   C2986     1.0  0.80751  0.65819  0.66652  1.0000
  H   H2975     1.0  0.82392  0.69162  0.66092  1.0000
  H   H2976     1.0  0.81243  0.69991  0.63582  1.0000
  H   H2977     1.0  0.79364  0.65536  0.65046  1.0000
  H   H2978     1.0  0.80619  0.64656  0.67501  1.0000
  C   C2987     1.0  0.81392  0.66540  0.95283  1.0000
  H   H2979     1.0  0.73255  0.69149  0.89016  1.0000
  H   H2980     1.0  0.97624  0.63328  0.80808  1.0000
  H   H2981     1.0  0.66748  0.60194  0.82805  1.0000
  H   H2982     1.0  0.77334  0.71694  0.61127  1.0000
  C   C2988     1.0  0.80511  0.68188  0.95051  1.0000
  C   C2989     1.0  0.96857  0.64320  0.81413  1.0000
  H   H2983     1.0  0.69815  0.64697  0.84004  1.0000
  C   C2990     1.0  0.94406  0.63490  0.81279  1.0000
  H   H2984     1.0  0.79991  0.68737  0.93967  1.0000
  C   C2991     1.0  0.77435  0.63423  0.87090  1.0000
  C   C2992     1.0  0.77511  0.62365  0.86072  1.0000
  C   C2993     1.0  0.76127  0.62457  0.85451  1.0000
  C   C2994     1.0  0.74645  0.63590  0.85869  1.0000
  C   C2995     1.0  0.74573  0.64657  0.86878  1.0000
  C   C2996     1.0  0.75966  0.64587  0.87473  1.0000
  H   H2985     1.0  0.78639  0.61457  0.85776  1.0000
  H   H2986     1.0  0.76194  0.61624  0.84684  1.0000
  H   H2987     1.0  0.73428  0.65527  0.87216  1.0000
  H   H2988     1.0  0.75891  0.65399  0.88265  1.0000
  H   H2989     1.0  0.79130  0.63081  0.95420  1.0000
  C   C2997     1.0  0.90189  0.71635  0.71548  1.0000
  C   C2998     1.0  0.90368  0.71387  0.73168  1.0000
  H   H2990     1.0  0.89679  0.70773  0.71235  1.0000
  H   H2991     1.0  0.89994  0.70338  0.74087  1.0000
  C   C2999     1.0  0.89152  0.64596  0.73612  1.0000
  C   C3000     1.0  0.87941  0.64892  0.72694  1.0000
  C   C3001     1.0  0.87753  0.63628  0.72059  1.0000
  C   C3002     1.0  0.88790  0.62054  0.72320  1.0000
  C   C3003     1.0  0.90006  0.61755  0.73236  1.0000
  C   C3004     1.0  0.90185  0.63020  0.73885  1.0000
  H   H2992     1.0  0.87138  0.66109  0.72472  1.0000
  H   H2993     1.0  0.86811  0.63876  0.71359  1.0000
  H   H2994     1.0  0.90810  0.60538  0.73448  1.0000
  H   H2995     1.0  0.91128  0.62777  0.74583  1.0000
  C   C3005     1.0  0.87665  0.66789  0.83226  1.0000
  C   C3006     1.0  0.86832  0.66046  0.84782  1.0000
  C   C3007     1.0  0.85284  0.66880  0.85555  1.0000
  C   C3008     1.0  0.84561  0.68471  0.84785  1.0000
  C   C3009     1.0  0.85405  0.69222  0.83234  1.0000
  C   C3010     1.0  0.86947  0.68380  0.82450  1.0000
  H   H2996     1.0  0.87381  0.64818  0.85392  1.0000
  H   H2997     1.0  0.84661  0.66296  0.86753  1.0000
  H   H2998     1.0  0.84857  0.70455  0.82632  1.0000
  H   H2999     1.0  0.87583  0.68968  0.81254  1.0000
  C   C3011     1.0  0.73395  0.55734  0.76513  1.0000
  H   H3000     1.0  0.67799  0.64556  0.83870  1.0000
  C   C3012     1.0  0.98075  0.66245  0.77492  1.0000
  C   C3013     1.0  0.75295  0.56765  0.78001  1.0000
  H   H3001     1.0  0.74355  0.72920  0.94017  1.0000
  C   C3014     1.0  0.69688  0.54740  0.80526  1.0000
  C   C3015     1.0  0.70420  0.53878  0.81867  1.0000
  C   C3016     1.0  0.71512  0.54534  0.82318  1.0000
  C   C3017     1.0  0.71838  0.56092  0.81478  1.0000
  C   C3018     1.0  0.71083  0.56981  0.80150  1.0000
  C   C3019     1.0  0.70031  0.56293  0.79657  1.0000
  H   H3002     1.0  0.70156  0.52685  0.82552  1.0000
  H   H3003     1.0  0.72095  0.53834  0.83338  1.0000
  H   H3004     1.0  0.71341  0.58176  0.79478  1.0000
  H   H3005     1.0  0.69458  0.56982  0.78633  1.0000
  C   C3020     1.0  0.73863  0.69898  0.52562  1.0000
  H   H3006     1.0  0.66135  0.71461  0.84213  1.0000
  C   C3021     1.0  0.94924  0.66958  0.82816  1.0000
  C   C3022     1.0  0.70416  0.71082  0.53036  1.0000
  C   C3023     1.0  0.71165  0.69649  0.52409  1.0000
  C   C3024     1.0  0.72889  0.69056  0.52174  1.0000
  H   H3007     1.0  0.79578  0.69035  0.51496  1.0000
  Fe  Fe520     1.0  0.66163  0.56787  0.74880  1.0000
  H   H3008     1.0  0.73460  0.67951  0.51695  1.0000
  H   H3009     1.0  0.70414  0.68998  0.52108  1.0000
  H   H3010     1.0  0.74738  0.69982  0.87326  1.0000
  C   C3025     1.0  0.72689  0.72701  0.86254  1.0000
  N   N248      1.0  0.72241  0.71377  0.87445  1.0000
  C   C3026     1.0  0.83435  0.64907  0.52983  1.0000
  C   C3027     1.0  0.82265  0.65836  0.54072  1.0000
  C   C3028     1.0  0.82787  0.66784  0.54862  1.0000
  C   C3029     1.0  0.84473  0.66822  0.54538  1.0000
  C   C3030     1.0  0.85625  0.65865  0.53478  1.0000
  C   C3031     1.0  0.85113  0.64904  0.52722  1.0000
  H   H3011     1.0  0.80965  0.65834  0.54295  1.0000
  H   H3012     1.0  0.81889  0.67515  0.55686  1.0000
  H   H3013     1.0  0.86927  0.65884  0.53221  1.0000
  N   N249      1.0  0.72257  0.51697  0.69730  1.0000
  C   C3032     1.0  0.73519  0.56048  0.67050  1.0000
  C   C3033     1.0  0.74811  0.55535  0.67891  1.0000
  C   C3034     1.0  0.74467  0.55459  0.69594  1.0000
  C   C3035     1.0  0.72833  0.55890  0.70462  1.0000
  C   C3036     1.0  0.71543  0.56443  0.69616  1.0000
  C   C3037     1.0  0.71888  0.56536  0.67907  1.0000
  H   H3014     1.0  0.76075  0.55204  0.67228  1.0000
  H   H3015     1.0  0.75461  0.55036  0.70251  1.0000
  H   H3016     1.0  0.70284  0.56821  0.70271  1.0000
  H   H3017     1.0  0.70888  0.56959  0.67255  1.0000
  C   C3038     1.0  0.82424  0.55114  0.66104  1.0000
  C   C3039     1.0  0.83033  0.55223  0.67416  1.0000
  C   C3040     1.0  0.83734  0.56564  0.67289  1.0000
  C   C3041     1.0  0.83882  0.57779  0.65827  1.0000
  C   C3042     1.0  0.83288  0.57664  0.64507  1.0000
  C   C3043     1.0  0.82538  0.56349  0.64653  1.0000
  H   H3018     1.0  0.82952  0.54271  0.68540  1.0000
  H   H3019     1.0  0.84195  0.56635  0.68309  1.0000
  H   H3020     1.0  0.83402  0.58599  0.63371  1.0000
  H   H3021     1.0  0.82077  0.56274  0.63635  1.0000
  C   C3044     1.0  0.79049  0.56719  0.57478  1.0000
  C   C3045     1.0  0.79675  0.57529  0.55863  1.0000
  C   C3046     1.0  0.78685  0.58937  0.55049  1.0000
  C   C3047     1.0  0.77051  0.59523  0.55833  1.0000
  C   C3048     1.0  0.76419  0.58705  0.57443  1.0000
  C   C3049     1.0  0.77420  0.57316  0.58270  1.0000
  H   H3022     1.0  0.80931  0.57070  0.55243  1.0000
  H   H3023     1.0  0.79180  0.59549  0.53804  1.0000
  H   H3024     1.0  0.75156  0.59148  0.58056  1.0000
  H   H3025     1.0  0.76928  0.56701  0.59516  1.0000
  H   H3026     1.0  0.68316  0.64238  0.85852  1.0000
  H   H3027     1.0  0.72745  0.59776  0.74685  1.0000
  C   C3050     1.0  0.79178  0.70821  0.53720  1.0000
  H   H3028     1.0  0.90599  0.66915  0.70584  1.0000
  C   C3051     1.0  0.97442  0.67699  0.78098  1.0000
  S   S1042     1.0  0.84161  0.72219  0.56936  1.0000
  H   H3029     1.0  0.83269  0.60041  0.53439  1.0000
  H   H3030     1.0  0.76845  0.71871  0.92130  1.0000
  H   H3031     1.0  0.96151  0.68300  0.78178  1.0000
  C   C3052     1.0  0.94102  0.67875  0.70774  1.0000
  H   H3032     1.0  0.72192  0.72450  0.91533  1.0000
  S   S1043     1.0  0.68343  0.56855  0.75788  1.0000
  H   H3033     1.0  0.94153  0.68004  0.83337  1.0000
  H   H3034     1.0  0.75697  0.49279  0.67863  1.0000
  H   H3035     1.0  0.72636  0.55323  0.75954  1.0000
  C   C3053     1.0  0.68109  0.68368  0.78968  1.0000
  H   H3036     1.0  0.90087  0.68314  0.67718  1.0000
  C   C3054     1.0  0.75715  0.72476  0.88518  1.0000
  H   H3037     1.0  0.68678  0.59881  0.81313  1.0000
  H   H3038     1.0  0.83551  0.57539  0.57432  1.0000
  H   H3039     1.0  0.81232  0.57532  0.59872  1.0000
  C   C3055     1.0  0.74083  0.54627  0.77801  1.0000
  C   C3056     1.0  0.75034  0.55152  0.78550  1.0000
  H   H3040     1.0  0.73830  0.53392  0.78251  1.0000
  H   H3041     1.0  0.75513  0.54335  0.79601  1.0000
  N   N250      1.0  0.79523  0.58078  0.68453  1.0000
  C   C3057     1.0  0.78952  0.56874  0.68153  1.0000
  C   C3058     1.0  0.79929  0.57875  0.69934  1.0000
  C   C3059     1.0  0.78851  0.55390  0.69323  1.0000
  C   C3060     1.0  0.79830  0.56410  0.71137  1.0000
  C   C3061     1.0  0.79299  0.55156  0.70820  1.0000
  C   C3062     1.0  0.79670  0.59612  0.67200  1.0000
  H   H3042     1.0  0.78640  0.57020  0.66977  1.0000
  H   H3043     1.0  0.80360  0.58834  0.70186  1.0000
  H   H3044     1.0  0.78487  0.54404  0.69038  1.0000
  H   H3045     1.0  0.80191  0.56245  0.72293  1.0000
  H   H3046     1.0  0.79256  0.53996  0.71722  1.0000
  H   H3047     1.0  0.80844  0.59973  0.67113  1.0000
  H   H3048     1.0  0.79718  0.59453  0.65950  1.0000
  H   H3049     1.0  0.78606  0.60630  0.67525  1.0000
  Fe  Fe521     1.0  0.67415  0.53112  0.74699  1.0000
  H   H3050     1.0  0.66122  0.72677  0.50808  1.0000
  C   C3063     1.0  0.71671  0.52644  0.68366  1.0000
  C   C3064     1.0  0.68370  0.67859  0.83076  1.0000
  C   C3065     1.0  0.92970  0.69670  0.68472  1.0000
  S   S1044     1.0  0.81326  0.72325  0.60401  1.0000
  C   C3066     1.0  0.90611  0.73019  0.70357  1.0000
  C   C3067     1.0  0.74555  0.50216  0.68000  1.0000
  H   H3051     1.0  0.95143  0.69898  0.69111  1.0000
  H   H3052     1.0  0.78083  0.71071  0.53168  1.0000
  H   H3053     1.0  0.71160  0.50808  0.72247  1.0000
  H   H3054     1.0  0.82745  0.64572  0.96891  1.0000
  C   C3068     1.0  0.67764  0.69567  0.82954  1.0000
  S   S1045     1.0  0.77833  0.48409  0.64790  1.0000
  C   C3069     1.0  0.80312  0.69135  0.96221  1.0000
  N   N251      1.0  0.84812  0.65086  0.82307  1.0000
  C   C3070     1.0  0.83768  0.66618  0.82176  1.0000
  C   C3071     1.0  0.84384  0.63788  0.83548  1.0000
  C   C3072     1.0  0.82261  0.66884  0.83320  1.0000
  C   C3073     1.0  0.82880  0.64009  0.84706  1.0000
  C   C3074     1.0  0.81816  0.65567  0.84585  1.0000
  C   C3075     1.0  0.86361  0.64810  0.81066  1.0000
  H   H3055     1.0  0.84114  0.67655  0.81210  1.0000
  H   H3056     1.0  0.85208  0.62574  0.83653  1.0000
  H   H3057     1.0  0.81463  0.68113  0.83255  1.0000
  H   H3058     1.0  0.82536  0.62985  0.85698  1.0000
  H   H3059     1.0  0.80651  0.65752  0.85477  1.0000
  H   H3060     1.0  0.87363  0.63928  0.81646  1.0000
  H   H3061     1.0  0.86174  0.64312  0.80087  1.0000
  H   H3062     1.0  0.86811  0.65978  0.80481  1.0000
  H   H3063     1.0  0.70162  0.52843  0.71367  1.0000
  H   H3064     1.0  0.78799  0.71887  0.65882  1.0000
  C   C3076     1.0  0.80718  0.69336  0.51513  1.0000
  H   H3065     1.0  0.84840  0.68507  0.49786  1.0000
  C   C3077     1.0  0.78446  0.72815  0.64823  1.0000
  C   C3078     1.0  0.98467  0.68344  0.78671  1.0000
  H   H3066     1.0  0.80946  0.62071  0.54913  1.0000
  C   C3079     1.0  0.66434  0.60352  0.79532  1.0000
  H   H3067     1.0  0.77733  0.71109  0.63883  1.0000
  C   C3080     1.0  0.83677  0.69040  0.50533  1.0000
  C   C3081     1.0  0.73967  0.51176  0.66603  1.0000
  S   S1046     1.0  0.85697  0.71633  0.61294  1.0000
  C   C3082     1.0  0.79676  0.61103  0.57370  1.0000
  H   H3068     1.0  0.67631  0.48626  0.71706  1.0000
  S   S1047     1.0  0.75082  0.69899  0.91144  1.0000
  H   H3069     1.0  0.73720  0.58234  0.73438  1.0000
  H   H3070     1.0  0.74653  0.50993  0.65380  1.0000
  S   S1048     1.0  0.67738  0.55500  0.72856  1.0000
  H   H3071     1.0  0.86025  0.64183  0.51895  1.0000
  H   H3072     1.0  0.92726  0.66017  0.72256  1.0000
  H   H3073     1.0  0.69236  0.67418  0.82026  1.0000
  H   H3074     1.0  0.86835  0.68248  0.63253  1.0000
  N   N252      1.0  0.67864  0.66756  0.84491  1.0000
  C   C3083     1.0  0.90403  0.69391  0.67943  1.0000
  C   C3084     1.0  0.91621  0.67544  0.70225  1.0000
  H   H3075     1.0  0.68064  0.58140  0.82817  1.0000
  N   N253      1.0  0.80718  0.70276  0.52564  1.0000
  C   C3085     1.0  0.96648  0.66675  0.82525  1.0000
  C   C3086     1.0  0.90971  0.72523  0.73608  1.0000
  H   H3076     1.0  0.93020  0.70729  0.67437  1.0000
  C   C3087     1.0  0.70652  0.71499  0.88365  1.0000
  H   H3077     1.0  0.97237  0.67508  0.82795  1.0000
  H   H3078     1.0  0.79284  0.61082  0.96815  1.0000
  H   H3079     1.0  0.76908  0.71689  0.88135  1.0000
  C   C3088     1.0  0.76880  0.73045  0.61101  1.0000
  C   C3089     1.0  0.72910  0.58457  0.74643  1.0000
  C   C3090     1.0  0.72519  0.52402  0.66783  1.0000
  H   H3080     1.0  0.73331  0.68975  0.86947  1.0000
  H   H3081     1.0  0.90780  0.70214  0.66724  1.0000
  S   S1049     1.0  0.68260  0.71807  0.53364  1.0000
  Fe  Fe522     1.0  0.81380  0.72874  0.57690  1.0000
  H   H3082     1.0  0.89279  0.70110  0.68646  1.0000
  H   H3083     1.0  0.70559  0.53617  0.68492  1.0000
  C   C3091     1.0  0.79750  0.62245  0.96415  1.0000
  H   H3084     1.0  0.94624  0.62245  0.82106  1.0000
  C   C3092     1.0  0.66742  0.67307  0.85803  1.0000
  C   C3093     1.0  0.73111  0.71336  0.53179  1.0000
  H   H3085     1.0  0.66369  0.56702  0.82253  1.0000
  C   C3094     1.0  0.82168  0.70600  0.52630  1.0000
  C   C3095     1.0  0.81176  0.58559  0.58807  1.0000
  N   N254      1.0  0.84366  0.59817  0.75547  1.0000
  C   C3096     1.0  0.82688  0.60165  0.76140  1.0000
  C   C3097     1.0  0.85280  0.60954  0.75375  1.0000
  C   C3098     1.0  0.81866  0.61725  0.76475  1.0000
  C   C3099     1.0  0.84500  0.62532  0.75687  1.0000
  C   C3100     1.0  0.82779  0.62922  0.76224  1.0000
  C   C3101     1.0  0.85196  0.58201  0.75134  1.0000
  H   H3086     1.0  0.81970  0.59245  0.76322  1.0000
  H   H3087     1.0  0.86615  0.60659  0.74950  1.0000
  H   H3088     1.0  0.80526  0.62013  0.76896  1.0000
  H   H3089     1.0  0.85228  0.63451  0.75481  1.0000
  H   H3090     1.0  0.82149  0.64150  0.76440  1.0000
  H   H3091     1.0  0.85530  0.57289  0.76246  1.0000
  H   H3092     1.0  0.84380  0.57737  0.74644  1.0000
  H   H3093     1.0  0.86340  0.58294  0.74144  1.0000
  N   N255      1.0  0.86120  0.65946  0.63662  1.0000
  C   C3102     1.0  0.84878  0.65271  0.63598  1.0000
  C   C3103     1.0  0.87688  0.64999  0.63650  1.0000
  C   C3104     1.0  0.85197  0.63615  0.63487  1.0000
  C   C3105     1.0  0.88054  0.63340  0.63528  1.0000
  C   C3106     1.0  0.86799  0.62649  0.63441  1.0000
  C   C3107     1.0  0.85752  0.67661  0.63853  1.0000
  H   H3094     1.0  0.83630  0.66011  0.63637  1.0000
  H   H3095     1.0  0.88662  0.65524  0.63740  1.0000
  H   H3096     1.0  0.84206  0.63073  0.63460  1.0000
  H   H3097     1.0  0.89295  0.62587  0.63524  1.0000
  H   H3098     1.0  0.87059  0.61358  0.63365  1.0000
  H   H3099     1.0  0.85389  0.67692  0.65188  1.0000
  C   C3108     1.0  0.74592  0.71885  0.89936  1.0000
  H   H3100     1.0  0.84727  0.68441  0.63247  1.0000
  H   H3101     1.0  0.97944  0.69426  0.79205  1.0000
  H   H3102     1.0  0.92854  0.66124  0.82637  1.0000
  H   H3103     1.0  0.73855  0.71987  0.53493  1.0000
  N   N256      1.0  0.72056  0.65445  0.55774  1.0000
  C   C3109     1.0  0.70708  0.66702  0.56080  1.0000
  C   C3110     1.0  0.73593  0.65560  0.55831  1.0000
  C   C3111     1.0  0.70883  0.68117  0.56464  1.0000
  C   C3112     1.0  0.73815  0.66963  0.56196  1.0000
  C   C3113     1.0  0.72448  0.68245  0.56519  1.0000
  C   C3114     1.0  0.71877  0.63964  0.55368  1.0000
  H   H3104     1.0  0.69492  0.66634  0.56004  1.0000
  H   H3105     1.0  0.74659  0.64568  0.55575  1.0000
  H   H3106     1.0  0.69822  0.69135  0.56655  1.0000
  H   H3107     1.0  0.75046  0.67077  0.56180  1.0000
  H   H3108     1.0  0.72610  0.69362  0.56756  1.0000
  H   H3109     1.0  0.72293  0.62838  0.56291  1.0000
  H   H3110     1.0  0.70577  0.64014  0.55353  1.0000
  H   H3111     1.0  0.72665  0.63822  0.54130  1.0000
  H   H3112     1.0  0.74789  0.59096  0.76302  1.0000
  H   H3113     1.0  0.82202  0.67913  0.49691  1.0000
  H   H3114     1.0  0.70293  0.70446  0.89299  1.0000
  H   H3115     1.0  0.84674  0.58623  0.54647  1.0000
  Fe  Fe523     1.0  0.84083  0.71451  0.59678  1.0000
  H   H3116     1.0  0.78566  0.62076  0.57317  1.0000
  H   H3117     1.0  0.95019  0.67513  0.71528  1.0000
  C   C3115     1.0  0.82057  0.65845  0.96703  1.0000
  H   H3118     1.0  0.71668  0.58254  0.74710  1.0000
  H   H3119     1.0  0.75987  0.57196  0.78618  1.0000
  C   C3116     1.0  0.82482  0.58565  0.57412  1.0000
  C   C3117     1.0  0.71392  0.51988  0.71380  1.0000
  H   H3120     1.0  0.82187  0.71276  0.53517  1.0000
  C   C3118     1.0  0.73684  0.50502  0.69563  1.0000
  C   C3119     1.0  0.83752  0.59820  0.54571  1.0000
  H   H3121     1.0  0.72137  0.52542  0.71862  1.0000
  H   H3122     1.0  0.68132  0.70435  0.81810  1.0000
  H   H3123     1.0  0.74161  0.49771  0.70643  1.0000
  N   N257      1.0  0.82385  0.59813  0.56033  1.0000
  H   H3124     1.0  0.84389  0.60833  0.54426  1.0000
  H   H3125     1.0  0.94947  0.63375  0.79974  1.0000
  N   N258      1.0  0.73635  0.57323  0.76000  1.0000
  C   C3120     1.0  0.81016  0.61084  0.56007  1.0000
  C   C3121     1.0  0.79758  0.59827  0.58775  1.0000
  H   H3126     1.0  0.78708  0.59792  0.59821  1.0000
  C   C3122     1.0  0.74592  0.57839  0.76709  1.0000
  N   N259      1.0  0.91715  0.68838  0.68880  1.0000
  N   N260      1.0  0.95166  0.64605  0.81701  1.0000
  S   S1050     1.0  0.67463  0.51119  0.73387  1.0000
  C   C3123     1.0  0.73446  0.69794  0.87689  1.0000
  C   C3124     1.0  0.69471  0.72987  0.88124  1.0000
  N   N261      1.0  0.66709  0.59115  0.80883  1.0000
  C   C3125     1.0  0.82196  0.68706  0.50481  1.0000
  H   H3127     1.0  0.81100  0.61971  0.95852  1.0000
  C   C3126     1.0  0.73058  0.72903  0.90431  1.0000
  C   C3127     1.0  0.68468  0.64974  0.84560  1.0000
  C   C3128     1.0  0.66643  0.70141  0.84297  1.0000
  H   H3128     1.0  0.66868  0.61486  0.79297  1.0000
  H   H3129     1.0  0.84819  0.70206  0.51711  1.0000
  H   H3130     1.0  0.79649  0.70416  0.96019  1.0000
  C   C3129     1.0  0.94176  0.69207  0.69415  1.0000
  C   C3130     1.0  0.92819  0.67034  0.71181  1.0000
  H   H3131     1.0  0.73949  0.72611  0.85528  1.0000
  C   C3131     1.0  0.66137  0.57697  0.81196  1.0000
  C   C3132     1.0  0.77848  0.72379  0.63683  1.0000
  C   C3133     1.0  0.71390  0.71920  0.53426  1.0000
  S   S1051     1.0  0.65982  0.71340  0.79295  1.0000
  C   C3134     1.0  0.66129  0.69006  0.85732  1.0000
  H   H3132     1.0  0.66307  0.66434  0.86910  1.0000
  H   H3133     1.0  0.79034  0.69840  0.54867  1.0000
  C   C3135     1.0  0.66805  0.48365  0.72900  1.0000
  C   C3136     1.0  0.66484  0.49407  0.74008  1.0000
  C   C3137     1.0  0.65603  0.60168  0.78428  1.0000
  H   H3134     1.0  0.78337  0.48684  0.61235  1.0000
  C   C3138     1.0  0.65688  0.66533  0.80694  1.0000
  S   S1052     1.0  0.65648  0.54429  0.76666  1.0000
  C   C3139     1.0  0.65987  0.72986  0.48269  1.0000
  H   H3135     1.0  0.70818  0.73003  0.53951  1.0000
  C   C3140     1.0  0.66665  0.73113  0.49514  1.0000
  H   H3136     1.0  0.72446  0.64948  0.48151  1.0000
  H   H3137     1.0  0.73861  0.63100  0.47569  1.0000
  H   H3138     1.0  0.74666  0.64671  0.47864  1.0000
  H   H3139     1.0  0.68214  0.73085  0.88862  1.0000
  C   C3141     1.0  0.73670  0.64465  0.47398  1.0000
  C   C3142     1.0  0.80704  0.88471  0.25666  1.0000
  C   C3143     1.0  0.91189  0.77387  0.13253  1.0000
  Fe  Fe524     1.0  0.90895  0.79948  0.20386  1.0000
  S   S1053     1.0  0.89989  0.81467  0.18110  1.0000
  S   S1054     1.0  0.89247  0.78893  0.22736  1.0000
  Fe  Fe525     1.0  0.94453  0.80321  0.18938  1.0000
  S   S1055     1.0  0.93862  0.81888  0.16540  1.0000
  S   S1056     1.0  0.97045  0.79226  0.19364  1.0000
  Fe  Fe526     1.0  0.91568  0.83158  0.18107  1.0000
  S   S1057     1.0  0.90765  0.85942  0.17453  1.0000
  Fe  Fe527     1.0  0.92337  0.80075  0.16746  1.0000
  S   S1058     1.0  0.92570  0.79183  0.14460  1.0000
  S   S1059     1.0  0.92301  0.81750  0.20500  1.0000
  S   S1060     1.0  0.93101  0.78392  0.19022  1.0000
  Fe  Fe528     1.0  0.78386  0.93572  0.18626  1.0000
  S   S1061     1.0  0.78833  0.95394  0.19788  1.0000
  S   S1062     1.0  0.76044  0.94226  0.17677  1.0000
  Fe  Fe529     1.0  0.81763  0.91336  0.18801  1.0000
  S   S1063     1.0  0.82537  0.92991  0.19933  1.0000
  S   S1064     1.0  0.83045  0.88725  0.18525  1.0000
  Fe  Fe530     1.0  0.79966  0.93194  0.21514  1.0000
  S   S1065     1.0  0.79696  0.93360  0.24130  1.0000
  Fe  Fe531     1.0  0.81348  0.95087  0.18120  1.0000
  C   C3144     1.0  0.66595  0.85998  0.13549  1.0000
  S   S1066     1.0  0.79265  0.91382  0.20536  1.0000
  S   S1067     1.0  0.80825  0.93414  0.16809  1.0000
  N   N262      1.0  0.93934  0.78654  0.23710  1.0000
  Fe  Fe532     1.0  0.70047  0.82211  0.04080  1.0000
  S   S1068     1.0  0.71062  0.79615  0.05332  1.0000
  S   S1069     1.0  0.69000  0.84215  0.05583  1.0000
  S   S1070     1.0  0.71549  0.78562  0.01783  1.0000
  Fe  Fe533     1.0  0.69550  0.78852  0.04053  1.0000
  S   S1071     1.0  0.68312  0.76709  0.05342  1.0000
  Fe  Fe534     1.0  0.72972  0.79545  0.02973  1.0000
  S   S1072     1.0  0.68347  0.81450  0.02969  1.0000
  Fe  Fe535     1.0  0.72114  0.92262  0.10700  1.0000
  S   S1073     1.0  0.74147  0.89975  0.10878  1.0000
  Fe  Fe536     1.0  0.69481  0.90310  0.12635  1.0000
  S   S1074     1.0  0.71306  0.87886  0.13053  1.0000
  Fe  Fe537     1.0  0.72833  0.89383  0.13530  1.0000
  S   S1075     1.0  0.74350  0.88533  0.15493  1.0000
  Fe  Fe538     1.0  0.72440  0.88695  0.10362  1.0000
  S   S1076     1.0  0.73444  0.86785  0.08759  1.0000
  S   S1077     1.0  0.70874  0.91722  0.13381  1.0000
  S   S1078     1.0  0.70528  0.91052  0.09913  1.0000
  N   N263      1.0  0.80101  0.87162  0.25643  1.0000
  H   H3140     1.0  0.80103  0.85453  0.24255  1.0000
  H   H3141     1.0  0.73864  0.86219  0.18812  1.0000
  Fe  Fe539     1.0  0.73298  0.83946  0.30876  1.0000
  S   S1079     1.0  0.73291  0.83403  0.28489  1.0000
  Fe  Fe540     1.0  0.74168  0.87305  0.29211  1.0000
  S   S1080     1.0  0.74226  0.87060  0.26675  1.0000
  S   S1081     1.0  0.74839  0.89414  0.29755  1.0000
  Fe  Fe541     1.0  0.71947  0.86052  0.27909  1.0000
  Fe  Fe542     1.0  0.75568  0.84456  0.27485  1.0000
  S   S1082     1.0  0.77832  0.83316  0.25819  1.0000
  S   S1083     1.0  0.71741  0.86525  0.30401  1.0000
  S   S1084     1.0  0.75708  0.84767  0.29927  1.0000
  H   H3142     1.0  0.80293  0.89031  0.26737  1.0000
  C   C3145     1.0  0.69363  0.85095  0.34865  1.0000
  H   H3143     1.0  0.79361  0.85146  0.27520  1.0000
  C   C3146     1.0  0.77538  0.80631  0.28376  1.0000
  C   C3147     1.0  0.78454  0.81256  0.26821  1.0000
  S   S1085     1.0  0.75614  0.78273  0.03043  1.0000
  H   H3144     1.0  0.67667  0.79119  0.07334  1.0000
  H   H3145     1.0  0.76504  0.81435  0.29006  1.0000
  Fe  Fe543     1.0  0.68604  0.79990  0.18958  1.0000
  Fe  Fe544     1.0  0.70493  0.81223  0.00774  1.0000
  H   H3146     1.0  0.77715  0.86660  0.26688  1.0000
  C   C3148     1.0  0.86531  0.75186  0.22322  1.0000
  C   C3149     1.0  0.68991  0.79777  0.97651  1.0000
  H   H3147     1.0  0.69093  0.88732  0.20988  1.0000
  H   H3148     1.0  0.97696  0.75989  0.14131  1.0000
  C   C3150     1.0  0.92777  0.73849  0.16305  1.0000
  H   H3149     1.0  0.76197  0.75292  0.19807  1.0000
  H   H3150     1.0  0.83093  0.97425  0.25315  1.0000
  S   S1086     1.0  0.69863  0.86713  0.26615  1.0000
  H   H3151     1.0  0.67518  0.93645  0.11135  1.0000
  C   C3151     1.0  0.70256  0.84918  0.06453  1.0000
  C   C3152     1.0  0.71950  0.84222  0.06308  1.0000
  C   C3153     1.0  0.72910  0.84814  0.07012  1.0000
  C   C3154     1.0  0.72190  0.86107  0.07864  1.0000
  C   C3155     1.0  0.70494  0.86798  0.08018  1.0000
  C   C3156     1.0  0.69531  0.86201  0.07320  1.0000
  H   H3152     1.0  0.72525  0.83237  0.05641  1.0000
  H   H3153     1.0  0.74222  0.84272  0.06886  1.0000
  H   H3154     1.0  0.69928  0.87808  0.08651  1.0000
  H   H3155     1.0  0.68223  0.86752  0.07430  1.0000
  C   C3157     1.0  0.81144  0.97250  0.23122  1.0000
  C   C3158     1.0  0.74304  0.75535  0.04639  1.0000
  C   C3159     1.0  0.93912  0.77146  0.23241  1.0000
  H   H3156     1.0  0.73107  0.76332  0.04532  1.0000
  H   H3157     1.0  0.76119  0.94625  0.09549  1.0000
  C   C3160     1.0  0.75506  0.92612  0.17194  1.0000
  C   C3161     1.0  0.74319  0.93011  0.16235  1.0000
  C   C3162     1.0  0.73961  0.91767  0.15710  1.0000
  C   C3163     1.0  0.74750  0.90110  0.16177  1.0000
  C   C3164     1.0  0.75914  0.89705  0.17168  1.0000
  C   C3165     1.0  0.76302  0.90955  0.17666  1.0000
  H   H3158     1.0  0.73706  0.94291  0.15858  1.0000
  H   H3159     1.0  0.73079  0.92101  0.14938  1.0000
  H   H3160     1.0  0.76538  0.88426  0.17527  1.0000
  H   H3161     1.0  0.77223  0.90639  0.18403  1.0000
  C   C3166     1.0  0.73197  0.97668  0.09802  1.0000
  C   C3167     1.0  0.95414  0.79082  0.23481  1.0000
  H   H3162     1.0  0.88302  0.75011  0.20020  1.0000
  H   H3163     1.0  0.85198  0.74524  0.18213  1.0000
  C   C3168     1.0  0.67000  0.74100  0.19012  1.0000
  H   H3164     1.0  0.68601  0.74756  0.44944  1.0000
  H   H3165     1.0  0.70313  0.80467  0.25565  1.0000
  H   H3166     1.0  0.70296  0.89459  0.22922  1.0000
  C   C3169     1.0  0.66455  0.78324  0.47122  1.0000
  H   H3167     1.0  0.84479  0.96158  0.18903  1.0000
  C   C3170     1.0  0.78266  0.92320  0.25640  1.0000
  C   C3171     1.0  0.77381  0.91400  0.25231  1.0000
  C   C3172     1.0  0.76319  0.90502  0.26485  1.0000
  C   C3173     1.0  0.76128  0.90539  0.28143  1.0000
  C   C3174     1.0  0.76995  0.91483  0.28540  1.0000
  C   C3175     1.0  0.78067  0.92362  0.27295  1.0000
  H   H3168     1.0  0.77517  0.91372  0.23956  1.0000
  H   H3169     1.0  0.75628  0.89810  0.26163  1.0000
  H   H3170     1.0  0.76846  0.91522  0.29819  1.0000
  H   H3171     1.0  0.78746  0.93072  0.27618  1.0000
  C   C3176     1.0  0.91108  0.78041  0.14600  1.0000
  C   C3177     1.0  0.89884  0.77758  0.16039  1.0000
  C   C3178     1.0  0.88767  0.76789  0.16139  1.0000
  H   H3172     1.0  0.82089  0.86589  0.21794  1.0000
  H   H3173     1.0  0.89805  0.78269  0.17080  1.0000
  H   H3174     1.0  0.87827  0.76563  0.17256  1.0000
  S   S1087     1.0  0.71927  0.82516  0.21132  1.0000
  C   C3179     1.0  0.78894  0.86494  0.27064  1.0000
  H   H3175     1.0  0.89749  0.77071  0.20200  1.0000
  C   C3180     1.0  0.88622  0.86760  0.17988  1.0000
  C   C3181     1.0  0.87996  0.88461  0.17460  1.0000
  C   C3182     1.0  0.86276  0.89103  0.17703  1.0000
  C   C3183     1.0  0.85182  0.88037  0.18453  1.0000
  C   C3184     1.0  0.85807  0.86349  0.19036  1.0000
  C   C3185     1.0  0.87522  0.85714  0.18817  1.0000
  H   H3176     1.0  0.88844  0.89277  0.16821  1.0000
  H   H3177     1.0  0.85801  0.90408  0.17246  1.0000
  H   H3178     1.0  0.84965  0.85519  0.19627  1.0000
  H   H3179     1.0  0.87989  0.84408  0.19258  1.0000
  H   H3180     1.0  0.65746  0.76703  0.21398  1.0000
  C   C3186     1.0  0.93993  0.81520  0.24579  1.0000
  C   C3187     1.0  0.74324  0.78752  0.24038  1.0000
  C   C3188     1.0  0.84298  0.73777  0.18408  1.0000
  C   C3189     1.0  0.70380  0.83083  0.37197  1.0000
  H   H3181     1.0  0.70249  0.83767  0.38163  1.0000
  C   C3190     1.0  0.96595  0.73451  0.09120  1.0000
  H   H3182     1.0  0.72008  0.78846  0.23459  1.0000
  H   H3183     1.0  0.96387  0.82594  0.19897  1.0000
  S   S1088     1.0  0.65987  0.80400  0.20406  1.0000
  C   C3191     1.0  0.69247  0.79640  0.35639  1.0000
  H   H3184     1.0  0.66442  0.74707  0.23791  1.0000
  H   H3185     1.0  0.78676  0.77013  0.00656  1.0000
  C   C3192     1.0  0.66671  0.86869  0.17524  1.0000
  C   C3193     1.0  0.67339  0.77986  0.08126  1.0000
  S   S1089     1.0  0.65949  0.80217  0.35626  1.0000
  N   N264      1.0  0.69256  0.84175  0.12945  1.0000
  C   C3194     1.0  0.70423  0.88383  0.20886  1.0000
  H   H3186     1.0  0.70123  0.76187  0.45900  1.0000
  S   S1090     1.0  0.66347  0.77869  0.24974  1.0000
  H   H3187     1.0  0.96243  0.77462  0.12967  1.0000
  H   H3188     1.0  0.73837  0.83235  0.22992  1.0000
  C   C3195     1.0  0.66992  0.78587  0.45391  1.0000
  H   H3189     1.0  0.73037  0.84884  0.25142  1.0000
  H   H3190     1.0  0.91337  0.81810  0.25380  1.0000
  Fe  Fe545     1.0  0.80522  0.74433  0.27008  1.0000
  C   C3196     1.0  0.74159  0.80090  0.26169  1.0000
  Fe  Fe546     1.0  0.65750  0.77970  0.37701  1.0000
  C   C3197     1.0  0.88708  0.76757  0.21172  1.0000
  C   C3198     1.0  0.86848  0.77068  0.23803  1.0000
  H   H3191     1.0  0.70109  0.83102  0.31724  1.0000
  C   C3199     1.0  0.79824  0.80213  0.26042  1.0000
  H   H3192     1.0  0.68554  0.75409  0.14019  1.0000
  H   H3193     1.0  0.78385  0.75642  0.03766  1.0000
  C   C3200     1.0  0.77942  0.78947  0.29117  1.0000
  H   H3194     1.0  0.71635  0.83053  0.36372  1.0000
  H   H3195     1.0  0.77377  0.79926  0.24471  1.0000
  H   H3196     1.0  0.78171  0.89020  0.14016  1.0000
  C   C3201     1.0  0.67984  0.80505  0.34796  1.0000
  H   H3197     1.0  0.71609  0.94742  0.12913  1.0000
  H   H3198     1.0  0.66626  0.78284  0.43113  1.0000
  C   C3202     1.0  0.88195  0.77487  0.22546  1.0000
  C   C3203     1.0  0.84055  0.97470  0.18885  1.0000
  H   H3199     1.0  0.77497  0.78121  0.23739  1.0000
  C   C3204     1.0  0.81715  0.87117  0.22884  1.0000
  C   C3205     1.0  0.72103  0.84790  0.24576  1.0000
  C   C3206     1.0  0.71096  0.88804  0.21979  1.0000
  H   H3200     1.0  0.76339  0.96160  0.11510  1.0000
  H   H3201     1.0  0.70435  0.85742  0.19212  1.0000
  C   C3207     1.0  0.69879  0.82124  0.32804  1.0000
  H   H3202     1.0  0.65639  0.86001  0.33799  1.0000
  C   C3208     1.0  0.88894  0.76077  0.14816  1.0000
  C   C3209     1.0  0.72003  0.95881  0.12287  1.0000
  H   H3203     1.0  0.71201  0.96875  0.14483  1.0000
  C   C3210     1.0  0.70688  0.87002  0.18653  1.0000
  C   C3211     1.0  0.81824  0.89139  0.24292  1.0000
  H   H3204     1.0  0.82266  0.90204  0.24300  1.0000
  H   H3205     1.0  0.83192  0.88967  0.21814  1.0000
  C   C3212     1.0  0.73800  0.87375  0.20752  1.0000
  C   C3213     1.0  0.72796  0.88301  0.21905  1.0000
  S   S1091     1.0  0.72957  0.82014  0.33232  1.0000
  H   H3206     1.0  0.75118  0.86950  0.20705  1.0000
  H   H3207     1.0  0.73325  0.88587  0.22773  1.0000
  N   N265      1.0  0.77660  0.91377  0.12363  1.0000
  C   C3214     1.0  0.77069  0.92229  0.10976  1.0000
  C   C3215     1.0  0.77880  0.92213  0.13399  1.0000
  C   C3216     1.0  0.76608  0.93960  0.10640  1.0000
  C   C3217     1.0  0.77409  0.93945  0.13114  1.0000
  C   C3218     1.0  0.76749  0.94820  0.11734  1.0000
  C   C3219     1.0  0.78115  0.89560  0.12697  1.0000
  H   H3208     1.0  0.76936  0.91573  0.10127  1.0000
  H   H3209     1.0  0.84229  0.96620  0.23487  1.0000
  C   C3220     1.0  0.67169  0.94926  0.13070  1.0000
  H   H3210     1.0  0.77519  0.94590  0.13985  1.0000
  C   C3221     1.0  0.66422  0.75083  0.10178  1.0000
  C   C3222     1.0  0.75793  0.75924  0.00334  1.0000
  H   H3211     1.0  0.83091  0.75974  0.20355  1.0000
  C   C3223     1.0  0.69607  0.77519  0.12629  1.0000
  Fe  Fe547     1.0  0.69722  0.81728  0.20924  1.0000
  H   H3212     1.0  0.85821  0.97514  0.20222  1.0000
  H   H3213     1.0  0.71311  0.74234  0.46859  1.0000
  C   C3224     1.0  0.96759  0.76124  0.13410  1.0000
  N   N266      1.0  0.71420  0.87493  0.19744  1.0000
  H   H3214     1.0  0.86446  0.77632  0.24867  1.0000
  C   C3225     1.0  0.73084  0.86968  0.19684  1.0000
  H   H3215     1.0  0.71759  0.79430  0.35792  1.0000
  S   S1092     1.0  0.66726  0.90691  0.13527  1.0000
  C   C3226     1.0  0.71319  0.74979  0.08685  1.0000
  C   C3227     1.0  0.66593  0.85431  0.34507  1.0000
  H   H3216     1.0  0.71545  0.86980  0.17424  1.0000
  C   C3228     1.0  0.70805  0.80055  0.35098  1.0000
  C   C3229     1.0  0.66310  0.84209  0.35940  1.0000
  C   C3230     1.0  0.82333  0.88453  0.22895  1.0000
  N   N267      1.0  0.89323  0.83779  0.14238  1.0000
  C   C3231     1.0  0.89007  0.82387  0.14018  1.0000
  C   C3232     1.0  0.88082  0.84872  0.15018  1.0000
  C   C3233     1.0  0.87446  0.82000  0.14685  1.0000
  C   C3234     1.0  0.86495  0.84543  0.15673  1.0000
  C   C3235     1.0  0.86185  0.83083  0.15526  1.0000
  C   C3236     1.0  0.90981  0.84139  0.13574  1.0000
  H   H3217     1.0  0.89969  0.81556  0.13339  1.0000
  H   H3218     1.0  0.88321  0.85999  0.15155  1.0000
  H   H3219     1.0  0.87224  0.80861  0.14555  1.0000
  H   H3220     1.0  0.85517  0.85407  0.16304  1.0000
  H   H3221     1.0  0.84969  0.82797  0.16059  1.0000
  H   H3222     1.0  0.91950  0.82977  0.13519  1.0000
  H   H3223     1.0  0.91052  0.84939  0.12313  1.0000
  H   H3224     1.0  0.91277  0.84781  0.14382  1.0000
  C   C3237     1.0  0.75734  0.76186  0.04057  1.0000
  S   S1093     1.0  0.72763  0.94760  0.09399  1.0000
  H   H3225     1.0  0.78608  0.87129  0.28106  1.0000
  H   H3226     1.0  0.67548  0.85988  0.18192  1.0000
  C   C3238     1.0  0.95466  0.80526  0.23900  1.0000
  C   C3239     1.0  0.66052  0.84755  0.14857  1.0000
  H   H3227     1.0  0.79584  0.73444  0.00265  1.0000
  C   C3240     1.0  0.71366  0.83762  0.22585  1.0000
  H   H3228     1.0  0.70314  0.81771  0.37787  1.0000
  H   H3229     1.0  0.95399  0.76020  0.16601  1.0000
  H   H3230     1.0  0.65649  0.75060  0.17064  1.0000
  C   C3241     1.0  0.78476  0.76730  0.99551  1.0000
  C   C3242     1.0  0.71108  0.81326  0.33707  1.0000
  H   H3231     1.0  0.66712  0.82239  0.16205  1.0000
  H   H3232     1.0  0.66803  0.77553  0.15907  1.0000
  C   C3243     1.0  0.80591  0.86484  0.24276  1.0000
  H   H3233     1.0  0.77207  0.78467  0.30303  1.0000
  H   H3234     1.0  0.68825  0.84635  0.22358  1.0000
  C   C3244     1.0  0.67118  0.83213  0.15185  1.0000
  S   S1094     1.0  0.72097  0.82209  0.01794  1.0000
  C   C3245     1.0  0.77279  0.75140  0.04192  1.0000
  H   H3235     1.0  0.67995  0.86184  0.24590  1.0000
  C   C3246     1.0  0.71773  0.97098  0.13177  1.0000
  C   C3247     1.0  0.76889  0.78782  0.24765  1.0000
  S   S1095     1.0  0.67146  0.77020  0.39748  1.0000
  N   N268      1.0  0.95415  0.75300  0.14419  1.0000
  C   C3248     1.0  0.66078  0.76505  0.10811  1.0000
  H   H3236     1.0  0.70636  0.73996  0.08859  1.0000
  H   H3237     1.0  0.90201  0.75851  0.12338  1.0000
  H   H3238     1.0  0.91315  0.79240  0.24633  1.0000
  C   C3249     1.0  0.91188  0.74595  0.05934  1.0000
  Fe  Fe548     1.0  0.67483  0.74561  0.39133  1.0000
  H   H3239     1.0  0.71768  0.82792  0.12525  1.0000
  S   S1096     1.0  0.70435  0.82123  0.98037  1.0000
  H   H3240     1.0  0.69667  0.76039  0.19646  1.0000
  Fe  Fe549     1.0  0.67126  0.79672  0.22616  1.0000
  H   H3241     1.0  0.94014  0.82656  0.24886  1.0000
  H   H3242     1.0  0.80276  0.73755  0.20007  1.0000
  S   S1097     1.0  0.77602  0.75201  0.22513  1.0000
  H   H3243     1.0  0.79065  0.96922  0.22404  1.0000
  C   C3250     1.0  0.67211  0.88097  0.16176  1.0000
  C   C3251     1.0  0.72599  0.79175  0.24249  1.0000
  C   C3252     1.0  0.69731  0.84628  0.23008  1.0000
  C   C3253     1.0  0.93517  0.74651  0.17019  1.0000
  C   C3254     1.0  0.94665  0.74559  0.13701  1.0000
  C   C3255     1.0  0.79262  0.77886  0.28303  1.0000
  N   N269      1.0  0.75081  0.79213  0.24992  1.0000
  N   N270      1.0  0.82690  0.74275  0.19194  1.0000
  H   H3244     1.0  0.74766  0.80465  0.26911  1.0000
  H   H3245     1.0  0.92127  0.77613  0.12133  1.0000
  H   H3246     1.0  0.69513  0.87884  0.18441  1.0000
  C   C3256     1.0  0.68082  0.74272  0.46231  1.0000
  H   H3247     1.0  0.80955  0.75957  0.20616  1.0000
  C   C3257     1.0  0.72669  0.96177  0.10587  1.0000
  S   S1098     1.0  0.69739  0.79053  0.21172  1.0000
  H   H3248     1.0  0.77247  0.77961  0.25913  1.0000
  S   S1099     1.0  0.82045  0.97553  0.16852  1.0000
  S   S1100     1.0  0.79594  0.75746  0.29109  1.0000
  H   H3249     1.0  0.69007  0.78695  0.36742  1.0000
  H   H3250     1.0  0.69174  0.78167  0.13637  1.0000
  S   S1101     1.0  0.67195  0.82268  0.22567  1.0000
  C   C3258     1.0  0.72429  0.80539  0.26408  1.0000
  H   H3251     1.0  0.71700  0.81274  0.27309  1.0000
  H   H3252     1.0  0.97428  0.75561  0.12324  1.0000
  C   C3259     1.0  0.68125  0.85886  0.33967  1.0000
  H   H3253     1.0  0.87192  0.75272  0.05619  1.0000
  C   C3260     1.0  0.67588  0.76598  0.07468  1.0000
  C   C3261     1.0  0.68725  0.82941  0.14209  1.0000
  H   H3254     1.0  0.68626  0.86662  0.11592  1.0000
  C   C3262     1.0  0.79705  0.97809  0.22496  1.0000
  C   C3263     1.0  0.80232  0.78529  0.26788  1.0000
  C   C3264     1.0  0.74358  0.75244  0.34028  1.0000
  C   C3265     1.0  0.83447  0.97738  0.23944  1.0000
  H   H3255     1.0  0.73082  0.97610  0.18455  1.0000
  C   C3266     1.0  0.87888  0.75594  0.21071  1.0000
  N   N271      1.0  0.70699  0.75861  0.10043  1.0000
  H   H3256     1.0  0.80555  0.80700  0.24853  1.0000
  H   H3257     1.0  0.76228  0.75992  0.31886  1.0000
  H   H3258     1.0  0.71494  0.84953  0.11608  1.0000
  H   H3259     1.0  0.68506  0.88140  0.15798  1.0000
  C   C3267     1.0  0.68315  0.81716  0.33353  1.0000
  H   H3260     1.0  0.75049  0.78071  0.23092  1.0000
  H   H3261     1.0  0.68043  0.79157  0.44786  1.0000
  H   H3262     1.0  0.66163  0.73507  0.45636  1.0000
  S   S1102     1.0  0.88946  0.74258  0.10334  1.0000
  H   H3263     1.0  0.72659  0.74406  0.08596  1.0000
  C   C3268     1.0  0.71648  0.80083  0.25433  1.0000
  C   C3269     1.0  0.82174  0.75857  0.19724  1.0000
  C   C3270     1.0  0.90099  0.76389  0.13368  1.0000
  N   N272      1.0  0.77484  0.75460  0.00084  1.0000
  S   S1103     1.0  0.87568  0.74771  0.15001  1.0000
  C   C3271     1.0  0.92488  0.79592  0.24425  1.0000
  C   C3272     1.0  0.86005  0.75931  0.23685  1.0000
  H   H3264     1.0  0.66175  0.83231  0.97642  1.0000
  C   C3273     1.0  0.68791  0.75818  0.19082  1.0000
  H   H3265     1.0  0.77161  0.89053  0.12464  1.0000
  H   H3266     1.0  0.68810  0.95751  0.08949  1.0000
  H   H3267     1.0  0.84960  0.75622  0.24656  1.0000
  H   H3268     1.0  0.66630  0.93986  0.14036  1.0000
  H   H3269     1.0  0.81304  0.77729  0.26197  1.0000
  C   C3274     1.0  0.68068  0.97520  0.12183  1.0000
  S   S1104     1.0  0.69118  0.78750  0.16855  1.0000
  C   C3275     1.0  0.68338  0.76944  0.17677  1.0000
  H   H3270     1.0  0.92775  0.73208  0.14057  1.0000
  C   C3276     1.0  0.66071  0.89254  0.15317  1.0000
  H   H3271     1.0  0.71764  0.77930  0.08649  1.0000
  H   H3272     1.0  0.72686  0.74113  0.36126  1.0000
  H   H3273     1.0  0.79334  0.89140  0.11900  1.0000
  S   S1105     1.0  0.80991  0.75694  0.24319  1.0000
  Fe  Fe550     1.0  0.79475  0.74070  0.24091  1.0000
  H   H3274     1.0  0.68649  0.79443  0.98987  1.0000
  H   H3275     1.0  0.81606  0.95924  0.23499  1.0000
  S   S1106     1.0  0.68849  0.82599  0.18552  1.0000
  H   H3276     1.0  0.73478  0.75108  0.01192  1.0000
  C   C3277     1.0  0.71054  0.77375  0.09824  1.0000
  C   C3278     1.0  0.70926  0.83862  0.11901  1.0000
  H   H3277     1.0  0.65779  0.87207  0.13288  1.0000
  C   C3279     1.0  0.66566  0.77945  0.09793  1.0000
  C   C3280     1.0  0.67202  0.76662  0.16959  1.0000
  H   H3278     1.0  0.68366  0.86818  0.32842  1.0000
  H   H3279     1.0  0.96565  0.78324  0.22937  1.0000
  C   C3281     1.0  0.75732  0.74963  0.32739  1.0000
  N   N273      1.0  0.69081  0.83881  0.36256  1.0000
  C   C3282     1.0  0.72562  0.83876  0.23341  1.0000
  C   C3283     1.0  0.89568  0.75448  0.05857  1.0000
  H   H3280     1.0  0.67344  0.82381  0.32691  1.0000
  H   H3281     1.0  0.67353  0.82468  0.37897  1.0000
  C   C3284     1.0  0.69268  0.85533  0.24250  1.0000
  C   C3285     1.0  0.67373  0.96326  0.13450  1.0000
  C   C3286     1.0  0.66189  0.78098  0.44440  1.0000
  C   C3287     1.0  0.70449  0.85596  0.25052  1.0000
  Fe  Fe551     1.0  0.66317  0.82953  0.20199  1.0000
  C   C3288     1.0  0.76472  0.73346  0.32545  1.0000
  H   H3282     1.0  0.82075  0.76900  0.18634  1.0000
  H   H3283     1.0  0.69549  0.73943  0.11720  1.0000
  C   C3289     1.0  0.94847  0.75370  0.16052  1.0000
  H   H3284     1.0  0.94854  0.76977  0.22084  1.0000
  H   H3285     1.0  0.78380  0.91544  0.14482  1.0000
  C   C3290     1.0  0.70504  0.78232  0.11107  1.0000
  H   H3286     1.0  0.77833  0.77902  0.98839  1.0000
  N   N274      1.0  0.68577  0.97305  0.10589  1.0000
  H   H3287     1.0  0.92688  0.77214  0.22996  1.0000
  C   C3291     1.0  0.67673  0.94730  0.11440  1.0000
  C   C3292     1.0  0.92493  0.81047  0.24856  1.0000
  H   H3288     1.0  0.79695  0.76308  0.98751  1.0000
  H   H3289     1.0  0.75185  0.77228  0.00119  1.0000
  S   S1107     1.0  0.85531  0.73721  0.22171  1.0000
  H   H3290     1.0  0.70772  0.79441  0.10923  1.0000
  C   C3293     1.0  0.67162  0.75136  0.08501  1.0000
  H   H3291     1.0  0.69548  0.81742  0.14484  1.0000
  C   C3294     1.0  0.68210  0.85685  0.12599  1.0000
  H   H3292     1.0  0.95053  0.74581  0.12389  1.0000
  C   C3295     1.0  0.69836  0.75143  0.11538  1.0000
  H   H3293     1.0  0.70868  0.83618  0.10719  1.0000
  C   C3296     1.0  0.67572  0.83448  0.36809  1.0000
  H   H3294     1.0  0.66313  0.79041  0.10287  1.0000
  H   H3295     1.0  0.72835  0.97512  0.16501  1.0000
  C   C3297     1.0  0.68389  0.95932  0.10208  1.0000
  H   H3296     1.0  0.98180  0.84061  0.20544  1.0000
  C   C3298     1.0  0.66537  0.75246  0.17624  1.0000
  H   H3297     1.0  0.70566  0.85425  0.34414  1.0000
  H   H3298     1.0  0.67367  0.74056  0.07996  1.0000
  C   C3299     1.0  0.69270  0.75965  0.12848  1.0000
  H   H3299     1.0  0.73765  0.76502  0.34178  1.0000
  H   H3300     1.0  0.89158  0.76726  0.05992  1.0000
  H   H3301     1.0  0.96613  0.74337  0.07950  1.0000
  H   H3302     1.0  0.98598  0.81644  0.15593  1.0000
  S   S1108     1.0  0.66292  0.75546  0.36944  1.0000
  H   H3303     1.0  0.94175  0.76050  0.24248  1.0000
  H   H3304     1.0  0.73724  0.97905  0.08486  1.0000
  C   C3300     1.0  0.88469  0.74637  0.05641  1.0000
  C   C3301     1.0  0.97635  0.81966  0.20028  1.0000
  C   C3302     1.0  0.66708  0.73553  0.46615  1.0000
  C   C3303     1.0  0.68134  0.74386  0.19741  1.0000
  C   C3304     1.0  0.73759  0.73891  0.35125  1.0000
  C   C3305     1.0  0.74820  0.74731  0.00949  1.0000
  H   H3305     1.0  0.66059  0.73964  0.10964  1.0000
  H   H3306     1.0  0.66996  0.96484  0.14716  1.0000
  H   H3307     1.0  0.92051  0.75203  0.06126  1.0000
  C   C3306     1.0  0.74425  0.73834  0.05313  1.0000
  C   C3307     1.0  0.76606  0.74010  0.20397  1.0000
  H   H3308     1.0  0.71149  0.75847  0.07490  1.0000
  H   H3309     1.0  0.68513  0.73499  0.20803  1.0000
  H   H3310     1.0  0.93042  0.74745  0.18301  1.0000
  C   C3308     1.0  0.70148  0.75189  0.47038  1.0000
  Fe  Fe552     1.0  0.83127  0.73530  0.24026  1.0000
  C   C3309     1.0  0.98246  0.80331  0.19827  1.0000
  H   H3311     1.0  0.70291  0.98015  0.08353  1.0000
  C   C3310     1.0  0.78246  0.73819  0.00436  1.0000
  H   H3312     1.0  0.74912  0.98091  0.14040  1.0000
  Fe  Fe553     1.0  0.88473  0.73226  0.13068  1.0000
  C   C3311     1.0  0.77247  0.73627  0.21815  1.0000
  C   C3312     1.0  0.81554  0.73343  0.19419  1.0000
  C   C3313     1.0  0.93363  0.73790  0.14639  1.0000
  C   C3314     1.0  0.97843  0.73202  0.09986  1.0000
  H   H3313     1.0  0.91722  0.73316  0.17025  1.0000
  C   C3315     1.0  0.98651  0.82792  0.20397  1.0000
  C   C3316     1.0  0.77400  0.73438  0.04862  1.0000
  H   H3314     1.0  0.73321  0.73329  0.05721  1.0000
  H   H3315     1.0  0.96642  0.80880  0.23674  1.0000
  H   H3316     1.0  0.98812  0.73900  0.09487  1.0000
  H   H3317     1.0  0.65548  0.78515  0.30678  1.0000
  N   N275      1.0  0.87560  0.75857  0.73576  1.0000
  C   C3317     1.0  0.85092  0.93023  0.64033  1.0000
  H   H3318     1.0  0.70430  0.95846  0.79330  1.0000
  C   C3318     1.0  0.82502  0.82285  0.62168  1.0000
  H   H3319     1.0  0.81591  0.82529  0.61425  1.0000
  H   H3320     1.0  0.68809  0.94254  0.78617  1.0000
  C   C3319     1.0  0.94237  0.82797  0.66825  1.0000
  Fe  Fe554     1.0  0.67674  0.74512  0.53419  1.0000
  S   S1109     1.0  0.69506  0.75987  0.51753  1.0000
  H   H3321     1.0  0.88462  0.74541  0.63535  1.0000
  Fe  Fe555     1.0  0.69106  0.77195  0.53873  1.0000
  S   S1110     1.0  0.71285  0.77311  0.54812  1.0000
  N   N276      1.0  0.75559  0.74412  0.91847  1.0000
  Fe  Fe556     1.0  0.66882  0.92651  0.76779  1.0000
  S   S1111     1.0  0.69574  0.91568  0.75890  1.0000
  H   H3322     1.0  0.78261  0.76895  0.62997  1.0000
  S   S1112     1.0  0.68428  0.88222  0.75912  1.0000
  Fe  Fe557     1.0  0.69043  0.89249  0.77735  1.0000
  S   S1113     1.0  0.70837  0.87426  0.79192  1.0000
  Fe  Fe558     1.0  0.68680  0.90640  0.74173  1.0000
  S   S1114     1.0  0.69805  0.90840  0.71462  1.0000
  C   C3320     1.0  0.67043  0.81088  0.60746  1.0000
  Fe  Fe559     1.0  0.68641  0.82116  0.87830  1.0000
  S   S1115     1.0  0.68176  0.84882  0.86875  1.0000
  Fe  Fe560     1.0  0.70716  0.78612  0.87946  1.0000
  H   H3323     1.0  0.85431  0.92167  0.63212  1.0000
  S   S1116     1.0  0.73243  0.77152  0.86965  1.0000
  H   H3324     1.0  0.66567  0.79526  0.56639  1.0000
  H   H3325     1.0  0.68787  0.79805  0.58951  1.0000
  S   S1117     1.0  0.69160  0.80326  0.86206  1.0000
  S   S1118     1.0  0.70429  0.80515  0.89403  1.0000
  N   N277      1.0  0.83593  0.80783  0.62373  1.0000
  C   C3321     1.0  0.74942  0.83164  0.54194  1.0000
  H   H3326     1.0  0.68658  0.83777  0.90626  1.0000
  H   H3327     1.0  0.95847  0.81927  0.61676  1.0000
  C   C3322     1.0  0.91237  0.74144  0.70788  1.0000
  H   H3328     1.0  0.89327  0.76067  0.74764  1.0000
  Fe  Fe561     1.0  0.73126  0.83422  0.59152  1.0000
  S   S1119     1.0  0.73686  0.81507  0.61413  1.0000
  S   S1120     1.0  0.71491  0.83402  0.57495  1.0000
  Fe  Fe562     1.0  0.74777  0.85870  0.59793  1.0000
  S   S1121     1.0  0.75455  0.84177  0.62100  1.0000
  S   S1122     1.0  0.75166  0.88469  0.58756  1.0000
  Fe  Fe563     1.0  0.76172  0.82200  0.60641  1.0000
  S   S1123     1.0  0.78582  0.80366  0.60801  1.0000
  Fe  Fe564     1.0  0.72921  0.83655  0.62663  1.0000
  S   S1124     1.0  0.71352  0.83521  0.65235  1.0000
  S   S1125     1.0  0.75693  0.83935  0.58260  1.0000
  S   S1126     1.0  0.72169  0.85527  0.60475  1.0000
  Fe  Fe565     1.0  0.79927  0.92775  0.66943  1.0000
  S   S1127     1.0  0.81102  0.90155  0.68007  1.0000
  S   S1128     1.0  0.79825  0.94681  0.68356  1.0000
  Fe  Fe566     1.0  0.78791  0.91656  0.64433  1.0000
  S   S1129     1.0  0.79850  0.88963  0.65311  1.0000
  S   S1130     1.0  0.77387  0.92692  0.62401  1.0000
  Fe  Fe567     1.0  0.78805  0.89509  0.67845  1.0000
  S   S1131     1.0  0.77486  0.87858  0.70024  1.0000
  Fe  Fe568     1.0  0.82038  0.89869  0.65379  1.0000
  S   S1132     1.0  0.84664  0.88724  0.64267  1.0000
  S   S1133     1.0  0.77566  0.92144  0.66961  1.0000
  S   S1134     1.0  0.81054  0.92551  0.64312  1.0000
  Fe  Fe569     1.0  0.90536  0.75799  0.66663  1.0000
  S   S1135     1.0  0.91998  0.75964  0.64046  1.0000
  N   N278      1.0  0.84709  0.95774  0.64444  1.0000
  Fe  Fe570     1.0  0.89173  0.79503  0.66165  1.0000
  S   S1136     1.0  0.90513  0.79980  0.63509  1.0000
  S   S1137     1.0  0.87418  0.81300  0.67662  1.0000
  Fe  Fe571     1.0  0.89700  0.77740  0.63371  1.0000
  S   S1138     1.0  0.88434  0.77812  0.61347  1.0000
  Fe  Fe572     1.0  0.92689  0.78161  0.64441  1.0000
  S   S1139     1.0  0.95312  0.78634  0.63491  1.0000
  S   S1140     1.0  0.88201  0.77421  0.65965  1.0000
  S   S1141     1.0  0.91385  0.77852  0.67114  1.0000
  H   H3329     1.0  0.73038  0.82312  0.52709  1.0000
  N   N279      1.0  0.75163  0.81562  0.53778  1.0000
  C   C3323     1.0  0.95307  0.82900  0.65264  1.0000
  H   H3330     1.0  0.77954  0.73289  0.92334  1.0000
  S   S1142     1.0  0.67440  0.75554  0.55603  1.0000
  H   H3331     1.0  0.86149  0.97593  0.63233  1.0000
  H   H3332     1.0  0.75201  0.88363  0.75011  1.0000
  H   H3333     1.0  0.67939  0.85240  0.96064  1.0000
  C   C3324     1.0  0.84757  0.80485  0.63288  1.0000
  H   H3334     1.0  0.76304  0.94116  0.69650  1.0000
  C   C3325     1.0  0.86788  0.75656  0.70720  1.0000
  C   C3326     1.0  0.74280  0.79794  0.52617  1.0000
  C   C3327     1.0  0.85380  0.86638  0.65182  1.0000
  C   C3328     1.0  0.84577  0.85925  0.66758  1.0000
  C   C3329     1.0  0.85214  0.84283  0.67503  1.0000
  C   C3330     1.0  0.86633  0.83335  0.66662  1.0000
  C   C3331     1.0  0.87408  0.84030  0.65063  1.0000
  C   C3332     1.0  0.86793  0.85686  0.64333  1.0000
  H   H3335     1.0  0.83484  0.86648  0.67419  1.0000
  H   H3336     1.0  0.84606  0.83750  0.68738  1.0000
  H   H3337     1.0  0.88495  0.83307  0.64399  1.0000
  H   H3338     1.0  0.87412  0.86233  0.63108  1.0000
  C   C3333     1.0  0.75914  0.89524  0.59786  1.0000
  C   C3334     1.0  0.75794  0.91227  0.59175  1.0000
  C   C3335     1.0  0.76281  0.92161  0.59980  1.0000
  C   C3336     1.0  0.76923  0.91402  0.61394  1.0000
  C   C3337     1.0  0.77069  0.89686  0.62010  1.0000
  C   C3338     1.0  0.76556  0.88745  0.61208  1.0000
  H   H3339     1.0  0.75302  0.91836  0.58079  1.0000
  H   H3340     1.0  0.76161  0.93483  0.59500  1.0000
  H   H3341     1.0  0.77550  0.89093  0.63112  1.0000
  H   H3342     1.0  0.76651  0.87428  0.61688  1.0000
  C   C3339     1.0  0.69394  0.83243  0.65281  1.0000
  C   C3340     1.0  0.68465  0.82476  0.66758  1.0000
  H   H3343     1.0  0.85760  0.81453  0.64773  1.0000
  C   C3341     1.0  0.68723  0.83846  0.63870  1.0000
  H   H3344     1.0  0.68993  0.81972  0.67843  1.0000
  H   H3345     1.0  0.69429  0.84435  0.62726  1.0000
  Fe  Fe573     1.0  0.68264  0.79449  0.90997  1.0000
  H   H3346     1.0  0.92889  0.82315  0.63101  1.0000
  C   C3342     1.0  0.86832  0.76202  0.60114  1.0000
  C   C3343     1.0  0.87656  0.76097  0.61354  1.0000
  C   C3344     1.0  0.87830  0.74640  0.62575  1.0000
  H   H3347     1.0  0.94650  0.82890  0.67871  1.0000
  C   C3345     1.0  0.66920  0.83674  0.82662  1.0000
  H   H3348     1.0  0.86706  0.77317  0.59154  1.0000
  H   H3349     1.0  0.66031  0.77730  0.58153  1.0000
  Fe  Fe574     1.0  0.67037  0.79327  0.87994  1.0000
  C   C3346     1.0  0.79389  0.76647  0.57638  1.0000
  C   C3347     1.0  0.77929  0.77874  0.57768  1.0000
  C   C3348     1.0  0.77698  0.79056  0.58700  1.0000
  C   C3349     1.0  0.78918  0.78993  0.59519  1.0000
  C   C3350     1.0  0.80380  0.77771  0.59380  1.0000
  C   C3351     1.0  0.80617  0.76602  0.58436  1.0000
  H   H3350     1.0  0.76950  0.77871  0.57210  1.0000
  H   H3351     1.0  0.76558  0.79986  0.58823  1.0000
  H   H3352     1.0  0.81325  0.77718  0.60012  1.0000
  H   H3353     1.0  0.81754  0.75664  0.58327  1.0000
  H   H3354     1.0  0.66158  0.81721  0.67962  1.0000
  C   C3352     1.0  0.69098  0.86434  0.69429  1.0000
  C   C3353     1.0  0.86397  0.73394  0.61298  1.0000
  H   H3355     1.0  0.67982  0.81488  0.61074  1.0000
  H   H3356     1.0  0.91589  0.75199  0.69873  1.0000
  C   C3354     1.0  0.73758  0.75125  0.88109  1.0000
  C   C3355     1.0  0.68430  0.87511  0.70515  1.0000
  H   H3357     1.0  0.73384  0.79589  0.52062  1.0000
  H   H3358     1.0  0.71491  0.75308  0.89957  1.0000
  C   C3356     1.0  0.67490  0.80140  0.59543  1.0000
  C   C3357     1.0  0.68785  0.79545  0.94950  1.0000
  H   H3359     1.0  0.79084  0.74797  0.65437  1.0000
  C   C3358     1.0  0.72671  0.76853  0.92260  1.0000
  H   H3360     1.0  0.71767  0.75085  0.94401  1.0000
  C   C3359     1.0  0.70367  0.81405  0.95148  1.0000
  C   C3360     1.0  0.69798  0.80690  0.94183  1.0000
  S   S1143     1.0  0.66013  0.91864  0.74925  1.0000
  H   H3361     1.0  0.96548  0.83069  0.65123  1.0000
  H   H3362     1.0  0.71101  0.82334  0.94548  1.0000
  H   H3363     1.0  0.70095  0.81069  0.92851  1.0000
  C   C3361     1.0  0.71905  0.89876  0.71033  1.0000
  C   C3362     1.0  0.72617  0.88643  0.72231  1.0000
  C   C3363     1.0  0.74328  0.87962  0.71888  1.0000
  C   C3364     1.0  0.75324  0.88538  0.70361  1.0000
  C   C3365     1.0  0.74592  0.89711  0.69141  1.0000
  C   C3366     1.0  0.72885  0.90380  0.69476  1.0000
  H   H3364     1.0  0.71856  0.88224  0.73425  1.0000
  H   H3365     1.0  0.74886  0.87022  0.72819  1.0000
  H   H3366     1.0  0.75343  0.90102  0.67939  1.0000
  H   H3367     1.0  0.72329  0.91325  0.68547  1.0000
  C   C3367     1.0  0.70045  0.86712  0.81315  1.0000
  C   C3368     1.0  0.70767  0.85132  0.82123  1.0000
  C   C3369     1.0  0.70180  0.84548  0.83822  1.0000
  C   C3370     1.0  0.68893  0.85559  0.84730  1.0000
  C   C3371     1.0  0.68169  0.87138  0.83922  1.0000
  C   C3372     1.0  0.68727  0.87705  0.82214  1.0000
  H   H3368     1.0  0.71919  0.75276  0.85087  1.0000
  H   H3369     1.0  0.68178  0.88932  0.81606  1.0000
  C   C3373     1.0  0.71235  0.78967  0.55674  1.0000
  C   C3374     1.0  0.72375  0.78775  0.56645  1.0000
  C   C3375     1.0  0.72447  0.80112  0.57249  1.0000
  C   C3376     1.0  0.71386  0.81653  0.56871  1.0000
  C   C3377     1.0  0.70237  0.81840  0.55915  1.0000
  C   C3378     1.0  0.70155  0.80500  0.55324  1.0000
  H   H3370     1.0  0.73224  0.77593  0.56909  1.0000
  H   H3371     1.0  0.73340  0.79959  0.57981  1.0000
  H   H3372     1.0  0.69416  0.83033  0.55614  1.0000
  H   H3373     1.0  0.69287  0.80668  0.54560  1.0000
  H   H3374     1.0  0.85580  0.74952  0.59122  1.0000
  H   H3375     1.0  0.73094  0.89431  0.75089  1.0000
  C   C3379     1.0  0.84067  0.93573  0.66774  1.0000
  H   H3376     1.0  0.75906  0.83832  0.53370  1.0000
  H   H3377     1.0  0.73294  0.94176  0.70799  1.0000
  C   C3380     1.0  0.68088  0.86195  0.68526  1.0000
  C   C3381     1.0  0.65740  0.82808  0.95457  1.0000
  C   C3382     1.0  0.82548  0.83528  0.62909  1.0000
  C   C3383     1.0  0.96618  0.78805  0.64689  1.0000
  C   C3384     1.0  0.96063  0.78811  0.66375  1.0000
  C   C3385     1.0  0.97084  0.79118  0.67239  1.0000
  H   H3378     1.0  0.78385  0.91855  0.70902  1.0000
  H   H3379     1.0  0.94835  0.78615  0.67005  1.0000
  C   C3386     1.0  0.69939  0.80979  0.96885  1.0000
  H   H3380     1.0  0.68555  0.73931  0.50058  1.0000
  S   S1144     1.0  0.67553  0.78872  0.48282  1.0000
  Fe  Fe575     1.0  0.65817  0.89493  0.76813  1.0000
  C   C3387     1.0  0.80117  0.96696  0.67332  1.0000
  C   C3388     1.0  0.67492  0.84647  0.91052  1.0000
  H   H3381     1.0  0.76162  0.74562  0.86507  1.0000
  C   C3389     1.0  0.74356  0.89605  0.74983  1.0000
  H   H3382     1.0  0.71792  0.84363  0.81436  1.0000
  H   H3383     1.0  0.80344  0.96380  0.64881  1.0000
  H   H3384     1.0  0.68108  0.78027  0.57660  1.0000
  H   H3385     1.0  0.72417  0.92057  0.73242  1.0000
  H   H3386     1.0  0.77460  0.89731  0.73339  1.0000
  C   C3390     1.0  0.84167  0.95232  0.66110  1.0000
  H   H3387     1.0  0.70758  0.83336  0.84437  1.0000
  H   H3388     1.0  0.71532  0.77792  0.92407  1.0000
  C   C3391     1.0  0.69527  0.96491  0.78580  1.0000
  C   C3392     1.0  0.68617  0.95585  0.78170  1.0000
  C   C3393     1.0  0.67407  0.96411  0.77248  1.0000
  C   C3394     1.0  0.78150  0.75619  0.63204  1.0000
  C   C3395     1.0  0.87315  0.77038  0.70759  1.0000
  H   H3389     1.0  0.68073  0.83364  0.79587  1.0000
  N   N280      1.0  0.66621  0.84882  0.81297  1.0000
  H   H3390     1.0  0.83780  0.84186  0.64430  1.0000
  H   H3391     1.0  0.81684  0.84720  0.62744  1.0000
  C   C3396     1.0  0.78607  0.74444  0.64573  1.0000
  H   H3392     1.0  0.91902  0.74767  0.72746  1.0000
  N   N281      1.0  0.94820  0.82722  0.63950  1.0000
  C   C3397     1.0  0.84833  0.97510  0.63753  1.0000
  H   H3393     1.0  0.74338  0.90058  0.76079  1.0000
  C   C3398     1.0  0.87212  0.73295  0.62541  1.0000
  C   C3399     1.0  0.67612  0.84691  0.79650  1.0000
  C   C3400     1.0  0.92657  0.82526  0.67033  1.0000
  C   C3401     1.0  0.72650  0.74523  0.89528  1.0000
  H   H3394     1.0  0.87907  0.74829  0.76059  1.0000
  C   C3402     1.0  0.86632  0.74383  0.72128  1.0000
  C   C3403     1.0  0.87698  0.77120  0.72206  1.0000
  C   C3404     1.0  0.67372  0.84704  0.95413  1.0000
  H   H3395     1.0  0.83767  0.96091  0.66932  1.0000
  S   S1145     1.0  0.66406  0.90384  0.78771  1.0000
  H   H3396     1.0  0.86964  0.73477  0.74622  1.0000
  C   C3405     1.0  0.67707  0.85061  0.93682  1.0000
  H   H3397     1.0  0.69025  0.75517  0.86741  1.0000
  H   H3398     1.0  0.77728  0.73220  0.90329  1.0000
  H   H3399     1.0  0.77214  0.76054  0.61027  1.0000
  S   S1146     1.0  0.68629  0.77451  0.89613  1.0000
  C   C3406     1.0  0.66381  0.83571  0.96302  1.0000
  H   H3400     1.0  0.66862  0.85291  0.78692  1.0000
  H   H3401     1.0  0.76456  0.76147  0.89700  1.0000
  H   H3402     1.0  0.73697  0.83964  0.54094  1.0000
  N   N282      1.0  0.73212  0.90407  0.64277  1.0000
  C   C3407     1.0  0.72687  0.90582  0.62865  1.0000
  C   C3408     1.0  0.73363  0.88917  0.65390  1.0000
  C   C3409     1.0  0.72312  0.89240  0.62530  1.0000
  C   C3410     1.0  0.72995  0.87550  0.65094  1.0000
  C   C3411     1.0  0.72462  0.87719  0.63657  1.0000
  C   C3412     1.0  0.73561  0.91832  0.64638  1.0000
  H   H3403     1.0  0.72605  0.91749  0.61962  1.0000
  H   H3404     1.0  0.73785  0.88776  0.66505  1.0000
  H   H3405     1.0  0.71960  0.89363  0.61377  1.0000
  H   H3406     1.0  0.73138  0.86358  0.65958  1.0000
  H   H3407     1.0  0.72186  0.86667  0.63408  1.0000
  H   H3408     1.0  0.73785  0.92816  0.63503  1.0000
  H   H3409     1.0  0.72506  0.92367  0.65553  1.0000
  H   H3410     1.0  0.74710  0.91456  0.65126  1.0000
  Fe  Fe576     1.0  0.67272  0.77844  0.51050  1.0000
  C   C3413     1.0  0.85162  0.94695  0.63407  1.0000
  N   N283      1.0  0.66310  0.79640  0.59122  1.0000
  H   H3411     1.0  0.68690  0.85280  0.79342  1.0000
  H   H3412     1.0  0.88130  0.78190  0.72215  1.0000
  C   C3414     1.0  0.68414  0.79067  0.96685  1.0000
  H   H3413     1.0  0.68621  0.85368  0.67672  1.0000
  C   C3415     1.0  0.66004  0.83860  0.84242  1.0000
  C   C3416     1.0  0.98223  0.79061  0.63895  1.0000
  C   C3417     1.0  0.69924  0.74350  0.86930  1.0000
  H   H3414     1.0  0.97260  0.82570  0.62412  1.0000
  H   H3415     1.0  0.87198  0.77050  0.75545  1.0000
  H   H3416     1.0  0.86270  0.73281  0.72093  1.0000
  H   H3417     1.0  0.67634  0.78179  0.97289  1.0000
  H   H3418     1.0  0.96630  0.79150  0.68535  1.0000
  C   C3418     1.0  0.92163  0.82368  0.65684  1.0000
  H   H3419     1.0  0.66561  0.84290  0.62879  1.0000
  C   C3419     1.0  0.65797  0.88069  0.69760  1.0000
  H   H3420     1.0  0.98670  0.79051  0.62593  1.0000
  H   H3421     1.0  0.83581  0.93162  0.68087  1.0000
  C   C3420     1.0  0.77563  0.75137  0.62088  1.0000
  S   S1147     1.0  0.67858  0.78777  0.93800  1.0000
  H   H3422     1.0  0.66500  0.84498  0.90542  1.0000
  H   H3423     1.0  0.66234  0.82899  0.85323  1.0000
  C   C3421     1.0  0.88011  0.75961  0.75060  1.0000
  C   C3422     1.0  0.68041  0.73833  0.49084  1.0000
  H   H3424     1.0  0.73893  0.78317  0.90030  1.0000
  C   C3423     1.0  0.80390  0.97203  0.65610  1.0000
  H   H3425     1.0  0.84467  0.91171  0.66222  1.0000
  C   C3424     1.0  0.84546  0.92461  0.65728  1.0000
  H   H3426     1.0  0.79961  0.97396  0.69598  1.0000
  S   S1148     1.0  0.66029  0.95362  0.76972  1.0000
  S   S1149     1.0  0.79625  0.75094  0.56589  1.0000
  C   C3425     1.0  0.87028  0.74502  0.73554  1.0000
  C   C3426     1.0  0.83582  0.79522  0.61526  1.0000
  H   H3427     1.0  0.85638  0.79306  0.63429  1.0000
  H   H3428     1.0  0.83976  0.78249  0.62252  1.0000
  H   H3429     1.0  0.84460  0.79664  0.60302  1.0000
  N   N284      1.0  0.74885  0.90789  0.73458  1.0000
  C   C3427     1.0  0.76540  0.90720  0.72804  1.0000
  C   C3428     1.0  0.73728  0.92014  0.72751  1.0000
  C   C3429     1.0  0.77072  0.91912  0.71425  1.0000
  C   C3430     1.0  0.74217  0.93219  0.71365  1.0000
  C   C3431     1.0  0.75901  0.93179  0.70714  1.0000
  H   H3430     1.0  0.84119  0.98068  0.62764  1.0000
  C   C3432     1.0  0.71542  0.74209  0.85989  1.0000
  H   H3431     1.0  0.82322  0.79630  0.61340  1.0000
  H   H3432     1.0  0.70388  0.85786  0.69286  1.0000
  C   C3433     1.0  0.74087  0.81329  0.52996  1.0000
  H   H3433     1.0  0.75023  0.82974  0.55500  1.0000
  C   C3434     1.0  0.76470  0.80311  0.54162  1.0000
  C   C3435     1.0  0.84835  0.81698  0.64048  1.0000
  H   H3434     1.0  0.77329  0.80500  0.54773  1.0000
  C   C3436     1.0  0.75581  0.78497  0.53046  1.0000
  C   C3437     1.0  0.91414  0.73898  0.72415  1.0000
  C   C3438     1.0  0.93265  0.82475  0.64140  1.0000
  C   C3439     1.0  0.76696  0.78757  0.53808  1.0000
  C   C3440     1.0  0.95943  0.82850  0.62315  1.0000
  C   C3441     1.0  0.66105  0.83189  0.93726  1.0000
  H   H3435     1.0  0.75703  0.77285  0.52814  1.0000
  C   C3442     1.0  0.75445  0.75913  0.90753  1.0000
  H   H3436     1.0  0.77712  0.77753  0.54152  1.0000
  C   C3443     1.0  0.83723  0.83230  0.63855  1.0000
  C   C3444     1.0  0.74269  0.74114  0.93158  1.0000
  H   H3437     1.0  0.68519  0.85906  0.93000  1.0000
  H   H3438     1.0  0.86544  0.75551  0.69587  1.0000
  N   N285      1.0  0.66454  0.86992  0.68716  1.0000
  C   C3445     1.0  0.72805  0.75328  0.93381  1.0000
  C   C3446     1.0  0.86195  0.74862  0.60091  1.0000
  H   H3439     1.0  0.95633  0.84115  0.61549  1.0000
  H   H3440     1.0  0.67178  0.87928  0.84618  1.0000
  H   H3441     1.0  0.91818  0.82424  0.68240  1.0000
  S   S1150     1.0  0.67047  0.79224  0.53016  1.0000
  C   C3447     1.0  0.66854  0.82351  0.66832  1.0000
  C   C3448     1.0  0.75295  0.74099  0.87603  1.0000
  H   H3442     1.0  0.69196  0.87715  0.71223  1.0000
  C   C3449     1.0  0.80168  0.97782  0.68265  1.0000
  H   H3443     1.0  0.85572  0.95127  0.62085  1.0000
  C   C3450     1.0  0.67098  0.83756  0.63955  1.0000
  C   C3451     1.0  0.73998  0.77151  0.90936  1.0000
  C   C3452     1.0  0.98674  0.79413  0.66434  1.0000
  S   S1151     1.0  0.66433  0.81214  0.89552  1.0000
  H   H3444     1.0  0.90940  0.82145  0.65839  1.0000
  C   C3453     1.0  0.66770  0.88337  0.70682  1.0000
  H   H3445     1.0  0.67877  0.82562  0.82539  1.0000
  H   H3446     1.0  0.70134  0.75797  0.48030  1.0000
  N   N286      1.0  0.67059  0.84320  0.92863  1.0000
  H   H3447     1.0  0.87452  0.78028  0.69667  1.0000
  H   H3448     1.0  0.67667  0.85936  0.90505  1.0000
  C   C3454     1.0  0.66150  0.83041  0.65447  1.0000
  H   H3449     1.0  0.66243  0.89182  0.71520  1.0000
  H   H3450     1.0  0.75505  0.73346  0.61361  1.0000
  H   H3451     1.0  0.65808  0.85498  0.67484  1.0000
  H   H3452     1.0  0.65665  0.82532  0.93081  1.0000
  H   H3453     1.0  0.65863  0.75783  0.88646  1.0000
  C   C3455     1.0  0.77098  0.73140  0.91655  1.0000
  H   H3454     1.0  0.66316  0.97924  0.81097  1.0000
  C   C3456     1.0  0.66784  0.78685  0.57830  1.0000
  H   H3455     1.0  0.77369  0.73704  0.59823  1.0000
  N   N287      1.0  0.77457  0.73527  0.62314  1.0000
  S   S1152     1.0  0.90273  0.73335  0.68367  1.0000
  N   N288      1.0  0.68710  0.74432  0.47462  1.0000
  H   H3456     1.0  0.65540  0.87675  0.66521  1.0000
