data_image0
_chemical_formula_structural       CHCNCSHC2H2CSHFeHCSFeS2FeSFeS3FeS2FeS2FeSFeS3H2CFeS2HCHSCFeS2FeS2FeSFeS3HSH2CHFeSHFeS2FeS2FeSFeS3HCH2CH2SC2FeS2FeS2FeSFeS3FeS2FeSCFeSFeS2FeHSHCFeSCSH2S2HCFeSH3NFeS2FeS2FeHFeS3CNC6H4C6H4C3HC7H4SHC4H4C6H4C4HCH2C6H4C6H4C6H4CHC2FeC7H4CNC2H2C6H6CNH2CH2C7H4CH2C3HCHC7H4C6H4C6H4C2HC8H4CHCH3C2H3NHCH2C4HSHC2HSHC3H2C3H2C2NC3H7CH2CNH2FeCHC4HFeSHC2H2CNHSH4NCHCHSHCHS2HNC6H10CNC2HC3H6CH2NC6H8NC5FeCH2SH2C2H2SHC2NCH7CH5C2HSHN2H3CHCH2SHC2H2C3HC5H4C2HSH2CNC2H4C2H3C2H2N2C3H2C2FeHCFe2H3FeHNHCHC3N2SC5HC3H2FeH2CHCHCSH3CHCH2CH2CFeCFeH2C2HSH4C7HSHSNCH2SHCH2CHC3HC2H2C2HSCH2CSFeS2FeS2FeSFeS3FeS2CNC2FeSCSFeS2FeS2FeSFeS3FeS2FeS2FeSFeS3CFeS2FeSFeNFeSFeSHSCSFeS2FeS2Fe3S4FeS2FeS2FeSFeS2CHCHCSH3FeS2FeS2FeSFeS3FeCSFeS2HFeCS2FeSCFeS2FeSFeS3C6H4C6H4CHCSCNSHC7H4C7H4C3HC6H4C6H4C6H5C2FeHC6H4C6H4C6H4C6H4CH3C2HCH2C6H4C5H3C8H4C6H5C2H3C6H5C3H4NC2H3CHCFeH3CHCH2CHCSCH3FeH3C3HSHCH3NC6H8SHNCHCHC3HCHC3H2C2H3CH2CHCHCNCH4FeCHC4H2SC2H2NC6H9NHCSHSHCHC2SCH2FeH4CHCHC3H8C2H4C2SHCH3CFeHCH5CH2CH3CHCH2NHCH2CH2CHCH2C3H2C2HC3NC6H7CH2CSCHNH4N2C2HNC3H2SHFeHC2HC2H3NSCHSHCHCH5CHCH3NC6H6C2HSC2H2C2SHSCHCH3C2HCH2CHN2C2NC2HC2HCNC3HCFeCNC5H3SHCSCHSCSCSHC2SNCHCFeH3NHSCH2C3HC4SHFeS2C2FeCSFeS2FeS2FeSFeS3CHC2H2CSC2HCFeS2FeS2FeSFeS3NH3CH2SCNH3C2H4CSFeSHFeS2H3NC2NCH2CH2CH2CHCHC6H4C6H4C6HCH4C3H2C3S2C3HC6H4C6H4C6H7C6H6NC4H3NH2NC2H6CH3CH2FeHSCNH4SCH2C2HFeNC4HC2HC3SCHFeH2S2HC2H3CH2FeCH2FeHSC2FeH3SH3CH2FeS2FeS2FeSFeS3FeS2FeS2FeSFeS3FeS2FeS2FeCFeS3FeS2FeS2FeCFeS3FeS2FeS2FeSFeHSCFeSCFeS2FeSFeS3FeS2FeS2FeHFeS3FeS2FeS2FeSFeS3FeS2FeS2FeSFeS3FeS2FeS2FeSFeNS2FeS2FeS2FeSFeS3FeSCFeS2FeSCHS2HC2H4CH3C6H4C6H4C6H4C6H4C2HC6H5SC2H3C6H6CH2CHC3H5C4H2C6H4C6H2CH3C2H2C6H4C6H4C3H2CFeCNCHCNHC6H4C6H4C6H4C5SH2CHCH5C6H4C4H3C6H4C3H6CHCH3C4HCH8C2SCH2C2FeCHC2HCNC6H8NC6H8CH3CSH2CHCSC2NC6H9C3SC2NC2HCN2H3C2SH2C5H2CH2CFeHSHC3SCFeCSCH2C8HC2H2CH7C2H2C2H2CHC3NC6H8NSCNC6H8C2NH2C2SCNCFeH2CHC2SHC2H3NC6H8NHCH3C2H2C2HCH2C2HC4HSCHFeCHCFeH2SHFeCNC6HCH4NHFeS2HC2H2C2NHSHC2H3SFeCH2NC4HCHNC6H8NC3H5C3H2FeNC6H8SH2CHSH3CHCSH7SC2NS2CS2HNFeSH2NCNSHCHCHCFeHCHC3SHCHC4SH2C3HC2HC3HNCHC3SH2CH2CHCHNHNHCHCH2SH2C3H3CHSHSH3C2H2C2NHSH4CH3CH3C5H2C3H3CHC2HCHC2S2H2CFeCH3CHC2H2C2H2NFeHNH2FeCSH2CHCH2SHFeSC2H2CFeSHSFeS2FeS2FeSFeS3HCHCSH2CHCHCFeS2FeS2FeSFeS3HN2FeS2FeSCHSHCSC2HCNCH4C2H2CHCHC2HCH2C6H4SHCHC2H4C2H4CH2SHCHCHC6H4C6H4C6H4C6H5C5H5CFeSC6H4C2H2C4HNHC4H2FeHCH2CHFeSH5NC2HCHC2SHCH3CH4C2H2CH2C2HNHC5H3C2H3CHSHCNC5HCFeCHC2HSC2HSFeCS3H2CHCFeSH2C4NCHCHNHFeH2CH2C3SHFeCHC2H2C2H2CH3CHCH2C3HCFeSCFeSFeSCFeS2FeS2FeSFeS3CHSC2FeHSFeHFe2S2FeS2FeSNFeSCFeSFeS3H2CFeS2FeS2FeSFeS3HCFeH2FeS2C2FeS4FeCSHFeHC2HC2S2FeS2FeSFeHSHFeS2FeS2FeSFeS3C7H4C6H5NSC2SFeC4HC6HCH2C2HSCNCHC3H3C6H4C6H4C3H3SH3CH4C6H3C7H2CHC3H2C6H6SCHC4H2C6H7CH3CHC6H4C6H4C4H6C6H4NC6HSH2CH3NC6H4CH5SCHCFeC2HC2HCH2SHC3SNC2H4C3NCSH5CH2C2H2CHNCHFeH2SH2SCNH3CH2SH2NC5H5NC3SH6CH3CNHCHCHCHFeCHCH2SCHC2HNC6H8SCH2CH2C3H4CHCS2H3C2HC2HCH2CHSC2H2SCSNSH2SC2HSCNFeCH2C2HSCFeHFeHNCS2HCS2H2C3HCSC2H3CH3SCFeNH2CHCNCH3CHSC2H2C4HC2HCH3CH2CFeH3CH2CH2NHC2H3C3H3CSC2H2CH7FeHC2HCFeSHFeS2FeHFeSHSHCHFeSFeS2FeSFeS3FeS2FeS2FeHFeS3FeS2FeS2FeSFeS3HCHS2H2FeS2FeS2FeSFeS3FeS2FeS2FeSFeS3H2CHC2FeS2Fe2SCS2FeS2FeS2FeCFeS3FeS2FeS2Fe2S2FeS2C2HFeHFeS3CH2C6H2FeHSC2H2CHSC8H4C6H4C6H2CHC6H4C6H5CHC6H4C2HC3SCHCSCH4C2S2C6H5C2HC4FeCH2C8H4C6H4C6H7C2HCH2C2HC4HCH2C6H4CHSCFeC3SH3CH3NC6H8SHCNC6H9CHCNH2C2HC4H3SHFeHC2HCHSC2SHCSCHNHC3HC2H2CH3CH4C2HC2HNH4CHCHFeH2C2HFeC2H2NH2NC2SCH6SC2H2C3H3C2SC5H2CHC5NHCHCHNC5H2C2H2CHCH2CFeHNC6H7NC6H7NC6H9C4H3C2FeSHC2NC3H2CH4CH4SNH3C2H3C2NC5H9NH3CFeC3HC2HSH2C5HC2HC2HCHC4NCNH2C2SN2CNH3S2HNHC3HC2H3CHCH2C2HCHSCH6C4NH2CNSCHCH2CHSHSNH2C2H2FeHCH4C2H3C2H3C2H4NCSH2SC2HSCHC2HCHCNC2FeSH2FeHCHCSFeHCFeS2FeS2FeSFeS4CNCHC2H2SCSFeS2FeS2FeSFeS3HCHSHSH3S2HCH2SH2S2NH3CFeS2FeS2H2C2HCNCNCHCH2CH3C3H3C2H5CHNH2C6H4C6H2CHCHC2HCH3CNCH4NHCHC6H4C6H4C6H5CHSC2H2FeHC6H4SNHSC6H4CSHC2HC4HC2HSFeH2NC5H3C3H2FeH2CHC2H2CH9FeSFeS2Fe2S3FeS2FeS2FeSFeS3H3CNSFeS2FeS2FeSFeCS2FeSFeS2FeS3H2FeS3FeSFeSFeS2FeSFeSFeS3FeS2FeS2FeSFeS3FeH2C3FeS2FeS2FeSFeCS2NFeS2FeS2Fe3S3FeS2FeS2FeSFeS2FeS2FeS2FeS3FeS2FeS2FeSFeS3C6H5C6H4C6H4C6H7CHC2HC9H5C2SCHCH2CFeC6H4C6H4C6H4C3FeHC2H3C6H4C6H4C6H4C5HC6H4C6HCH2C6H4C3H2CH4C6H4C2HC6H4C6H5C2NC6H8CH2FeHFeNC6H8C4H3SCNC2H2CH2C3H2CHNCH3NC2HC2SCHCHCH2CH3CH3CSHC2SHCHC2FeHCHNH2NC6H8NC6H8CH2CNCH3CHCHCH4C2H2C3HNCHNC3H2CHC2H4NC6H8SCH3C2HCHNC6H8CH5CHCSHNCH2NC6H9C2SHCH3CH2S4C2NHNC6H5SCHFeCHFeHCHSFeC5H4C2SCH4CSHC2NC6NH4FeSC3HCHCH4C5NC6H10C2HNH4CHCSC2S2C2HC3HSH2SC2HFeCHCH2C2SC2HCHC2H4CH2C3NCHC3HC3HCSC2SH3SH2CHCSCNCHCHCS2C2H4CFeHC2H3SHCHCH4C2HC2HCHCHSH4NC2HCH2CSC2HFeC2NC2HC2HFeC3FeHSHC2SNC4FeC3H3CS2HC4HC3H3CS2H2CHCHFeCH5SFeSHSHCSH2NH2C2HCH3CH2C3H6C2HSCHCH3S2CH2CNCHC2H4FeCSH2CFeHSFeH2C3HSCHC2HNCSH2CFeSFeSHSFeS2FeS2FeSFeS3FeS2FeS2FeSFeS3CH2C4HCS2CHC2HSHC3H3CSFeCHCH4CH2SFeNHC2HC2NC2H2FeC6H4C6H4C6H4C6H8FeH4FeHCH3C6H4C6H4C6H4CHCNHC2H5CHCH3CNHC5SHCS2HSH3N2C2H2CH8NSHFeHSHSNHCHC4SH2SCHCHSCH2FeNHCFeSHCHFeHSHSCSFeSFeS2FeSCFeS2FeSFeS3FeS2FeS3HFeSCH2C2FeS2FeSFeSFeS3HCSFeHSHSCHCHC5H3FeS2FeSHSFeSCFeS2FeSFeS3FeS2FeS2FeSFeS3CFeSHFeS2FeSFeS3H2SC4HSCHC8H4C3H2CH4SCHS2C6H4C2HCHCHCSHC6H4C2H2C6H4NH2CFeC2SH5FeCH3CFeC4HCH2SHC4SH2C4HC3H2C6H5S2FeCH2C6H5C6H4C6H4C6H4C3FeHCH4C6H4C2HCH2SH3CHC3NC3NC6H8NC6H5CHC2H2CSHCH3NC2H2CN2C6H8FeHCSCFeHFeC2HCH3CHNC5H2CH3CNCNC6H15C5H2NC6H10NC6H8NC6H5CSCNCHC3HCFeC2H4SCNH5C2FeH2SH2SC3HNH2CHSCNC2SCHC2HNCHCH4SH2C2NC2HCSCH2C2H6CSFeH2CSHCNCHSH3CHC2SHC3H2C2H4CH3CSC2FeH2CH2CHCH4SCH2C2SC2H2C2HCHFeS2NCFeSHSCSHFeSFeS2FeSFeS3FeSH2SFeSCS2CFeS2FeS2HCFeS3NCHFeHCSFeS2FeS2FeSFeS3FeS2FeS2FeSFeS3CS2CHCHFeS2FeS2HC2FeS2FeSFeS3HCFeSCFeSCS3FeSFeSFeS2C6H3SC6H4C6H4C3S2CH2CHC6H4C6H4CHC7H4C6H3CHCHCFeH2C5NC2HC2HCH2FeH2C6H4C6H4C6H4FeSH2SC2H2C7H4C6H4C2H2CH2SHC3H5C2HCSC2SNC6H8C2HFeHC6HFeHCH2NC3HCHCHNC6H8C2HC2HSC5S2HFeSH2C2H10SNC4HC2H3CH3FeCH4CHSCNH2FeC2HSHNSC2H3SCSCSC2H2CNH2C3H2SCH2C2SCH2CH3SC7H2CHCHNC6H8NC6H9NC6H11NH2NC6H6SH2C2H4SHCHCHCHCSFeH2C2HCH4CH2FeCH2CHSHC2H4S2CHSCHFe2H2C2H2CHCFeC3HCHCHC2FeH2CHSHC2SC2SHCSCHCNCHCH3SHCSHCH2C2HNH2CFeC2FeC2HCHNCHFeHC2Fe2C2HSH4CNCFeHC2H4FeSN2CHSCHCH2CNCHCNHSHCHC2H4CH2FeHSFeSHNSHFeS2FeS2FeSFeS3CHCFeHNHSCHCHFeS2FeS2FeSFeS3CNS2HCHSHC2HC3FeSCSNHC2HS3CHSHSC2HC2HCHC2H2CH2C2FeH3FeC2H3SFeC6H4C6H4NHC2H2CHC2H4C3H3C7H3C6H4C6H6C2HC4NC6H7CH3NHCHC6H3NC6H10FeH5CHCH6FeC2S2FeCSFe2S2FeSFe2S2FeS2FeS2FeSFeS3CFeHSHS2FeS2FeS2FeHFeS3FeS2FeS2Fe2S3C3FeSFeS2FeSFeS3FeS2FeS2Fe2S3FeSCFeS2FeSFeS4HCHCFeS2FeS2FeSFeS3HFeS2CSCFeSFeHSHFeS2FeS2FeS3FeSFeS2FeS2FeS2Fe2S3C6H4C6H4C7H3C6H4C2H2C2HC6H4CNHC2HCHC9H4C3H7C6H4N2C2H2C2H2C6H4C2H2C6H4C6H5SC2H2C9H4C6H4C6H4C3HC2H4C6H4C2HC6H4C6H4CHC2HCH3C2HSNCHCH2SCHC3H3CHNC6H10NC2H7NHC4H3SCSC2NC2SHCH4NC6H5FeH3C3HSC2NH3CH3CNC6H12CHCHC3H2CH3NCHC2HCH6CSFeCH2C2HCSCHSHC4HC2HC4NC5H6CHSH3FeHFeSCNC6H8NC6H8NC6H11N2FeCH5CNC6H8NHCNHCS2H3CHSH2SCH3SC2HC2HSHC5HCHCHSCH2C2HCH2CH2CHC3SC5HFeH2C2SHC4FeH2C3HNHCNC2HNCH3CHCHSCHCH4CH3CH3CH2C3H4CH5SC7FeCH3CH2C2HCSFeC2HC2H2NCSHSC2H2NCHCH3CH3CHCNH2CH2CNSHC5HC4H2FeH2CHC2HSC3HC3HCH3S3FeC4HCHCNCH2CH5C2H2NSH4SHC2SH5CSC2HFeCSCSHCNSC2NCSC2SCFe2SH4SHSH2FeS2FeS2FeSFeS3FeS2FeSFeSFeS3FeS2FeS2FeSFeS3HCSHFeSHS2CSH3CH3SCHC2FeCHCSC2H3FeCSCHC3HCHSCH4NCHCNC7H2C7H4C6H3C4H2CH2SC2H4C6H4C6H4FeHSCH3CSC7H4SFeHC7H6CH2NH4CHCHFeH4C7H2CH6FeH2C2HC2HC2HNC6H8CHCH2CN2HC2HC2HCH2NCH2C3H4CNCNH2C5HCNCHFeH6C2SHCHCSHFeSHSCHCHC2H3CHCHC3NSCH2FeS2FeS2Fe2S3FeS2FeCHFeSCS3FeSH2SFeSFeSCH2SHFeSHFeSFeSH2FeS2FeS2FeSFeS4CHC4NFe2HCNFeS2FeS2FeSFeS4HSC2H3SCHCHFeSFeSFeS2HSH2CHCHFeSHC2H2C6H5C2H2FeHC6H4C6H5C8HS2CSHS2CHC5H2C7H4C2HC3HCH2C6H4C6H5S2C2HSC6H4C6H2CHC6H4C2HSHC8H4C3HCH3C6H4CH2SCH2CHC2SCHCSH2CNSC2H3FeSH3NCSHCNC6H6NC6H8NC6H7SC2SC2Fe2C2HCHFeHCNC6H8SHCSCHCH2CH2CSHNC6H8NC4H4C2FeCFeSFeCH2CHSC2HCHC2H4CHC2NHCSN2HCSHFeCHCHC3HC2SFeSHFeHC2HC2H2CH2CHCHCH2NCHC2HCH3CH2NCHC5Fe2SCNSCSCH2C2HC2H3FeHSH3NH3C3H2SHC2HNFeC2H3FeCHCN2CSHCH4SHC2HC2H2FeH9SHNH2SC2HCH2CSFeC2H4CH7SH2CHSCFeS2FeHCFeSH2S2FeSCFeS2FeSFeS3CSCFeS2C2H2S2HFeS2FeS2FeSFeS3FeS2FeSC3FeSHSFeS2FeS2FeSFeS3FeSCFeS2FeSFeS3FeS2FeS2FeSFeS3FeS2FeS2FeHFeS3FeSFeS2FeSFeHS2HNSHSC3HCHC6H4CHCHC4H2C2NC6H4C6H4C2FeH4CHC10H4C3H2CH4C2FeC7H6C2H2C2HC7H4C3H2C6H4C6H4FeSC2HC2HSH6CSH2C3H2C6H4CFeC7H4C3HCSHSH2CHC7H4NHCNHCHCHNC2HCHCHC4H3CHC4SH5CH2CFe2H2NC3FeHCH3C2H3NC6H8NC5H8CSHCH4C2H5C2SC2HNC6H8CHCNSHC3HC2H2C2HC2HC2HCHNH2C3HCH4CSCH2C4H3CH2CSHNHCNC4SH2C2HCH3C4H2C2H4C3H2SCHCSCHCNHCHC2HNHNHC5H2CH4CHC2H3CH2C2HC5NHCSH2SNCHNHFeHC2HCH2SH3C2HCH4CHCH3CHCH3C2SHCHC3HFeSFeCH3CHC2HCH3CH2CSC3HC4HNHCH2C2NCHCH6CH2SCH7FeNH2CH2FeCH2C3S2CH2CSCH3C2H3SHFeCSH2CSCNHC2H5C2HC2H2NH2NSH3CSCHCH3S2CHFeS2FeS2FeSFeS3HCH3FeS2C2FeSCSFeS2FeS2FeSFeS3FeCSH2NH2CSCSCSHFeS2NHFeSCSC5HC2HCH2C6HCH4FeHCH2SCHCHC6H4C6H5CNFeH2CHCHC6H4C6H4C2HC3HCH2C6H4C2H3CH3C2HCH2C3HNH2C7H6C4HCNHCH3CHCH5C2FeNH2CHC2H4C3HCH2NH2C3HCH2NHFeHC2H4CHCH3NHCFeS2CSHFeS2FeS2FeS2FeSFeS3HFeS2FeS2FeS2FeSFeS3FeS2FeS2FeSFeS3FeS2FeS2FeSFeCSFeS3FeS2FeS2FeSFeHS2HFeS2FeS2FeS2FeSFeS3FeS2FeS2FeSFeS3FeS2FeS2FeS2FeS2FeSFeS3FeSFeS2FeSHS2FeS2FeSHFeSFeS3FeS2FeSFeSCS2C6H4C6H2C6H4C6H4C4HCH3C6H4C6H4C6H4C6H4C6H4C6H4C6H4C6H3C4H3C2HC3FeH2C6H4C6H4C6H4C6H4C2HC5HC7H4C6H5C3H2C6H4C6H5C3HSH2C2H3SCHC3H2CHFeHC6FeH4CHCFeHC2HCFeC3H4C4HNC4HCH8NC5H9NC5H2SH2NC6H2CH2CNC6H10NC6H10C3H2CHCSHCH4NC6H8SHCH2CHCNSHC3HNC6H8C4H2CSNH4CH2CHFeHC2NHCH2FeCH2CHCH3FeNSCS2CHSHCHCNHCH2SHFeH2SC3SCHCSC2HCNC3H3CH2CHC2HC2HNCNFeH4SHCH7CHC5H4CH2C2SH3CSCH2S2N2C4HCFeH2CH3SC2HNH2C2SC2S2CHCH2CH4CHC2HCNHC3H2C2H2C3NFeCHC2HC2H2CHCNH2C2NHCH2SCH3CH3C2HFeHCHSH4FeC2NH2C3NCH2CH2C2NHC2H4C4HSH3CH5NHCHCH5SCH2CHSCHC2HN2SCH3CH2C3H2CHCH2FeS2FeS2FeSFeS3FeS2FeS2FeHFeS4CHC3H2FeSHFeS2FeS2FeSFeS3FeS2FeS2HNFeCS2HS2HCH2NHS2C2SH4C3HC2H2CFeHCHC2H3CH3C2HC2HCHCH3C6H4C6H4C6H4C6H5C2NC6HNH2C2H2C2H3C2SCNC6H4C6H4C6H4C6H4CH3C2SHCHCHCHC3H7CH2C2H3CNHCSNCH2CHC7H2C4HNH3NCFeNC6H9CHCHSH2CSC2H3CH2NH3C2HCH2CH4CHCHCH2C2H2NSCFeHCHSCFeCH2CHC
_chemical_formula_sum              "C4608 H4608 N384 S1536 Fe768"
_cell_length_a       98.4289
_cell_length_b       98.1004
_cell_length_c       97.6625
_cell_angle_alpha    74.7103
_cell_angle_beta     74.7859
_cell_angle_gamma    74.7121

_space_group_name_H-M_alt    "P 1"
_space_group_IT_number       1

loop_
  _space_group_symop_operation_xyz
  'x, y, z'

loop_
  _atom_site_type_symbol
  _atom_site_label
  _atom_site_symmetry_multiplicity
  _atom_site_fract_x
  _atom_site_fract_y
  _atom_site_fract_z
  _atom_site_occupancy
  C   C1        1.0  0.42399  0.33001  0.11050  1.0000
  H   H1        1.0  0.26694  0.30793  0.08094  1.0000
  C   C2        1.0  0.40049  0.18372  0.16192  1.0000
  N   N1        1.0  0.27033  0.28690  0.09460  1.0000
  C   C3        1.0  0.36773  0.24528  0.15676  1.0000
  S   S1        1.0  0.15651  0.30123  0.04561  1.0000
  H   H2        1.0  0.23072  0.03545  0.10231  1.0000
  C   C4        1.0  0.35885  0.14550  0.16543  1.0000
  C   C5        1.0  0.26089  0.29107  0.10655  1.0000
  H   H3        1.0  0.25682  0.30245  0.10674  1.0000
  H   H4        1.0  0.29364  0.12884  0.04842  1.0000
  C   C6        1.0  0.12588  0.31179  0.11941  1.0000
  S   S2        1.0  0.27581  0.17470  0.00731  1.0000
  H   H5        1.0  0.39011  0.39057  0.16886  1.0000
  Fe  Fe1       1.0  0.17579  0.25625  0.02573  1.0000
  H   H6        1.0  0.34424  0.11795  0.17651  1.0000
  C   C7        1.0  0.36704  0.13390  0.15897  1.0000
  S   S3        1.0  0.32634  0.11173  0.15273  1.0000
  Fe  Fe2       1.0  0.30997  0.15267  0.14450  1.0000
  S   S4        1.0  0.32702  0.14166  0.12845  1.0000
  S   S5        1.0  0.30031  0.17632  0.13946  1.0000
  Fe  Fe3       1.0  0.31402  0.12436  0.13527  1.0000
  S   S6        1.0  0.30906  0.11784  0.11672  1.0000
  Fe  Fe4       1.0  0.33733  0.13045  0.14750  1.0000
  S   S7        1.0  0.15848  0.25103  0.01824  1.0000
  S   S8        1.0  0.29620  0.13621  0.15018  1.0000
  S   S9        1.0  0.32119  0.14281  0.16300  1.0000
  Fe  Fe5       1.0  0.25885  0.04416  0.09608  1.0000
  S   S10       1.0  0.24839  0.05863  0.07805  1.0000
  S   S11       1.0  0.25948  0.02002  0.10325  1.0000
  Fe  Fe6       1.0  0.26074  0.06998  0.10772  1.0000
  S   S12       1.0  0.24989  0.08622  0.09091  1.0000
  S   S13       1.0  0.26533  0.07677  0.12634  1.0000
  Fe  Fe7       1.0  0.23516  0.07102  0.09500  1.0000
  S   S14       1.0  0.21142  0.07849  0.09650  1.0000
  Fe  Fe8       1.0  0.26421  0.07245  0.07552  1.0000
  S   S15       1.0  0.27545  0.08427  0.05420  1.0000
  S   S16       1.0  0.24451  0.05594  0.11323  1.0000
  S   S17       1.0  0.27615  0.05686  0.09216  1.0000
  H   H7        1.0  0.20738  0.35037  0.12704  1.0000
  H   H8        1.0  0.03045  0.16947  0.16224  1.0000
  C   C8        1.0  0.25870  0.19951  0.01601  1.0000
  Fe  Fe9       1.0  0.40772  0.34637  0.15429  1.0000
  S   S18       1.0  0.17851  0.09475  0.15673  1.0000
  S   S19       1.0  0.39570  0.34671  0.13713  1.0000
  H   H9        1.0  0.21717  0.38637  0.14562  1.0000
  C   C9        1.0  0.27539  0.29788  0.08224  1.0000
  H   H10       1.0  0.27818  0.29400  0.07190  1.0000
  S   S20       1.0  0.41034  0.36697  0.15850  1.0000
  C   C10       1.0  0.26034  0.38675  0.08323  1.0000
  Fe  Fe10      1.0  0.30175  0.21834  0.06526  1.0000
  S   S21       1.0  0.30116  0.23446  0.04405  1.0000
  S   S22       1.0  0.31921  0.19991  0.07229  1.0000
  Fe  Fe11      1.0  0.27233  0.23169  0.07999  1.0000
  S   S23       1.0  0.26893  0.24937  0.06060  1.0000
  S   S24       1.0  0.25765  0.22630  0.10149  1.0000
  Fe  Fe12      1.0  0.27822  0.23177  0.04786  1.0000
  S   S25       1.0  0.26455  0.23073  0.03283  1.0000
  Fe  Fe13      1.0  0.29190  0.25072  0.05841  1.0000
  S   S26       1.0  0.29792  0.27190  0.05654  1.0000
  S   S27       1.0  0.27997  0.21408  0.06754  1.0000
  S   S28       1.0  0.29422  0.23484  0.07910  1.0000
  H   H11       1.0  0.34759  0.22106  0.17784  1.0000
  S   S29       1.0  0.23703  0.17005  0.00961  1.0000
  H   H12       1.0  0.11980  0.30404  0.12670  1.0000
  H   H13       1.0  0.28506  0.30054  0.08386  1.0000
  C   C11       1.0  0.00148  0.16662  0.16495  1.0000
  H   H14       1.0  0.31230  0.45195  0.13255  1.0000
  Fe  Fe14      1.0  0.24066  0.14955  0.00192  1.0000
  S   S30       1.0  0.23318  0.13009  0.01712  1.0000
  H   H15       1.0  0.16554  0.30685  0.09093  1.0000
  Fe  Fe15      1.0  0.34138  0.27956  0.12512  1.0000
  S   S31       1.0  0.36292  0.26985  0.11309  1.0000
  S   S32       1.0  0.33010  0.26558  0.14456  1.0000
  Fe  Fe16      1.0  0.34141  0.30849  0.10420  1.0000
  S   S33       1.0  0.36293  0.30091  0.09059  1.0000
  S   S34       1.0  0.33038  0.33171  0.10017  1.0000
  Fe  Fe17      1.0  0.35399  0.28116  0.09315  1.0000
  S   S35       1.0  0.35541  0.26772  0.07702  1.0000
  Fe  Fe18      1.0  0.36914  0.29063  0.11222  1.0000
  S   S36       1.0  0.38873  0.29123  0.12008  1.0000
  S   S37       1.0  0.33201  0.28966  0.10535  1.0000
  S   S38       1.0  0.34810  0.29945  0.12556  1.0000
  H   H16       1.0  0.32192  0.46391  0.14638  1.0000
  C   C12       1.0  0.40680  0.33360  0.09558  1.0000
  H   H17       1.0  0.25141  0.38364  0.08057  1.0000
  H   H18       1.0  0.22441  0.19910  0.00785  1.0000
  C   C13       1.0  0.16220  0.35275  0.17611  1.0000
  H   H19       1.0  0.32020  0.28983  0.17314  1.0000
  H   H20       1.0  0.34090  0.25272  0.11200  1.0000
  S   S39       1.0  0.15355  0.27997  0.98316  1.0000
  C   C14       1.0  0.32024  0.44569  0.13893  1.0000
  C   C15       1.0  0.21627  0.00181  0.09497  1.0000
  Fe  Fe19      1.0  0.19887  0.33104  0.09894  1.0000
  S   S40       1.0  0.21427  0.33821  0.07833  1.0000
  S   S41       1.0  0.17729  0.34383  0.10773  1.0000
  Fe  Fe20      1.0  0.21779  0.30157  0.10614  1.0000
  S   S42       1.0  0.23469  0.30599  0.08616  1.0000
  S   S43       1.0  0.21873  0.28148  0.12352  1.0000
  Fe  Fe21      1.0  0.23126  0.32763  0.09176  1.0000
  S   S44       1.0  0.25077  0.33390  0.09459  1.0000
  Fe  Fe22      1.0  0.21611  0.31586  0.07481  1.0000
  S   S45       1.0  0.21570  0.30903  0.05451  1.0000
  S   S46       1.0  0.21558  0.32241  0.11250  1.0000
  S   S47       1.0  0.19965  0.30956  0.09449  1.0000
  Fe  Fe23      1.0  0.28080  0.36365  0.15840  1.0000
  S   S48       1.0  0.28314  0.37963  0.13717  1.0000
  S   S49       1.0  0.29445  0.34132  0.16155  1.0000
  Fe  Fe24      1.0  0.42133  0.32809  0.17930  1.0000
  S   S50       1.0  0.25557  0.40125  0.15285  1.0000
  C   C16       1.0  0.26031  0.00382  0.06853  1.0000
  Fe  Fe25      1.0  0.25909  0.38341  0.14092  1.0000
  S   S51       1.0  0.24559  0.38522  0.12470  1.0000
  Fe  Fe26      1.0  0.27952  0.39565  0.15127  1.0000
  S   S52       1.0  0.29484  0.41080  0.14592  1.0000
  S   S53       1.0  0.25709  0.36614  0.16097  1.0000
  Fe  Fe27      1.0  0.40244  0.35771  0.18189  1.0000
  H   H21       1.0  0.12152  0.34699  0.10181  1.0000
  S   S54       1.0  0.16129  0.26171  0.04619  1.0000
  H   H22       1.0  0.32008  0.42556  0.13425  1.0000
  C   C17       1.0  0.14074  0.30765  0.11461  1.0000
  Fe  Fe28      1.0  0.14348  0.25890  0.03754  1.0000
  S   S55       1.0  0.12810  0.24553  0.05300  1.0000
  C   C18       1.0  0.21620  0.01335  0.10094  1.0000
  S   S56       1.0  0.99259  0.26795  0.10722  1.0000
  H   H23       1.0  0.16904  0.30520  0.10865  1.0000
  H   H24       1.0  0.30693  0.43096  0.18066  1.0000
  S   S57       1.0  0.10807  0.32213  0.15348  1.0000
  S   S58       1.0  0.14736  0.29858  0.15678  1.0000
  H   H25       1.0  0.22419  0.37660  0.16134  1.0000
  C   C19       1.0  0.33552  0.44416  0.15517  1.0000
  Fe  Fe29      1.0  0.09609  0.30666  0.15081  1.0000
  S   S59       1.0  0.08912  0.30805  0.13014  1.0000
  H   H26       1.0  0.39712  0.12739  0.17267  1.0000
  H   H27       1.0  0.10897  0.12842  0.15633  1.0000
  H   H28       1.0  0.35936  0.20115  0.14305  1.0000
  N   N2        1.0  0.01368  0.15775  0.16903  1.0000
  Fe  Fe30      1.0  0.04780  0.26324  0.08790  1.0000
  S   S60       1.0  0.03091  0.27838  0.10059  1.0000
  S   S61       1.0  0.06133  0.27299  0.06682  1.0000
  Fe  Fe31      1.0  0.04151  0.23665  0.11017  1.0000
  S   S62       1.0  0.02449  0.24950  0.12462  1.0000
  S   S63       1.0  0.04422  0.21264  0.11839  1.0000
  Fe  Fe32      1.0  0.01695  0.26230  0.10437  1.0000
  H   H29       1.0  0.26155  0.25156  0.00469  1.0000
  Fe  Fe33      1.0  0.03978  0.26424  0.11970  1.0000
  S   S64       1.0  0.04259  0.27089  0.13896  1.0000
  S   S65       1.0  0.03302  0.24833  0.09004  1.0000
  S   S66       1.0  0.05765  0.25029  0.10690  1.0000
  C   C20       1.0  0.14168  0.33135  0.10065  1.0000
  N   N3        1.0  0.15549  0.22214  0.00524  1.0000
  C   C21       1.0  0.05355  0.20714  0.13264  1.0000
  C   C22       1.0  0.06457  0.21382  0.13235  1.0000
  C   C23       1.0  0.07164  0.20976  0.14398  1.0000
  C   C24       1.0  0.06757  0.19918  0.15609  1.0000
  C   C25       1.0  0.05658  0.19243  0.15638  1.0000
  C   C26       1.0  0.04970  0.19629  0.14458  1.0000
  H   H30       1.0  0.06781  0.22195  0.12304  1.0000
  H   H31       1.0  0.08020  0.21493  0.14366  1.0000
  H   H32       1.0  0.05322  0.18444  0.16576  1.0000
  H   H33       1.0  0.04116  0.19114  0.14484  1.0000
  C   C27       1.0  0.07611  0.29783  0.13247  1.0000
  C   C28       1.0  0.06850  0.29272  0.14633  1.0000
  C   C29       1.0  0.05801  0.28478  0.14811  1.0000
  C   C30       1.0  0.05525  0.28160  0.13607  1.0000
  C   C31       1.0  0.06300  0.28647  0.12217  1.0000
  C   C32       1.0  0.07335  0.29469  0.12037  1.0000
  H   H34       1.0  0.07050  0.29506  0.15571  1.0000
  H   H35       1.0  0.05209  0.28098  0.15888  1.0000
  H   H36       1.0  0.06089  0.28402  0.11285  1.0000
  H   H37       1.0  0.07924  0.29860  0.10965  1.0000
  C   C33       1.0  0.30030  0.43288  0.17290  1.0000
  C   C34       1.0  0.22848  0.35179  0.15463  1.0000
  C   C35       1.0  0.13699  0.22475  0.02662  1.0000
  H   H38       1.0  0.99371  0.24189  0.13084  1.0000
  C   C36       1.0  0.25628  0.21174  0.02199  1.0000
  C   C37       1.0  0.10949  0.25300  0.05620  1.0000
  C   C38       1.0  0.10028  0.24567  0.06758  1.0000
  C   C39       1.0  0.08546  0.25162  0.07082  1.0000
  C   C40       1.0  0.07974  0.26488  0.06260  1.0000
  C   C41       1.0  0.08892  0.27210  0.05105  1.0000
  C   C42       1.0  0.10377  0.26622  0.04790  1.0000
  H   H39       1.0  0.10462  0.23540  0.07400  1.0000
  H   H40       1.0  0.07846  0.24586  0.07959  1.0000
  H   H41       1.0  0.08453  0.28233  0.04461  1.0000
  H   H42       1.0  0.11075  0.27191  0.03906  1.0000
  S   S67       1.0  0.11262  0.28691  0.15708  1.0000
  H   H43       1.0  0.39703  0.19364  0.16651  1.0000
  C   C43       1.0  0.22344  0.33855  0.13962  1.0000
  C   C44       1.0  0.06907  0.23990  0.17525  1.0000
  C   C45       1.0  0.32463  0.43074  0.14002  1.0000
  C   C46       1.0  0.01640  0.14324  0.16943  1.0000
  H   H44       1.0  0.22929  0.03586  0.07081  1.0000
  H   H45       1.0  0.20529  0.37898  0.16200  1.0000
  H   H46       1.0  0.23901  0.32976  0.15330  1.0000
  H   H47       1.0  0.02423  0.21460  0.09758  1.0000
  C   C47       1.0  0.16887  0.33198  0.12221  1.0000
  C   C48       1.0  0.17686  0.31848  0.12761  1.0000
  C   C49       1.0  0.17008  0.30836  0.13821  1.0000
  C   C50       1.0  0.15526  0.31166  0.14349  1.0000
  C   C51       1.0  0.14721  0.32528  0.13836  1.0000
  C   C52       1.0  0.15405  0.33550  0.12778  1.0000
  H   H48       1.0  0.18827  0.31563  0.12351  1.0000
  H   H49       1.0  0.17637  0.29785  0.14218  1.0000
  H   H50       1.0  0.13579  0.32800  0.14256  1.0000
  H   H51       1.0  0.14784  0.34598  0.12367  1.0000
  C   C53       1.0  0.19912  0.30720  0.05200  1.0000
  C   C54       1.0  0.18594  0.31297  0.06028  1.0000
  C   C55       1.0  0.17294  0.31120  0.05812  1.0000
  C   C56       1.0  0.17303  0.30339  0.04792  1.0000
  H   H52       1.0  0.14782  0.33909  0.09338  1.0000
  C   C57       1.0  0.19918  0.29959  0.04165  1.0000
  H   H53       1.0  0.18575  0.31909  0.06807  1.0000
  H   H54       1.0  0.16278  0.31596  0.06431  1.0000
  C   C58       1.0  0.24758  0.34701  0.10509  1.0000
  C   C59       1.0  0.25686  0.34566  0.11434  1.0000
  C   C60       1.0  0.25579  0.35698  0.12118  1.0000
  C   C61       1.0  0.24566  0.36985  0.11850  1.0000
  C   C62       1.0  0.23602  0.37096  0.10972  1.0000
  C   C63       1.0  0.23688  0.35953  0.10314  1.0000
  H   H55       1.0  0.26521  0.33603  0.11586  1.0000
  H   H56       1.0  0.26328  0.35600  0.12794  1.0000
  H   H57       1.0  0.22813  0.38088  0.10762  1.0000
  H   H58       1.0  0.22973  0.36071  0.09597  1.0000
  C   C64       1.0  0.29278  0.44689  0.16811  1.0000
  C   C65       1.0  0.37865  0.19362  0.15178  1.0000
  C   C66       1.0  0.29980  0.42139  0.16707  1.0000
  C   C67       1.0  0.29176  0.42383  0.15642  1.0000
  C   C68       1.0  0.28372  0.43768  0.15214  1.0000
  C   C69       1.0  0.28415  0.44913  0.15804  1.0000
  H   H59       1.0  0.13372  0.23310  0.00485  1.0000
  H   H60       1.0  0.35834  0.15975  0.17923  1.0000
  H   H61       1.0  0.27774  0.43975  0.14369  1.0000
  H   H62       1.0  0.27829  0.45992  0.15426  1.0000
  C   C70       1.0  0.32044  0.33447  0.11717  1.0000
  C   C71       1.0  0.31880  0.34760  0.12111  1.0000
  C   C72       1.0  0.31092  0.34966  0.13486  1.0000
  C   C73       1.0  0.30457  0.33866  0.14454  1.0000
  C   C74       1.0  0.30636  0.32549  0.14064  1.0000
  C   C75       1.0  0.31436  0.32337  0.12697  1.0000
  H   H63       1.0  0.32377  0.35607  0.11361  1.0000
  H   H64       1.0  0.31001  0.35965  0.13807  1.0000
  H   H65       1.0  0.30143  0.31698  0.14812  1.0000
  H   H66       1.0  0.31563  0.31320  0.12393  1.0000
  C   C76       1.0  0.25296  0.13706  0.04904  1.0000
  H   H67       1.0  0.21956  0.25217  0.99908  1.0000
  C   C77       1.0  0.19516  0.23414  0.00269  1.0000
  C   C78       1.0  0.35027  0.23060  0.17009  1.0000
  Fe  Fe34      1.0  0.15475  0.27432  0.00697  1.0000
  C   C79       1.0  0.37733  0.41135  0.17238  1.0000
  C   C80       1.0  0.24560  0.24139  0.10709  1.0000
  C   C81       1.0  0.24333  0.25461  0.09729  1.0000
  C   C82       1.0  0.23438  0.26684  0.10214  1.0000
  C   C83       1.0  0.22799  0.26592  0.11686  1.0000
  C   C84       1.0  0.22992  0.25259  0.12657  1.0000
  C   C85       1.0  0.23866  0.24031  0.12167  1.0000
  H   H68       1.0  0.24859  0.25546  0.08603  1.0000
  H   H69       1.0  0.23269  0.27700  0.09454  1.0000
  H   H70       1.0  0.22491  0.25184  0.13795  1.0000
  H   H71       1.0  0.24035  0.23007  0.12927  1.0000
  C   C86       1.0  0.26705  0.21423  0.02748  1.0000
  N   N4        1.0  0.14841  0.31739  0.10532  1.0000
  C   C87       1.0  0.28250  0.19193  0.02147  1.0000
  C   C88       1.0  0.28007  0.20415  0.02744  1.0000
  H   H72       1.0  0.29275  0.18436  0.02115  1.0000
  H   H73       1.0  0.28847  0.20599  0.03158  1.0000
  C   C89       1.0  0.31390  0.27059  0.06226  1.0000
  C   C90       1.0  0.31559  0.28210  0.06724  1.0000
  C   C91       1.0  0.32817  0.28125  0.07197  1.0000
  C   C92       1.0  0.33940  0.26909  0.07125  1.0000
  C   C93       1.0  0.33789  0.25778  0.06583  1.0000
  C   C94       1.0  0.32505  0.25835  0.06169  1.0000
  H   H74       1.0  0.30722  0.29176  0.06732  1.0000
  H   H75       1.0  0.32938  0.29023  0.07569  1.0000
  H   H76       1.0  0.34671  0.24858  0.06475  1.0000
  H   H77       1.0  0.32399  0.24957  0.05754  1.0000
  H   H78       1.0  0.22552  0.32882  0.13547  1.0000
  H   H79       1.0  0.25710  0.15481  0.03107  1.0000
  C   C95       1.0  0.22547  0.01515  0.07129  1.0000
  N   N5        1.0  0.33126  0.22904  0.09849  1.0000
  H   H80       1.0  0.28063  0.23136  0.00009  1.0000
  H   H81       1.0  0.24614  0.21944  0.02204  1.0000
  C   C96       1.0  0.25913  0.12542  0.05890  1.0000
  H   H82       1.0  0.38087  0.41688  0.16135  1.0000
  H   H83       1.0  0.24811  0.28406  0.12773  1.0000
  C   C97       1.0  0.23106  0.33908  0.14959  1.0000
  C   C98       1.0  0.39201  0.33082  0.13479  1.0000
  C   C99       1.0  0.39987  0.31710  0.13986  1.0000
  C   C100      1.0  0.39834  0.30492  0.13577  1.0000
  C   C101      1.0  0.38876  0.30631  0.12680  1.0000
  C   C102      1.0  0.38022  0.31989  0.12251  1.0000
  C   C103      1.0  0.38193  0.33210  0.12639  1.0000
  H   H84       1.0  0.40763  0.31596  0.14636  1.0000
  H   H85       1.0  0.40486  0.29443  0.13930  1.0000
  H   H86       1.0  0.37278  0.32112  0.11562  1.0000
  H   H87       1.0  0.37579  0.34267  0.12243  1.0000
  C   C104      1.0  0.25608  0.28074  0.11853  1.0000
  H   H88       1.0  0.20334  0.37268  0.13623  1.0000
  H   H89       1.0  0.17729  0.31334  0.16277  1.0000
  C   C105      1.0  0.34312  0.25306  0.15333  1.0000
  C   C106      1.0  0.35712  0.25540  0.15021  1.0000
  C   C107      1.0  0.27552  0.27255  0.09441  1.0000
  H   H90       1.0  0.41054  0.35058  0.10350  1.0000
  C   C108      1.0  0.33022  0.29354  0.16853  1.0000
  H   H91       1.0  0.35977  0.26514  0.14293  1.0000
  C   C109      1.0  0.41366  0.33922  0.10300  1.0000
  C   C110      1.0  0.26366  0.09704  0.04400  1.0000
  C   C111      1.0  0.24888  0.09736  0.04772  1.0000
  C   C112      1.0  0.23962  0.10761  0.03943  1.0000
  C   C113      1.0  0.24501  0.11783  0.02765  1.0000
  C   C114      1.0  0.25976  0.11773  0.02414  1.0000
  C   C115      1.0  0.26910  0.10722  0.03217  1.0000
  H   H92       1.0  0.24459  0.08958  0.05686  1.0000
  H   H93       1.0  0.22822  0.10763  0.04222  1.0000
  H   H94       1.0  0.26403  0.12560  0.01515  1.0000
  H   H95       1.0  0.28052  0.10707  0.02935  1.0000
  C   C116      1.0  0.30640  0.18395  0.12122  1.0000
  C   C117      1.0  0.32022  0.17868  0.11371  1.0000
  C   C118      1.0  0.32427  0.18372  0.09869  1.0000
  C   C119      1.0  0.31451  0.19409  0.09119  1.0000
  C   C120      1.0  0.30091  0.19970  0.09885  1.0000
  C   C121      1.0  0.29695  0.19483  0.11384  1.0000
  H   H96       1.0  0.32782  0.17078  0.11949  1.0000
  H   H97       1.0  0.33488  0.17945  0.09288  1.0000
  H   H98       1.0  0.29306  0.20726  0.09322  1.0000
  H   H99       1.0  0.28624  0.19895  0.11958  1.0000
  C   C122      1.0  0.29685  0.10642  0.11962  1.0000
  C   C123      1.0  0.29468  0.10244  0.10765  1.0000
  C   C124      1.0  0.28506  0.09339  0.10954  1.0000
  C   C125      1.0  0.27749  0.08825  0.12343  1.0000
  C   C126      1.0  0.27959  0.09230  0.13539  1.0000
  C   C127      1.0  0.28922  0.10134  0.13351  1.0000
  H   H100      1.0  0.30064  0.10623  0.09691  1.0000
  H   H101      1.0  0.28363  0.09022  0.10029  1.0000
  H   H102      1.0  0.27381  0.08833  0.14616  1.0000
  H   H103      1.0  0.29083  0.10430  0.14279  1.0000
  C   C128      1.0  0.23996  0.25328  0.00257  1.0000
  C   C129      1.0  0.21623  0.20879  0.00639  1.0000
  H   H104      1.0  0.23443  0.35206  0.16239  1.0000
  C   C130      1.0  0.46947  0.36135  0.17264  1.0000
  C   C131      1.0  0.27387  0.10524  0.99347  1.0000
  C   C132      1.0  0.18748  0.08964  0.14021  1.0000
  C   C133      1.0  0.19674  0.07614  0.13975  1.0000
  C   C134      1.0  0.20442  0.07273  0.12633  1.0000
  C   C135      1.0  0.20240  0.08265  0.11340  1.0000
  C   C136      1.0  0.19289  0.09597  0.11390  1.0000
  C   C137      1.0  0.18564  0.09956  0.12727  1.0000
  H   H105      1.0  0.19822  0.06843  0.14969  1.0000
  H   H106      1.0  0.21163  0.06234  0.12598  1.0000
  H   H107      1.0  0.19128  0.10362  0.10391  1.0000
  H   H108      1.0  0.17850  0.11002  0.12757  1.0000
  C   C138      1.0  0.27192  0.18967  0.01556  1.0000
  H   H109      1.0  0.28310  0.26922  0.08503  1.0000
  C   C139      1.0  0.36961  0.17920  0.14105  1.0000
  H   H110      1.0  0.01850  0.17195  0.17943  1.0000
  H   H111      1.0  0.23596  0.26803  0.06511  1.0000
  H   H112      1.0  0.25235  0.11846  0.06654  1.0000
  C   C140      1.0  0.99419  0.14620  0.16181  1.0000
  C   C141      1.0  0.19860  0.22482  0.99304  1.0000
  H   H113      1.0  0.17482  0.00263  0.16962  1.0000
  H   H114      1.0  0.27470  0.25056  0.10583  1.0000
  H   H115      1.0  0.16202  0.30694  0.17500  1.0000
  N   N6        1.0  0.13351  0.12116  0.17726  1.0000
  H   H116      1.0  0.00148  0.25410  0.08235  1.0000
  C   C142      1.0  0.22089  0.00277  0.08003  1.0000
  H   H117      1.0  0.10735  0.32932  0.11850  1.0000
  H   H118      1.0  0.14596  0.02007  0.16138  1.0000
  C   C143      1.0  0.16382  0.31258  0.09984  1.0000
  C   C144      1.0  0.20210  0.23064  0.01435  1.0000
  C   C145      1.0  0.12683  0.33589  0.10539  1.0000
  C   C146      1.0  0.14288  0.10972  0.17214  1.0000
  H   H119      1.0  0.27690  0.38350  0.10205  1.0000
  S   S68       1.0  0.27882  0.37926  0.17224  1.0000
  H   H120      1.0  0.26946  0.11227  0.17903  1.0000
  C   C147      1.0  0.26109  0.01312  0.07698  1.0000
  C   C148      1.0  0.14147  0.22708  0.01151  1.0000
  H   H121      1.0  0.34826  0.15066  0.16327  1.0000
  S   S69       1.0  0.36094  0.12719  0.14710  1.0000
  H   H122      1.0  0.26444  0.02324  0.07179  1.0000
  C   C149      1.0  0.25799  0.00906  0.09213  1.0000
  C   C150      1.0  0.21328  0.35064  0.13490  1.0000
  C   C151      1.0  0.42731  0.31523  0.11051  1.0000
  H   H123      1.0  0.16930  0.32188  0.09566  1.0000
  H   H124      1.0  0.25156  0.99252  0.11042  1.0000
  C   C152      1.0  0.11889  0.32600  0.11477  1.0000
  C   C153      1.0  0.33957  0.42921  0.15616  1.0000
  C   C154      1.0  0.14054  0.01153  0.16808  1.0000
  H   H125      1.0  0.09022  0.26205  0.14163  1.0000
  H   H126      1.0  0.39840  0.34060  0.09014  1.0000
  C   C155      1.0  0.22003  0.08898  0.14813  1.0000
  C   C156      1.0  0.07364  0.24952  0.14989  1.0000
  N   N7        1.0  0.42045  0.30979  0.10330  1.0000
  C   C157      1.0  0.41032  0.31875  0.09588  1.0000
  C   C158      1.0  0.14797  0.99885  0.14781  1.0000
  C   C159      1.0  0.37843  0.14414  0.17709  1.0000
  H   H127      1.0  0.40450  0.31439  0.09060  1.0000
  H   H128      1.0  0.40219  0.17433  0.17108  1.0000
  H   H129      1.0  0.12181  0.24856  0.98360  1.0000
  H   H130      1.0  0.30040  0.34057  0.09859  1.0000
  H   H131      1.0  0.99932  0.17811  0.16462  1.0000
  H   H132      1.0  0.28953  0.10358  0.06325  1.0000
  H   H133      1.0  0.31986  0.31592  0.16399  1.0000
  C   C160      1.0  0.27379  0.36210  0.08171  1.0000
  H   H134      1.0  0.38727  0.11863  0.15662  1.0000
  H   H135      1.0  0.26537  0.39409  0.07363  1.0000
  C   C161      1.0  0.18621  0.29752  0.03975  1.0000
  N   N8        1.0  0.27359  0.12256  0.05858  1.0000
  H   H136      1.0  0.17649  0.21108  0.00879  1.0000
  H   H137      1.0  0.28333  0.11453  0.07696  1.0000
  Fe  Fe35      1.0  0.25944  0.17098  0.99696  1.0000
  C   C162      1.0  0.20274  0.26650  0.06236  1.0000
  H   H138      1.0  0.36555  0.30692  0.15074  1.0000
  C   C163      1.0  0.25606  0.99059  0.07512  1.0000
  C   C164      1.0  0.39117  0.16953  0.15076  1.0000
  C   C165      1.0  0.01269  0.21690  0.10187  1.0000
  C   C166      1.0  0.38119  0.16783  0.14375  1.0000
  H   H139      1.0  0.36159  0.17784  0.13599  1.0000
  Fe  Fe36      1.0  0.25523  0.38348  0.17272  1.0000
  S   S70       1.0  0.07592  0.19518  0.17094  1.0000
  H   H140      1.0  0.20931  0.29517  0.03515  1.0000
  C   C167      1.0  0.14697  0.21742  0.03532  1.0000
  C   C168      1.0  0.33010  0.30827  0.16319  1.0000
  H   H141      1.0  0.14783  0.09557  0.15711  1.0000
  H   H142      1.0  0.26296  0.00692  0.05682  1.0000
  C   C169      1.0  0.14191  0.34846  0.16963  1.0000
  N   N9        1.0  0.26045  0.23587  0.99368  1.0000
  H   H143      1.0  0.23018  0.23178  0.98629  1.0000
  S   S71       1.0  0.19181  0.05528  0.18041  1.0000
  H   H144      1.0  0.25539  0.39270  0.09220  1.0000
  H   H145      1.0  0.24247  0.24693  0.05341  1.0000
  H   H146      1.0  0.30510  0.23145  0.12873  1.0000
  H   H147      1.0  0.37758  0.20379  0.15480  1.0000
  N   N10       1.0  0.23294  0.06509  0.15682  1.0000
  C   C170      1.0  0.20673  0.25468  0.05562  1.0000
  H   H148      1.0  0.23469  0.22764  0.04864  1.0000
  C   C171      1.0  0.46506  0.36948  0.15974  1.0000
  H   H149      1.0  0.34075  0.40141  0.16090  1.0000
  S   S72       1.0  0.08221  0.30550  0.17317  1.0000
  H   H150      1.0  0.32876  0.23899  0.16600  1.0000
  C   C172      1.0  0.35612  0.28845  0.16122  1.0000
  H   H151      1.0  0.21917  0.04802  0.09088  1.0000
  S   S73       1.0  0.36253  0.43814  0.17712  1.0000
  S   S74       1.0  0.17333  0.27905  0.01317  1.0000
  H   H152      1.0  0.18726  0.24411  0.00102  1.0000
  N   N11       1.0  0.09485  0.28967  0.07430  1.0000
  C   C173      1.0  0.10241  0.27617  0.07926  1.0000
  C   C174      1.0  0.10191  0.30002  0.06521  1.0000
  C   C175      1.0  0.11743  0.27273  0.07506  1.0000
  C   C176      1.0  0.11694  0.29697  0.06087  1.0000
  C   C177      1.0  0.12471  0.28323  0.06584  1.0000
  C   C178      1.0  0.07910  0.29320  0.07855  1.0000
  H   H153      1.0  0.09683  0.26784  0.08618  1.0000
  H   H154      1.0  0.09591  0.31068  0.06120  1.0000
  H   H155      1.0  0.12335  0.26186  0.07858  1.0000
  H   H156      1.0  0.12260  0.30512  0.05359  1.0000
  H   H157      1.0  0.13634  0.28072  0.06242  1.0000
  H   H158      1.0  0.07428  0.29645  0.06876  1.0000
  H   H159      1.0  0.07466  0.28379  0.08561  1.0000
  H   H160      1.0  0.07554  0.30214  0.08452  1.0000
  H   H161      1.0  0.15234  0.10431  0.17667  1.0000
  H   H162      1.0  0.03168  0.15564  0.17849  1.0000
  C   C179      1.0  0.23628  0.11731  0.98676  1.0000
  N   N12       1.0  0.38975  0.18226  0.15476  1.0000
  C   C180      1.0  0.36435  0.23285  0.16664  1.0000
  C   C181      1.0  0.34332  0.28360  0.16756  1.0000
  H   H163      1.0  0.42187  0.28820  0.11531  1.0000
  C   C182      1.0  0.47256  0.38008  0.15103  1.0000
  C   C183      1.0  0.16972  0.31403  0.17336  1.0000
  C   C184      1.0  0.36833  0.19221  0.14504  1.0000
  H   H164      1.0  0.27251  0.40885  0.17948  1.0000
  H   H165      1.0  0.43506  0.30808  0.11670  1.0000
  H   H166      1.0  0.12596  0.22902  0.03160  1.0000
  H   H167      1.0  0.23152  0.11129  0.99755  1.0000
  H   H168      1.0  0.33988  0.44927  0.16114  1.0000
  H   H169      1.0  0.23083  0.12885  0.98621  1.0000
  C   C185      1.0  0.27636  0.14287  0.03869  1.0000
  H   H170      1.0  0.25213  0.05404  0.14484  1.0000
  H   H171      1.0  0.14611  0.29663  0.11845  1.0000
  N   N13       1.0  0.29662  0.16418  0.09874  1.0000
  C   C186      1.0  0.28843  0.17615  0.09164  1.0000
  C   C187      1.0  0.29196  0.15866  0.11312  1.0000
  C   C188      1.0  0.27543  0.18323  0.09914  1.0000
  C   C189      1.0  0.27912  0.16555  0.12098  1.0000
  C   C190      1.0  0.27087  0.17796  0.11393  1.0000
  C   C191      1.0  0.31043  0.15700  0.09101  1.0000
  H   H172      1.0  0.29220  0.18066  0.08026  1.0000
  H   H173      1.0  0.29836  0.14905  0.11863  1.0000
  H   H174      1.0  0.26920  0.19306  0.09370  1.0000
  H   H175      1.0  0.27584  0.16152  0.13254  1.0000
  H   H176      1.0  0.26112  0.18370  0.11997  1.0000
  H   H177      1.0  0.31885  0.15477  0.09745  1.0000
  H   H178      1.0  0.30943  0.14652  0.08940  1.0000
  H   H179      1.0  0.31425  0.16385  0.08035  1.0000
  N   N14       1.0  0.21872  0.36371  0.14975  1.0000
  C   C192      1.0  0.21106  0.36322  0.14011  1.0000
  C   C193      1.0  0.21618  0.37706  0.15496  1.0000
  C   C194      1.0  0.27099  0.26193  0.10623  1.0000
  C   C195      1.0  0.26122  0.26609  0.11835  1.0000
  C   C196      1.0  0.21284  0.21812  0.01602  1.0000
  Fe  Fe37      1.0  0.15748  0.28434  0.03322  1.0000
  C   C197      1.0  0.33806  0.40696  0.15014  1.0000
  H   H180      1.0  0.25729  0.25799  0.12743  1.0000
  H   H181      1.0  0.21838  0.21549  0.02489  1.0000
  S   S75       1.0  0.19755  0.24190  0.02677  1.0000
  H   H182      1.0  0.46934  0.38641  0.14107  1.0000
  H   H183      1.0  0.28611  0.34041  0.08112  1.0000
  C   C198      1.0  0.27905  0.37417  0.09721  1.0000
  C   C199      1.0  0.23703  0.23623  0.99027  1.0000
  H   H184      1.0  0.41781  0.41950  0.15590  1.0000
  H   H185      1.0  0.12590  0.10752  0.14689  1.0000
  S   S76       1.0  0.13840  0.28205  0.02587  1.0000
  H   H186      1.0  0.36634  0.28077  0.16005  1.0000
  C   C200      1.0  0.22042  0.03746  0.09873  1.0000
  C   C201      1.0  0.21297  0.09000  0.16232  1.0000
  N   N15       1.0  0.33388  0.42266  0.14887  1.0000
  C   C202      1.0  0.32564  0.45240  0.14668  1.0000
  H   H187      1.0  0.37858  0.24711  0.15418  1.0000
  H   H188      1.0  0.19850  0.25127  0.05257  1.0000
  H   H189      1.0  0.24158  0.13903  0.04902  1.0000
  H   H190      1.0  0.18643  0.29159  0.03178  1.0000
  H   H191      1.0  0.34175  0.33014  0.13858  1.0000
  H   H192      1.0  0.35200  0.33162  0.15083  1.0000
  H   H193      1.0  0.22971  0.01567  0.05977  1.0000
  C   C203      1.0  0.00664  0.13724  0.16597  1.0000
  H   H194      1.0  0.48969  0.39101  0.14805  1.0000
  H   H195      1.0  0.05376  0.22560  0.16711  1.0000
  H   H196      1.0  0.14367  0.21598  0.04704  1.0000
  H   H197      1.0  0.28318  0.14962  0.03075  1.0000
  H   H198      1.0  0.25045  0.19782  0.01157  1.0000
  C   C204      1.0  0.48140  0.36386  0.17657  1.0000
  C   C205      1.0  0.28433  0.34993  0.08555  1.0000
  H   H199      1.0  0.22147  0.99372  0.07530  1.0000
  S   S77       1.0  0.26354  0.14962  0.99050  1.0000
  H   H200      1.0  0.26745  0.36181  0.07426  1.0000
  N   N16       1.0  0.25186  0.11575  0.98488  1.0000
  N   N17       1.0  0.16227  0.32908  0.17340  1.0000
  H   H201      1.0  0.07101  0.25135  0.13934  1.0000
  H   H202      1.0  0.16914  0.20692  0.03550  1.0000
  H   H203      1.0  0.01459  0.22645  0.11846  1.0000
  C   C206      1.0  0.24284  0.05167  0.15376  1.0000
  H   H204      1.0  0.22685  0.23924  0.03373  1.0000
  C   C207      1.0  0.16123  0.21239  0.02885  1.0000
  H   H205      1.0  0.21310  0.99203  0.10187  1.0000
  H   H206      1.0  0.16970  0.21752  0.98555  1.0000
  S   S78       1.0  0.45057  0.36720  0.15339  1.0000
  H   H207      1.0  0.34866  0.24016  0.09156  1.0000
  C   C208      1.0  0.23127  0.25230  0.05605  1.0000
  C   C209      1.0  0.42391  0.29419  0.10385  1.0000
  H   H208      1.0  0.14295  0.36894  0.17310  1.0000
  H   H209      1.0  0.32752  0.22611  0.07912  1.0000
  C   C210      1.0  0.26167  0.14582  0.03889  1.0000
  C   C211      1.0  0.05366  0.23684  0.16077  1.0000
  C   C212      1.0  0.29229  0.34999  0.09542  1.0000
  H   H210      1.0  0.27243  0.10326  0.07508  1.0000
  C   C213      1.0  0.28218  0.13113  0.04868  1.0000
  C   C214      1.0  0.22767  0.26417  0.06268  1.0000
  C   C215      1.0  0.35559  0.30327  0.15593  1.0000
  C   C216      1.0  0.33907  0.23819  0.09966  1.0000
  C   C217      1.0  0.33559  0.22187  0.08614  1.0000
  H   H211      1.0  0.34622  0.22360  0.07934  1.0000
  H   H212      1.0  0.33638  0.21002  0.08997  1.0000
  H   H213      1.0  0.14098  0.99580  0.14230  1.0000
  H   H214      1.0  0.31915  0.24832  0.13086  1.0000
  C   C218      1.0  0.38644  0.13252  0.17069  1.0000
  C   C219      1.0  0.28003  0.11046  0.06901  1.0000
  H   H215      1.0  0.00848  0.12565  0.16694  1.0000
  S   S79       1.0  0.43059  0.33546  0.15564  1.0000
  H   H216      1.0  0.15797  0.99030  0.14791  1.0000
  H   H217      1.0  0.29563  0.36227  0.10913  1.0000
  C   C220      1.0  0.33477  0.24531  0.11125  1.0000
  N   N18       1.0  0.27119  0.37396  0.08764  1.0000
  C   C221      1.0  0.28965  0.36218  0.10131  1.0000
  C   C222      1.0  0.02410  0.16401  0.17240  1.0000
  H   H218      1.0  0.21041  0.28044  0.07107  1.0000
  H   H219      1.0  0.34714  0.42291  0.16297  1.0000
  H   H220      1.0  0.02595  0.13614  0.17283  1.0000
  H   H221      1.0  0.00735  0.20824  0.08629  1.0000
  C   C223      1.0  0.12811  0.11145  0.15531  1.0000
  C   C224      1.0  0.31915  0.22665  0.10873  1.0000
  H   H222      1.0  0.31296  0.21940  0.10778  1.0000
  H   H223      1.0  0.21746  0.09771  0.13911  1.0000
  H   H224      1.0  0.23542  0.26214  0.00821  1.0000
  C   C225      1.0  0.22483  0.23528  0.04567  1.0000
  C   C226      1.0  0.14853  0.35783  0.17286  1.0000
  H   H225      1.0  0.24735  0.04520  0.16335  1.0000
  H   H226      1.0  0.19159  0.27221  0.06446  1.0000
  N   N19       1.0  0.14057  0.99994  0.16273  1.0000
  N   N20       1.0  0.34269  0.31295  0.15693  1.0000
  C   C227      1.0  0.31463  0.23346  0.12057  1.0000
  C   C228      1.0  0.32251  0.24288  0.12179  1.0000
  C   C229      1.0  0.16534  0.21486  0.01370  1.0000
  H   H227      1.0  0.21611  0.22910  0.04884  1.0000
  H   H228      1.0  0.41703  0.29108  0.09828  1.0000
  C   C230      1.0  0.36460  0.15072  0.17439  1.0000
  C   C231      1.0  0.41694  0.41163  0.16607  1.0000
  Fe  Fe38      1.0  0.23051  0.18113  0.98831  1.0000
  H   H229      1.0  0.42892  0.33423  0.11679  1.0000
  C   C232      1.0  0.21330  0.27118  0.06599  1.0000
  Fe  Fe39      1.0  0.43233  0.35499  0.16260  1.0000
  Fe  Fe40      1.0  0.30946  0.12505  0.16703  1.0000
  H   H230      1.0  0.32907  0.40260  0.14915  1.0000
  H   H231      1.0  0.38220  0.15760  0.14086  1.0000
  H   H232      1.0  0.43536  0.29070  0.09865  1.0000
  Fe  Fe41      1.0  0.12337  0.30215  0.16176  1.0000
  H   H233      1.0  0.41087  0.18427  0.15406  1.0000
  N   N21       1.0  0.22081  0.24755  0.05286  1.0000
  H   H234      1.0  0.43408  0.39519  0.15765  1.0000
  C   C233      1.0  0.33963  0.24074  0.16342  1.0000
  H   H235      1.0  0.23520  0.07556  0.13446  1.0000
  C   C234      1.0  0.16900  0.33828  0.17624  1.0000
  C   C235      1.0  0.22526  0.02648  0.07761  1.0000
  C   C236      1.0  0.25902  0.10666  0.99519  1.0000
  N   N22       1.0  0.22039  0.02559  0.09223  1.0000
  N   N23       1.0  0.06596  0.24194  0.16191  1.0000
  S   S80       1.0  0.39838  0.33788  0.17755  1.0000
  C   C237      1.0  0.25473  0.24727  0.00049  1.0000
  C   C238      1.0  0.22998  0.07635  0.14556  1.0000
  C   C239      1.0  0.48878  0.37463  0.16769  1.0000
  C   C240      1.0  0.14034  0.10468  0.16110  1.0000
  C   C241      1.0  0.00718  0.22367  0.11369  1.0000
  H   H236      1.0  0.22805  0.05695  0.17974  1.0000
  C   C242      1.0  0.34227  0.32826  0.15019  1.0000
  C   C243      1.0  0.23107  0.24769  0.99743  1.0000
  C   C244      1.0  0.20890  0.21197  0.99509  1.0000
  H   H237      1.0  0.21137  0.03859  0.10821  1.0000
  H   H238      1.0  0.25323  0.10069  0.00500  1.0000
  Fe  Fe42      1.0  0.09963  0.28679  0.17952  1.0000
  H   H239      1.0  0.13324  0.26088  0.99547  1.0000
  H   H240      1.0  0.39986  0.16046  0.15331  1.0000
  C   C245      1.0  0.25386  0.99578  0.09871  1.0000
  H   H241      1.0  0.13119  0.35228  0.16726  1.0000
  C   C246      1.0  0.38084  0.12753  0.16161  1.0000
  H   H242      1.0  0.27942  0.09823  0.00185  1.0000
  C   C247      1.0  0.07995  0.24574  0.17686  1.0000
  S   S81       1.0  0.37805  0.22025  0.17425  1.0000
  H   H243      1.0  0.30628  0.41077  0.17023  1.0000
  H   H244      1.0  0.21294  0.01239  0.11260  1.0000
  H   H245      1.0  0.15085  0.00918  0.14124  1.0000
  C   C248      1.0  0.11870  0.12324  0.16048  1.0000
  H   H246      1.0  0.04348  0.24413  0.16479  1.0000
  C   C249      1.0  0.12169  0.12811  0.17138  1.0000
  H   H247      1.0  0.23712  0.04509  0.15045  1.0000
  H   H248      1.0  0.19319  0.22752  0.98406  1.0000
  C   C250      1.0  0.21605  0.07849  0.17375  1.0000
  H   H249      1.0  0.14356  0.32673  0.16781  1.0000
  H   H250      1.0  0.33267  0.33530  0.15564  1.0000
  C   C251      1.0  0.08455  0.25556  0.15110  1.0000
  Fe  Fe43      1.0  0.17684  0.07671  0.17632  1.0000
  C   C252      1.0  0.08765  0.25371  0.16470  1.0000
  Fe  Fe44      1.0  0.09591  0.31885  0.17659  1.0000
  H   H251      1.0  0.15153  0.22603  0.98390  1.0000
  H   H252      1.0  0.05381  0.23685  0.14934  1.0000
  C   C253      1.0  0.22604  0.06598  0.17078  1.0000
  C   C254      1.0  0.13672  0.26111  0.98395  1.0000
  H   H253      1.0  0.34759  0.40425  0.14150  1.0000
  S   S82       1.0  0.29485  0.46202  0.17337  1.0000
  H   H254      1.0  0.20484  0.09955  0.16438  1.0000
  H   H255      1.0  0.28720  0.14444  0.17801  1.0000
  H   H256      1.0  0.09586  0.25860  0.16588  1.0000
  H   H257      1.0  0.34352  0.27214  0.17151  1.0000
  C   C255      1.0  0.48417  0.38267  0.15499  1.0000
  C   C256      1.0  0.14893  0.33401  0.17003  1.0000
  C   C257      1.0  0.42602  0.39798  0.16702  1.0000
  C   C258      1.0  0.13429  0.98890  0.17145  1.0000
  C   C259      1.0  0.25184  0.23043  0.98845  1.0000
  C   C260      1.0  0.16968  0.00004  0.18095  1.0000
  C   C261      1.0  0.38260  0.39642  0.17662  1.0000
  H   H258      1.0  0.17961  0.33443  0.17883  1.0000
  S   S83       1.0  0.21230  0.19988  0.98363  1.0000
  H   H259      1.0  0.46382  0.35308  0.17945  1.0000
  S   S84       1.0  0.17154  0.02719  0.18130  1.0000
  N   N24       1.0  0.99268  0.22685  0.11909  1.0000
  C   C262      1.0  0.00325  0.21326  0.09564  1.0000
  H   H260      1.0  0.11416  0.13712  0.17550  1.0000
  H   H261      1.0  0.16744  0.35991  0.17871  1.0000
  S   S85       1.0  0.32956  0.47070  0.18033  1.0000
  H   H262      1.0  0.16316  0.23647  0.98606  1.0000
  C   C263      1.0  0.27596  0.22972  0.99156  1.0000
  H   H263      1.0  0.27814  0.21782  0.99244  1.0000
  H   H264      1.0  0.43176  0.37728  0.18076  1.0000
  C   C264      1.0  0.40668  0.41504  0.17824  1.0000
  H   H265      1.0  0.39934  0.42553  0.17757  1.0000
  C   C265      1.0  0.16021  0.22569  0.98942  1.0000
  C   C266      1.0  0.42460  0.38785  0.18015  1.0000
  C   C267      1.0  0.25275  0.98665  0.09027  1.0000
  H   H266      1.0  0.25635  0.22137  0.98307  1.0000
  C   C268      1.0  0.13399  0.01230  0.18250  1.0000
  C   C269      1.0  0.36782  0.41921  0.18243  1.0000
  H   H267      1.0  0.17582  0.30965  0.18222  1.0000
  H   H268      1.0  0.22933  0.27438  0.34661  1.0000
  C   C270      1.0  0.99920  0.13345  0.20346  1.0000
  C   C271      1.0  0.20204  0.28523  0.37247  1.0000
  H   H269      1.0  0.40236  0.27035  0.24874  1.0000
  S   S86       1.0  0.36071  0.24930  0.33311  1.0000
  C   C272      1.0  0.15843  0.19006  0.22594  1.0000
  H   H270      1.0  0.27946  0.25239  0.34124  1.0000
  H   H271      1.0  0.22346  0.47379  0.31885  1.0000
  C   C273      1.0  0.12664  0.17630  0.22511  1.0000
  S   S87       1.0  0.33338  0.22495  0.35128  1.0000
  Fe  Fe45      1.0  0.22593  0.14196  0.22916  1.0000
  S   S88       1.0  0.23521  0.12672  0.24756  1.0000
  S   S89       1.0  0.23950  0.15294  0.20915  1.0000
  Fe  Fe46      1.0  0.19520  0.14011  0.24492  1.0000
  S   S90       1.0  0.20223  0.12493  0.26456  1.0000
  S   S91       1.0  0.17163  0.14631  0.24455  1.0000
  Fe  Fe47      1.0  0.21757  0.13949  0.26172  1.0000
  S   S92       1.0  0.22051  0.15067  0.27804  1.0000
  Fe  Fe48      1.0  0.21900  0.11404  0.24802  1.0000
  S   S93       1.0  0.22518  0.09004  0.24912  1.0000
  S   S94       1.0  0.20911  0.15549  0.24318  1.0000
  S   S95       1.0  0.21106  0.12839  0.22860  1.0000
  Fe  Fe49      1.0  0.18994  0.05987  0.20222  1.0000
  S   S96       1.0  0.17663  0.08204  0.19725  1.0000
  S   S97       1.0  0.21021  0.05509  0.21079  1.0000
  C   C274      1.0  0.99222  0.14761  0.20470  1.0000
  N   N25       1.0  0.12668  0.22946  0.32574  1.0000
  C   C275      1.0  0.49051  0.28563  0.26171  1.0000
  C   C276      1.0  0.25656  0.08943  0.21674  1.0000
  Fe  Fe50      1.0  0.15778  0.07130  0.20615  1.0000
  S   S98       1.0  0.14020  0.08389  0.22089  1.0000
  C   C277      1.0  0.32751  0.14495  0.20649  1.0000
  S   S99       1.0  0.17115  0.04906  0.21290  1.0000
  Fe  Fe51      1.0  0.30501  0.16980  0.31836  1.0000
  S   S100      1.0  0.29539  0.19339  0.31594  1.0000
  S   S101      1.0  0.32331  0.15861  0.32978  1.0000
  Fe  Fe52      1.0  0.28463  0.16471  0.30187  1.0000
  S   S102      1.0  0.27324  0.18797  0.29828  1.0000
  S   S103      1.0  0.28006  0.14745  0.29327  1.0000
  Fe  Fe53      1.0  0.29539  0.19254  0.29322  1.0000
  S   S104      1.0  0.30304  0.20951  0.27454  1.0000
  Fe  Fe54      1.0  0.27439  0.18640  0.32130  1.0000
  S   S105      1.0  0.25596  0.19521  0.33775  1.0000
  S   S106      1.0  0.30687  0.16936  0.29512  1.0000
  S   S107      1.0  0.28392  0.16268  0.32553  1.0000
  Fe  Fe55      1.0  0.46193  0.22956  0.26316  1.0000
  S   S108      1.0  0.44777  0.24362  0.27831  1.0000
  S   S109      1.0  0.48633  0.22436  0.25920  1.0000
  Fe  Fe56      1.0  0.43606  0.22718  0.25200  1.0000
  S   S110      1.0  0.42017  0.24124  0.26629  1.0000
  S   S111      1.0  0.42952  0.22146  0.23399  1.0000
  Fe  Fe57      1.0  0.43676  0.25500  0.25971  1.0000
  S   S112      1.0  0.43140  0.27935  0.25373  1.0000
  Fe  Fe58      1.0  0.43279  0.22839  0.28330  1.0000
  S   S113      1.0  0.42340  0.21842  0.30629  1.0000
  S   S114      1.0  0.45187  0.24181  0.24430  1.0000
  S   S115      1.0  0.44777  0.21326  0.26942  1.0000
  C   C278      1.0  0.22889  0.19054  0.32264  1.0000
  Fe  Fe59      1.0  0.34747  0.18675  0.21067  1.0000
  S   S116      1.0  0.36329  0.16847  0.22077  1.0000
  S   S117      1.0  0.32450  0.18434  0.21789  1.0000
  Fe  Fe60      1.0  0.37069  0.20199  0.19137  1.0000
  S   S118      1.0  0.38840  0.18474  0.19964  1.0000
  Fe  Fe61      1.0  0.37573  0.16951  0.19786  1.0000
  N   N26       1.0  0.48424  0.27128  0.24872  1.0000
  Fe  Fe62      1.0  0.37416  0.18573  0.22154  1.0000
  S   S119      1.0  0.38122  0.18619  0.24175  1.0000
  Fe  Fe63      1.0  0.34084  0.20914  0.37025  1.0000
  S   S120      1.0  0.35709  0.20403  0.21337  1.0000
  H   H272      1.0  0.31754  0.15278  0.20866  1.0000
  S   S121      1.0  0.42843  0.30433  0.18786  1.0000
  C   C279      1.0  0.12228  0.09077  0.20157  1.0000
  S   S122      1.0  0.30936  0.43165  0.23799  1.0000
  Fe  Fe64      1.0  0.23160  0.41253  0.29318  1.0000
  S   S123      1.0  0.20854  0.42444  0.29693  1.0000
  S   S124      1.0  0.24360  0.39966  0.31074  1.0000
  Fe  Fe65      1.0  0.23520  0.42062  0.26041  1.0000
  S   S125      1.0  0.21243  0.43286  0.26148  1.0000
  S   S126      1.0  0.24931  0.41978  0.23838  1.0000
  Fe  Fe66      1.0  0.21652  0.44192  0.27867  1.0000
  Fe  Fe67      1.0  0.17181  0.04623  0.19048  1.0000
  Fe  Fe68      1.0  0.20690  0.41421  0.27938  1.0000
  S   S127      1.0  0.19065  0.40058  0.28205  1.0000
  S   S128      1.0  0.23972  0.43073  0.27632  1.0000
  S   S129      1.0  0.22952  0.40128  0.27689  1.0000
  S   S130      1.0  0.09413  0.26638  0.19396  1.0000
  Fe  Fe69      1.0  0.16138  0.37518  0.22733  1.0000
  S   S131      1.0  0.17670  0.35377  0.23054  1.0000
  S   S132      1.0  0.16452  0.39574  0.23138  1.0000
  Fe  Fe70      1.0  0.14308  0.36414  0.21307  1.0000
  S   S133      1.0  0.15703  0.34196  0.21500  1.0000
  S   S134      1.0  0.12424  0.37244  0.20204  1.0000
  Fe  Fe71      1.0  0.15679  0.34444  0.23730  1.0000
  S   S135      1.0  0.15217  0.32624  0.25620  1.0000
  Fe  Fe72      1.0  0.17538  0.35347  0.20808  1.0000
  S   S136      1.0  0.14141  0.36595  0.23591  1.0000
  S   S137      1.0  0.16149  0.37553  0.20424  1.0000
  C   C280      1.0  0.36778  0.21788  0.31549  1.0000
  H   H273      1.0  0.20258  0.32883  0.37654  1.0000
  C   C281      1.0  0.26549  0.41350  0.18877  1.0000
  H   H274      1.0  0.29379  0.21193  0.37137  1.0000
  C   C282      1.0  0.22370  0.47765  0.30735  1.0000
  S   S138      1.0  0.21212  0.35628  0.36094  1.0000
  H   H275      1.0  0.47067  0.27419  0.23404  1.0000
  H   H276      1.0  0.47699  0.25555  0.24251  1.0000
  H   H277      1.0  0.20512  0.42193  0.21562  1.0000
  Fe  Fe73      1.0  0.13121  0.20572  0.27648  1.0000
  S   S139      1.0  0.10977  0.21826  0.28592  1.0000
  S   S140      1.0  0.14242  0.18595  0.28989  1.0000
  Fe  Fe74      1.0  0.13415  0.22749  0.24808  1.0000
  S   S141      1.0  0.11330  0.24194  0.25568  1.0000
  S   S142      1.0  0.14560  0.23498  0.22543  1.0000
  Fe  Fe75      1.0  0.12066  0.23721  0.27663  1.0000
  S   S143      1.0  0.12001  0.25479  0.28811  1.0000
  Fe  Fe76      1.0  0.10512  0.22127  0.26372  1.0000
  S   S144      1.0  0.08535  0.22024  0.25658  1.0000
  S   S145      1.0  0.14227  0.22442  0.26818  1.0000
  S   S146      1.0  0.12581  0.20710  0.25517  1.0000
  Fe  Fe77      1.0  0.04720  0.16105  0.20836  1.0000
  C   C283      1.0  0.36326  0.41196  0.19664  1.0000
  S   S147      1.0  0.02286  0.16401  0.21215  1.0000
  Fe  Fe78      1.0  0.07290  0.16296  0.21980  1.0000
  S   S148      1.0  0.08824  0.16065  0.19865  1.0000
  S   S149      1.0  0.08292  0.16347  0.23811  1.0000
  H   H278      1.0  0.46317  0.26707  0.25270  1.0000
  Fe  Fe79      1.0  0.07705  0.14349  0.19882  1.0000
  C   C284      1.0  0.47681  0.22062  0.31126  1.0000
  S   S150      1.0  0.05593  0.17970  0.20964  1.0000
  S   S151      1.0  0.06276  0.14446  0.22077  1.0000
  Fe  Fe80      1.0  0.18653  0.27541  0.34637  1.0000
  S   S152      1.0  0.20248  0.28865  0.33278  1.0000
  C   C285      1.0  0.27029  0.28263  0.36982  1.0000
  Fe  Fe81      1.0  0.18267  0.26588  0.32034  1.0000
  S   S153      1.0  0.19847  0.27854  0.30479  1.0000
  S   S154      1.0  0.17533  0.24971  0.31250  1.0000
  Fe  Fe82      1.0  0.21190  0.26997  0.32175  1.0000
  S   S155      1.0  0.23594  0.26243  0.31599  1.0000
  Fe  Fe83      1.0  0.18745  0.29588  0.31745  1.0000
  S   S156      1.0  0.18291  0.31948  0.30730  1.0000
  S   S157      1.0  0.19702  0.25603  0.33651  1.0000
  S   S158      1.0  0.17049  0.28400  0.33181  1.0000
  C   C286      1.0  0.15989  0.25193  0.30557  1.0000
  C   C287      1.0  0.14939  0.26474  0.30451  1.0000
  C   C288      1.0  0.13725  0.26566  0.29893  1.0000
  C   C289      1.0  0.13559  0.25382  0.29441  1.0000
  C   C290      1.0  0.14613  0.24111  0.29552  1.0000
  C   C291      1.0  0.15823  0.24021  0.30098  1.0000
  H   H279      1.0  0.15057  0.27385  0.30805  1.0000
  H   H280      1.0  0.12909  0.27553  0.29819  1.0000
  H   H281      1.0  0.14481  0.23176  0.29259  1.0000
  H   H282      1.0  0.16629  0.23027  0.30179  1.0000
  C   C292      1.0  0.08542  0.20458  0.25074  1.0000
  C   C293      1.0  0.09383  0.19117  0.25577  1.0000
  C   C294      1.0  0.09295  0.17869  0.25178  1.0000
  C   C295      1.0  0.08397  0.17955  0.24241  1.0000
  C   C296      1.0  0.07587  0.19302  0.23699  1.0000
  C   C297      1.0  0.07647  0.20545  0.24131  1.0000
  H   H283      1.0  0.10067  0.19032  0.26315  1.0000
  H   H284      1.0  0.09923  0.16832  0.25606  1.0000
  H   H285      1.0  0.06895  0.19384  0.22972  1.0000
  H   H286      1.0  0.06993  0.21579  0.23737  1.0000
  C   C298      1.0  0.20926  0.41176  0.22237  1.0000
  H   H287      1.0  0.33929  0.15447  0.21592  1.0000
  C   C299      1.0  0.26296  0.47168  0.27179  1.0000
  S   S159      1.0  0.42456  0.34685  0.18634  1.0000
  C   C300      1.0  0.22201  0.38884  0.36687  1.0000
  N   N27       1.0  0.26993  0.40516  0.20230  1.0000
  S   S160      1.0  0.06080  0.15872  0.18646  1.0000
  H   H288      1.0  0.20541  0.28657  0.36088  1.0000
  C   C301      1.0  0.28832  0.26116  0.36521  1.0000
  C   C302      1.0  0.16004  0.32511  0.27070  1.0000
  C   C303      1.0  0.15822  0.31400  0.28297  1.0000
  C   C304      1.0  0.16531  0.31223  0.29421  1.0000
  C   C305      1.0  0.17384  0.32188  0.29341  1.0000
  C   C306      1.0  0.17521  0.33335  0.28143  1.0000
  C   C307      1.0  0.16837  0.33492  0.27003  1.0000
  H   H289      1.0  0.15142  0.30666  0.28379  1.0000
  H   H290      1.0  0.16407  0.30348  0.30355  1.0000
  H   H291      1.0  0.18183  0.34082  0.28082  1.0000
  H   H292      1.0  0.16963  0.34364  0.26073  1.0000
  C   C308      1.0  0.10900  0.25655  0.20148  1.0000
  C   C309      1.0  0.12247  0.26028  0.19589  1.0000
  C   C310      1.0  0.13397  0.25328  0.20290  1.0000
  C   C311      1.0  0.13190  0.24269  0.21558  1.0000
  C   C312      1.0  0.11854  0.23869  0.22086  1.0000
  C   C313      1.0  0.10712  0.24554  0.21379  1.0000
  C   C314      1.0  0.20195  0.37255  0.19348  1.0000
  H   H293      1.0  0.14430  0.25636  0.19873  1.0000
  H   H294      1.0  0.11687  0.23036  0.23051  1.0000
  H   H295      1.0  0.09672  0.24263  0.21818  1.0000
  H   H296      1.0  0.11069  0.22732  0.31576  1.0000
  C   C315      1.0  0.11399  0.36151  0.19927  1.0000
  C   C316      1.0  0.11904  0.34667  0.19956  1.0000
  C   C317      1.0  0.04705  0.17086  0.25385  1.0000
  H   H297      1.0  0.12942  0.34136  0.20220  1.0000
  C   C318      1.0  0.23497  0.38643  0.32313  1.0000
  C   C319      1.0  0.22000  0.38810  0.32579  1.0000
  C   C320      1.0  0.21307  0.37850  0.33714  1.0000
  C   C321      1.0  0.22109  0.36710  0.34572  1.0000
  C   C322      1.0  0.23610  0.36502  0.34258  1.0000
  C   C323      1.0  0.24302  0.37473  0.33138  1.0000
  H   H298      1.0  0.21373  0.39708  0.31944  1.0000
  H   H299      1.0  0.20146  0.38012  0.33945  1.0000
  H   H300      1.0  0.24241  0.35610  0.34890  1.0000
  H   H301      1.0  0.25460  0.37333  0.32927  1.0000
  C   C324      1.0  0.18578  0.39870  0.26664  1.0000
  C   C325      1.0  0.18229  0.41078  0.25584  1.0000
  C   C326      1.0  0.17589  0.40963  0.24504  1.0000
  C   C327      1.0  0.17334  0.39633  0.24468  1.0000
  C   C328      1.0  0.17738  0.38409  0.25513  1.0000
  C   C329      1.0  0.18341  0.38533  0.26619  1.0000
  H   H302      1.0  0.18386  0.42118  0.25625  1.0000
  H   H303      1.0  0.17275  0.41915  0.23701  1.0000
  H   H304      1.0  0.17539  0.37380  0.25498  1.0000
  H   H305      1.0  0.18595  0.37598  0.27463  1.0000
  C   C330      1.0  0.29300  0.42780  0.23784  1.0000
  C   C331      1.0  0.28722  0.43271  0.22532  1.0000
  C   C332      1.0  0.27372  0.43033  0.22554  1.0000
  C   C333      1.0  0.26604  0.42293  0.23824  1.0000
  C   C334      1.0  0.27181  0.41801  0.25074  1.0000
  C   C335      1.0  0.28529  0.42044  0.25053  1.0000
  H   H306      1.0  0.29306  0.43848  0.21549  1.0000
  H   H307      1.0  0.26920  0.43431  0.21590  1.0000
  H   H308      1.0  0.26597  0.41220  0.26056  1.0000
  H   H309      1.0  0.28969  0.41670  0.26026  1.0000
  H   H310      1.0  0.34417  0.19858  0.24674  1.0000
  C   C336      1.0  0.17575  0.10579  0.25100  1.0000
  C   C337      1.0  0.02480  0.14305  0.24580  1.0000
  Fe  Fe84      1.0  0.31077  0.45957  0.18733  1.0000
  H   H311      1.0  0.04737  0.13531  0.25838  1.0000
  C   C338      1.0  0.43199  0.28689  0.23514  1.0000
  C   C339      1.0  0.43755  0.27816  0.22491  1.0000
  C   C340      1.0  0.43711  0.28390  0.21030  1.0000
  C   C341      1.0  0.43094  0.29844  0.20576  1.0000
  C   C342      1.0  0.42572  0.30743  0.21583  1.0000
  C   C343      1.0  0.42632  0.30164  0.23053  1.0000
  H   H312      1.0  0.44187  0.26689  0.22818  1.0000
  H   H313      1.0  0.44114  0.27693  0.20255  1.0000
  H   H314      1.0  0.42085  0.31867  0.21238  1.0000
  H   H315      1.0  0.42200  0.30850  0.23838  1.0000
  C   C344      1.0  0.41578  0.21192  0.23661  1.0000
  C   C345      1.0  0.41193  0.21030  0.22435  1.0000
  C   C346      1.0  0.40121  0.20265  0.22584  1.0000
  C   C347      1.0  0.39434  0.19636  0.23963  1.0000
  C   C348      1.0  0.39808  0.19807  0.25193  1.0000
  C   C349      1.0  0.40872  0.20589  0.25045  1.0000
  H   H316      1.0  0.41738  0.21483  0.21361  1.0000
  H   H317      1.0  0.39843  0.20144  0.21629  1.0000
  H   H318      1.0  0.39284  0.19321  0.26263  1.0000
  H   H319      1.0  0.41165  0.20703  0.25995  1.0000
  C   C350      1.0  0.30728  0.20331  0.25836  1.0000
  C   C351      1.0  0.30497  0.18982  0.25841  1.0000
  C   C352      1.0  0.30996  0.18415  0.24582  1.0000
  C   C353      1.0  0.31713  0.19203  0.23315  1.0000
  C   C354      1.0  0.31894  0.20576  0.23291  1.0000
  C   C355      1.0  0.31385  0.21147  0.24548  1.0000
  H   H320      1.0  0.29953  0.18364  0.26819  1.0000
  H   H321      1.0  0.30874  0.17344  0.24607  1.0000
  H   H322      1.0  0.32430  0.21196  0.22305  1.0000
  H   H323      1.0  0.31539  0.22204  0.24532  1.0000
  C   C356      1.0  0.25059  0.21392  0.33186  1.0000
  C   C357      1.0  0.25826  0.22117  0.31907  1.0000
  C   C358      1.0  0.25383  0.23612  0.31435  1.0000
  C   C359      1.0  0.24156  0.24380  0.32226  1.0000
  C   C360      1.0  0.23410  0.23659  0.33522  1.0000
  C   C361      1.0  0.23861  0.22165  0.34003  1.0000
  H   H324      1.0  0.26753  0.21529  0.31268  1.0000
  H   H325      1.0  0.25969  0.24168  0.30436  1.0000
  H   H326      1.0  0.22495  0.24253  0.34166  1.0000
  H   H327      1.0  0.23274  0.21611  0.35002  1.0000
  C   C362      1.0  0.12530  0.09416  0.21333  1.0000
  H   H328      1.0  0.08783  0.31888  0.21660  1.0000
  H   H329      1.0  0.40516  0.19995  0.29618  1.0000
  H   H330      1.0  0.32766  0.19935  0.34810  1.0000
  C   C363      1.0  0.10518  0.11495  0.21237  1.0000
  C   C364      1.0  0.11659  0.10615  0.21886  1.0000
  H   H331      1.0  0.12640  0.13200  0.19499  1.0000
  C   C365      1.0  0.27054  0.08534  0.20899  1.0000
  H   H332      1.0  0.09867  0.12433  0.21651  1.0000
  H   H333      1.0  0.11880  0.10878  0.22804  1.0000
  C   C366      1.0  0.16310  0.15579  0.25848  1.0000
  C   C367      1.0  0.17127  0.15844  0.26688  1.0000
  C   C368      1.0  0.16474  0.16714  0.27709  1.0000
  C   C369      1.0  0.15008  0.17346  0.27868  1.0000
  C   C370      1.0  0.14179  0.17051  0.27059  1.0000
  C   C371      1.0  0.14825  0.16142  0.26071  1.0000
  H   H334      1.0  0.18269  0.15402  0.26540  1.0000
  H   H335      1.0  0.17117  0.16943  0.28333  1.0000
  H   H336      1.0  0.13039  0.17520  0.27201  1.0000
  H   H337      1.0  0.14173  0.15891  0.25476  1.0000
  C   C372      1.0  0.25716  0.14318  0.20480  1.0000
  C   C373      1.0  0.26189  0.12980  0.21344  1.0000
  C   C374      1.0  0.27570  0.12168  0.20936  1.0000
  C   C375      1.0  0.28467  0.12672  0.19636  1.0000
  C   C376      1.0  0.47326  0.26682  0.24423  1.0000
  H   H338      1.0  0.26100  0.45110  0.24956  1.0000
  H   H339      1.0  0.25481  0.12537  0.22298  1.0000
  H   H340      1.0  0.27917  0.11117  0.21594  1.0000
  C   C377      1.0  0.36852  0.19803  0.33687  1.0000
  C   C378      1.0  0.22200  0.35217  0.19159  1.0000
  C   C379      1.0  0.22090  0.08143  0.23752  1.0000
  C   C380      1.0  0.22734  0.06685  0.23796  1.0000
  C   C381      1.0  0.22408  0.05917  0.22947  1.0000
  C   C382      1.0  0.21405  0.06582  0.22065  1.0000
  C   C383      1.0  0.20757  0.08050  0.22001  1.0000
  C   C384      1.0  0.21116  0.08837  0.22832  1.0000
  H   H341      1.0  0.23487  0.06140  0.24500  1.0000
  H   H342      1.0  0.22917  0.04788  0.22999  1.0000
  H   H343      1.0  0.19986  0.08576  0.21315  1.0000
  H   H344      1.0  0.20612  0.09964  0.22789  1.0000
  C   C385      1.0  0.23783  0.15052  0.28005  1.0000
  C   C386      1.0  0.24016  0.16243  0.28388  1.0000
  C   C387      1.0  0.25331  0.16191  0.28738  1.0000
  C   C388      1.0  0.26414  0.14939  0.28719  1.0000
  C   C389      1.0  0.26206  0.13779  0.28264  1.0000
  C   C390      1.0  0.24898  0.13838  0.27900  1.0000
  H   H345      1.0  0.23161  0.17193  0.28454  1.0000
  H   H346      1.0  0.25487  0.17098  0.29068  1.0000
  H   H347      1.0  0.27044  0.12811  0.28238  1.0000
  H   H348      1.0  0.24729  0.12914  0.27607  1.0000
  H   H349      1.0  0.10850  0.09668  0.18614  1.0000
  C   C391      1.0  0.29827  0.26979  0.35758  1.0000
  C   C392      1.0  0.29428  0.28479  0.35613  1.0000
  H   H350      1.0  0.25956  0.38070  0.23243  1.0000
  H   H351      1.0  0.30902  0.26491  0.35264  1.0000
  H   H352      1.0  0.30205  0.29143  0.35027  1.0000
  C   C393      1.0  0.37873  0.24140  0.32656  1.0000
  C   C394      1.0  0.38594  0.24778  0.31293  1.0000
  C   C395      1.0  0.39983  0.24101  0.30679  1.0000
  C   C396      1.0  0.40658  0.22781  0.31428  1.0000
  C   C397      1.0  0.39958  0.22166  0.32812  1.0000
  C   C398      1.0  0.38567  0.22845  0.33426  1.0000
  H   H353      1.0  0.38064  0.25786  0.30698  1.0000
  H   H354      1.0  0.40522  0.24593  0.29621  1.0000
  H   H355      1.0  0.40481  0.21153  0.33403  1.0000
  H   H356      1.0  0.38028  0.22360  0.34487  1.0000
  H   H357      1.0  0.22169  0.42095  0.23139  1.0000
  C   C399      1.0  0.21934  0.38563  0.23974  1.0000
  C   C400      1.0  0.32585  0.18195  0.33946  1.0000
  C   C401      1.0  0.21976  0.46945  0.29971  1.0000
  H   H358      1.0  0.11153  0.24177  0.34010  1.0000
  H   H359      1.0  0.19647  0.37540  0.22609  1.0000
  H   H360      1.0  0.29802  0.48092  0.23618  1.0000
  H   H361      1.0  0.31877  0.18882  0.33246  1.0000
  N   N28       1.0  0.03216  0.15273  0.24893  1.0000
  C   C402      1.0  0.20520  0.39911  0.22241  1.0000
  C   C403      1.0  0.36865  0.39705  0.20091  1.0000
  H   H362      1.0  0.01912  0.17201  0.23906  1.0000
  H   H363      1.0  0.28860  0.41404  0.19771  1.0000
  H   H364      1.0  0.25680  0.47595  0.28129  1.0000
  C   C404      1.0  0.41315  0.38054  0.20569  1.0000
  H   H365      1.0  0.36325  0.11791  0.19744  1.0000
  C   C405      1.0  0.01408  0.15203  0.20869  1.0000
  Fe  Fe85      1.0  0.31778  0.44528  0.21670  1.0000
  H   H366      1.0  0.14429  0.22894  0.33496  1.0000
  H   H367      1.0  0.19894  0.33706  0.35160  1.0000
  H   H368      1.0  0.35661  0.20142  0.33924  1.0000
  C   C406      1.0  0.12839  0.20901  0.31575  1.0000
  H   H369      1.0  0.23621  0.11985  0.18467  1.0000
  C   C407      1.0  0.48871  0.24206  0.27594  1.0000
  H   H370      1.0  0.11232  0.26768  0.22886  1.0000
  H   H371      1.0  0.14778  0.19263  0.31647  1.0000
  C   C408      1.0  0.10230  0.11159  0.20049  1.0000
  H   H372      1.0  0.47711  0.24423  0.27901  1.0000
  C   C409      1.0  0.12763  0.00104  0.19149  1.0000
  S   S161      1.0  0.30079  0.11539  0.19009  1.0000
  C   C410      1.0  0.20951  0.28993  0.38025  1.0000
  H   H373      1.0  0.14186  0.36021  0.26907  1.0000
  H   H374      1.0  0.28490  0.45692  0.23788  1.0000
  H   H375      1.0  0.42088  0.38113  0.21188  1.0000
  Fe  Fe86      1.0  0.31711  0.23549  0.36814  1.0000
  H   H376      1.0  0.01404  0.14878  0.24341  1.0000
  H   H377      1.0  0.25211  0.25746  0.33975  1.0000
  H   H378      1.0  0.17383  0.31489  0.33848  1.0000
  C   C411      1.0  0.40550  0.40463  0.19117  1.0000
  C   C412      1.0  0.16041  0.00670  0.20430  1.0000
  C   C413      1.0  0.20731  0.35809  0.19240  1.0000
  H   H379      1.0  0.15832  0.01443  0.21111  1.0000
  S   S162      1.0  0.17970  0.27388  0.37051  1.0000
  H   H380      1.0  0.16175  0.18130  0.23505  1.0000
  C   C414      1.0  0.11075  0.09938  0.19525  1.0000
  H   H381      1.0  0.12404  0.26864  0.18624  1.0000
  H   H382      1.0  0.21899  0.19674  0.31864  1.0000
  H   H383      1.0  0.11479  0.32751  0.19578  1.0000
  N   N29       1.0  0.14957  0.39030  0.28299  1.0000
  C   C415      1.0  0.14393  0.39379  0.27080  1.0000
  C   C416      1.0  0.15220  0.37627  0.29045  1.0000
  C   C417      1.0  0.14111  0.38305  0.26559  1.0000
  C   C418      1.0  0.14938  0.36528  0.28562  1.0000
  C   C419      1.0  0.14387  0.36870  0.27306  1.0000
  C   C420      1.0  0.15221  0.40175  0.28840  1.0000
  H   H384      1.0  0.14203  0.40486  0.26473  1.0000
  H   H385      1.0  0.15668  0.37349  0.30011  1.0000
  H   H386      1.0  0.13708  0.38587  0.25566  1.0000
  H   H387      1.0  0.40926  0.27976  0.19538  1.0000
  H   H388      1.0  0.15089  0.99076  0.22134  1.0000
  H   H389      1.0  0.15583  0.41042  0.27928  1.0000
  H   H390      1.0  0.14226  0.40650  0.29551  1.0000
  H   H391      1.0  0.16099  0.39754  0.29461  1.0000
  S   S163      1.0  0.38642  0.14992  0.18816  1.0000
  H   H392      1.0  0.28829  0.26677  0.33099  1.0000
  N   N30       1.0  0.08725  0.29691  0.21817  1.0000
  C   C421      1.0  0.46375  0.20919  0.30199  1.0000
  H   H393      1.0  0.49105  0.25484  0.28975  1.0000
  C   C422      1.0  0.27423  0.26759  0.37108  1.0000
  H   H394      1.0  0.06299  0.23387  0.18476  1.0000
  C   C423      1.0  0.21851  0.41121  0.23123  1.0000
  C   C424      1.0  0.28018  0.14033  0.18791  1.0000
  C   C425      1.0  0.30374  0.18942  0.37580  1.0000
  H   H395      1.0  0.21640  0.45942  0.30536  1.0000
  C   C426      1.0  0.45049  0.22432  0.31952  1.0000
  H   H396      1.0  0.22534  0.40345  0.34597  1.0000
  C   C427      1.0  0.07354  0.30061  0.21342  1.0000
  C   C428      1.0  0.21129  0.38116  0.19343  1.0000
  C   C429      1.0  0.28038  0.29120  0.36242  1.0000
  H   H397      1.0  0.22327  0.37548  0.24663  1.0000
  H   H398      1.0  0.41386  0.24288  0.21133  1.0000
  C   C430      1.0  0.20631  0.37299  0.23062  1.0000
  C   C431      1.0  0.02802  0.16740  0.24462  1.0000
  H   H399      1.0  0.15798  0.20540  0.32914  1.0000
  H   H400      1.0  0.25415  0.41344  0.18897  1.0000
  H   H401      1.0  0.12301  0.00121  0.20284  1.0000
  C   C432      1.0  0.27662  0.47462  0.26504  1.0000
  H   H402      1.0  0.33622  0.21120  0.25840  1.0000
  H   H403      1.0  0.23461  0.12798  0.19981  1.0000
  C   C433      1.0  0.11715  0.18918  0.22082  1.0000
  H   H404      1.0  0.14776  0.16674  0.22962  1.0000
  C   C434      1.0  0.12142  0.20230  0.21789  1.0000
  H   H405      1.0  0.22616  0.34093  0.19096  1.0000
  C   C435      1.0  0.27859  0.26232  0.33254  1.0000
  N   N31       1.0  0.41429  0.39118  0.19194  1.0000
  C   C436      1.0  0.24480  0.16664  0.32481  1.0000
  H   H406      1.0  0.12867  0.08137  0.19745  1.0000
  H   H407      1.0  0.11118  0.31285  0.22406  1.0000
  H   H408      1.0  0.47707  0.22775  0.31796  1.0000
  H   H409      1.0  0.05308  0.17788  0.25552  1.0000
  Fe  Fe87      1.0  0.34831  0.23751  0.35365  1.0000
  C   C437      1.0  0.33973  0.14590  0.21059  1.0000
  H   H410      1.0  0.39722  0.40724  0.20046  1.0000
  C   C438      1.0  0.22359  0.39808  0.23999  1.0000
  C   C439      1.0  0.14031  0.17677  0.22649  1.0000
  C   C440      1.0  0.10639  0.30427  0.22352  1.0000
  C   C441      1.0  0.33991  0.17899  0.35766  1.0000
  H   H411      1.0  0.47612  0.19680  0.28582  1.0000
  H   H412      1.0  0.12614  0.25031  0.32895  1.0000
  S   S164      1.0  0.33752  0.45435  0.21217  1.0000
  C   C442      1.0  0.22248  0.16966  0.31818  1.0000
  C   C443      1.0  0.11867  0.24344  0.32920  1.0000
  H   H413      1.0  0.28608  0.09067  0.18929  1.0000
  H   H414      1.0  0.21525  0.36667  0.22373  1.0000
  N   N32       1.0  0.17080  0.27461  0.26979  1.0000
  C   C444      1.0  0.17422  0.26009  0.27011  1.0000
  C   C445      1.0  0.15914  0.28318  0.26443  1.0000
  C   C446      1.0  0.16605  0.25386  0.26465  1.0000
  C   C447      1.0  0.15058  0.27725  0.25916  1.0000
  C   C448      1.0  0.15410  0.26249  0.25925  1.0000
  C   C449      1.0  0.17908  0.28085  0.27613  1.0000
  H   H415      1.0  0.18308  0.25319  0.27494  1.0000
  H   H416      1.0  0.15631  0.29467  0.26430  1.0000
  H   H417      1.0  0.16866  0.24231  0.26509  1.0000
  H   H418      1.0  0.14115  0.28404  0.25525  1.0000
  H   H419      1.0  0.14740  0.25769  0.25544  1.0000
  H   H420      1.0  0.19031  0.27454  0.27564  1.0000
  H   H421      1.0  0.17968  0.29212  0.27023  1.0000
  H   H422      1.0  0.17390  0.28089  0.28771  1.0000
  H   H423      1.0  0.18655  0.06160  0.24105  1.0000
  N   N33       1.0  0.21022  0.38627  0.23105  1.0000
  H   H424      1.0  0.39235  0.22346  0.28387  1.0000
  C   C450      1.0  0.09319  0.30763  0.21925  1.0000
  S   S165      1.0  0.08889  0.12289  0.19132  1.0000
  H   H425      1.0  0.19770  0.39971  0.21578  1.0000
  S   S166      1.0  0.23381  0.31704  0.37059  1.0000
  H   H426      1.0  0.03129  0.13874  0.23608  1.0000
  C   C451      1.0  0.99959  0.15678  0.20747  1.0000
  H   H427      1.0  0.08886  0.27419  0.22157  1.0000
  C   C452      1.0  0.28234  0.40653  0.20514  1.0000
  C   C453      1.0  0.24739  0.10176  0.21068  1.0000
  S   S167      1.0  0.23760  0.38617  0.19228  1.0000
  C   C454      1.0  0.28686  0.39869  0.21794  1.0000
  H   H428      1.0  0.15833  0.20044  0.22863  1.0000
  H   H429      1.0  0.25166  0.39927  0.34382  1.0000
  Fe  Fe88      1.0  0.25478  0.31764  0.37504  1.0000
  H   H430      1.0  0.25949  0.28757  0.37463  1.0000
  H   H431      1.0  0.45361  0.20714  0.30145  1.0000
  H   H432      1.0  0.44439  0.23325  0.31236  1.0000
  H   H433      1.0  0.25320  0.30715  0.34114  1.0000
  C   C455      1.0  0.09377  0.28271  0.22200  1.0000
  H   H434      1.0  0.23827  0.16880  0.23134  1.0000
  C   C456      1.0  0.10701  0.27895  0.22625  1.0000
  H   H435      1.0  0.30353  0.47568  0.25338  1.0000
  C   C457      1.0  0.11340  0.28982  0.22690  1.0000
  C   C458      1.0  0.04372  0.14694  0.25546  1.0000
  C   C459      1.0  0.22594  0.37524  0.19272  1.0000
  H   H436      1.0  0.15156  0.35415  0.29150  1.0000
  H   H437      1.0  0.12373  0.28702  0.23003  1.0000
  H   H438      1.0  0.37269  0.20114  0.34488  1.0000
  H   H439      1.0  0.13847  0.21255  0.21702  1.0000
  H   H440      1.0  0.34204  0.14674  0.34947  1.0000
  H   H441      1.0  0.25216  0.39459  0.20954  1.0000
  H   H442      1.0  0.23073  0.39762  0.24695  1.0000
  H   H443      1.0  0.11205  0.24960  0.32101  1.0000
  C   C460      1.0  0.09724  0.34581  0.19260  1.0000
  C   C461      1.0  0.01367  0.12867  0.20479  1.0000
  H   H444      1.0  0.12392  0.20344  0.31030  1.0000
  H   H445      1.0  0.15935  0.12199  0.24159  1.0000
  H   H446      1.0  0.19117  0.08749  0.25919  1.0000
  H   H447      1.0  0.42023  0.25547  0.19529  1.0000
  C   C462      1.0  0.09212  0.36046  0.19283  1.0000
  C   C463      1.0  0.28762  0.18659  0.35768  1.0000
  S   S168      1.0  0.08592  0.33657  0.18892  1.0000
  H   H448      1.0  0.37104  0.18605  0.33853  1.0000
  C   C464      1.0  0.27860  0.38939  0.22786  1.0000
  H   H449      1.0  0.33147  0.10965  0.19108  1.0000
  H   H450      1.0  0.39727  0.29966  0.20819  1.0000
  H   H451      1.0  0.07314  0.29269  0.20726  1.0000
  C   C465      1.0  0.29873  0.47222  0.24608  1.0000
  Fe  Fe89      1.0  0.22681  0.33967  0.37420  1.0000
  H   H452      1.0  0.12332  0.16607  0.22748  1.0000
  C   C466      1.0  0.26193  0.39579  0.21181  1.0000
  H   H453      1.0  0.27572  0.28993  0.33408  1.0000
  H   H454      1.0  0.31879  0.13333  0.19618  1.0000
  H   H455      1.0  0.25235  0.17109  0.32776  1.0000
  H   H456      1.0  0.31240  0.16656  0.37766  1.0000
  H   H457      1.0  0.03224  0.18828  0.24337  1.0000
  C   C467      1.0  0.12094  0.22243  0.31898  1.0000
  H   H458      1.0  0.20720  0.39250  0.19353  1.0000
  H   H459      1.0  0.40203  0.38234  0.21238  1.0000
  C   C468      1.0  0.37387  0.22469  0.30157  1.0000
  H   H460      1.0  0.35766  0.22342  0.32118  1.0000
  H   H461      1.0  0.36847  0.23529  0.29660  1.0000
  H   H462      1.0  0.26633  0.42497  0.18693  1.0000
  C   C469      1.0  0.27883  0.46101  0.24747  1.0000
  H   H463      1.0  0.30632  0.46240  0.24285  1.0000
  C   C470      1.0  0.12777  0.98925  0.18596  1.0000
  H   H464      1.0  0.21051  0.07906  0.18482  1.0000
  H   H465      1.0  0.35589  0.41791  0.20447  1.0000
  N   N34       1.0  0.22831  0.37948  0.37766  1.0000
  H   H466      1.0  0.26286  0.15896  0.18542  1.0000
  C   C471      1.0  0.16707  0.01016  0.18966  1.0000
  H   H467      1.0  0.08225  0.24434  0.18748  1.0000
  H   H468      1.0  0.21826  0.15082  0.31378  1.0000
  C   C472      1.0  0.25732  0.46313  0.26624  1.0000
  H   H469      1.0  0.35085  0.15719  0.36502  1.0000
  H   H470      1.0  0.99403  0.16765  0.20861  1.0000
  C   C473      1.0  0.27512  0.09353  0.19529  1.0000
  H   H471      1.0  0.10648  0.18900  0.21980  1.0000
  C   C474      1.0  0.03537  0.17667  0.24703  1.0000
  H   H472      1.0  0.23658  0.10489  0.21684  1.0000
  H   H473      1.0  0.26554  0.21110  0.35772  1.0000
  C   C475      1.0  0.19152  0.32980  0.35444  1.0000
  C   C476      1.0  0.33893  0.15826  0.34906  1.0000
  C   C477      1.0  0.33098  0.18794  0.34827  1.0000
  H   H474      1.0  0.22751  0.19151  0.33404  1.0000
  H   H475      1.0  0.22970  0.29949  0.34733  1.0000
  C   C478      1.0  0.38805  0.19834  0.31530  1.0000
  C   C479      1.0  0.32973  0.16702  0.33998  1.0000
  H   H476      1.0  0.45227  0.22869  0.32816  1.0000
  C   C480      1.0  0.23871  0.14633  0.32000  1.0000
  C   C481      1.0  0.14749  0.21001  0.32641  1.0000
  C   C482      1.0  0.38729  0.21810  0.29448  1.0000
  N   N35       1.0  0.25887  0.16858  0.23464  1.0000
  C   C483      1.0  0.26504  0.16972  0.24520  1.0000
  C   C484      1.0  0.26518  0.17226  0.22029  1.0000
  C   C485      1.0  0.27757  0.17522  0.24151  1.0000
  C   C486      1.0  0.27777  0.17773  0.21620  1.0000
  C   C487      1.0  0.28393  0.17930  0.22690  1.0000
  C   C488      1.0  0.24582  0.16270  0.23863  1.0000
  H   H477      1.0  0.26030  0.16639  0.25656  1.0000
  H   H478      1.0  0.26044  0.17097  0.21195  1.0000
  H   H479      1.0  0.28229  0.17628  0.24996  1.0000
  H   H480      1.0  0.28270  0.18075  0.20482  1.0000
  H   H481      1.0  0.29364  0.18363  0.22388  1.0000
  H   H482      1.0  0.23991  0.16340  0.24989  1.0000
  H   H483      1.0  0.24876  0.15123  0.23769  1.0000
  C   C489      1.0  0.13966  0.22331  0.32970  1.0000
  H   H484      1.0  0.25287  0.08319  0.22744  1.0000
  H   H485      1.0  0.21871  0.29463  0.37463  1.0000
  C   C490      1.0  0.23028  0.39633  0.35472  1.0000
  S   S169      1.0  0.34603  0.18550  0.36969  1.0000
  C   C491      1.0  0.29681  0.17439  0.36395  1.0000
  H   H486      1.0  0.17916  0.11338  0.25505  1.0000
  N   N36       1.0  0.28659  0.19987  0.36035  1.0000
  H   H487      1.0  0.44366  0.21621  0.32490  1.0000
  H   H488      1.0  0.27944  0.21340  0.34159  1.0000
  H   H489      1.0  0.39385  0.29506  0.23505  1.0000
  H   H490      1.0  0.21245  0.17647  0.31565  1.0000
  N   N37       1.0  0.37479  0.20477  0.32208  1.0000
  N   N38       1.0  0.23209  0.17526  0.32182  1.0000
  C   C492      1.0  0.26557  0.28646  0.33681  1.0000
  C   C493      1.0  0.35257  0.13593  0.20757  1.0000
  H   H491      1.0  0.36226  0.13684  0.21032  1.0000
  N   N39       1.0  0.17830  0.08162  0.24799  1.0000
  C   C494      1.0  0.16726  0.08625  0.24067  1.0000
  C   C495      1.0  0.16028  0.10081  0.23823  1.0000
  C   C496      1.0  0.18521  0.06624  0.25069  1.0000
  H   H492      1.0  0.16377  0.07868  0.23666  1.0000
  H   H493      1.0  0.15151  0.10436  0.23243  1.0000
  S   S170      1.0  0.38603  0.37084  0.19716  1.0000
  H   H494      1.0  0.17859  0.06022  0.26019  1.0000
  Fe  Fe90      1.0  0.32372  0.47537  0.20287  1.0000
  H   H495      1.0  0.16657  0.18872  0.21583  1.0000
  C   C497      1.0  0.02115  0.13796  0.20722  1.0000
  C   C498      1.0  0.27687  0.21242  0.35356  1.0000
  H   H496      1.0  0.19097  0.33126  0.33204  1.0000
  C   C499      1.0  0.18244  0.09113  0.25333  1.0000
  C   C500      1.0  0.24838  0.15209  0.32383  1.0000
  H   H497      1.0  0.20398  0.36625  0.24171  1.0000
  H   H498      1.0  0.29798  0.16396  0.36139  1.0000
  H   H499      1.0  0.28140  0.18539  0.35055  1.0000
  N   N40       1.0  0.26524  0.27263  0.33666  1.0000
  S   S171      1.0  0.19565  0.34749  0.19200  1.0000
  C   C501      1.0  0.14180  0.20287  0.31933  1.0000
  H   H500      1.0  0.24680  0.46067  0.27140  1.0000
  S   S172      1.0  0.21164  0.46637  0.27584  1.0000
  H   H501      1.0  0.19618  0.06456  0.25277  1.0000
  C   C502      1.0  0.35305  0.12520  0.20032  1.0000
  H   H502      1.0  0.35036  0.10365  0.19080  1.0000
  C   C503      1.0  0.26643  0.14858  0.19216  1.0000
  H   H503      1.0  0.46883  0.28576  0.26094  1.0000
  H   H504      1.0  0.02318  0.13389  0.25515  1.0000
  H   H505      1.0  0.03230  0.13414  0.20814  1.0000
  H   H506      1.0  0.07217  0.31143  0.20599  1.0000
  H   H507      1.0  0.06070  0.15132  0.26290  1.0000
  C   C504      1.0  0.41951  0.25206  0.20720  1.0000
  H   H508      1.0  0.24158  0.13521  0.31866  1.0000
  C   C505      1.0  0.37848  0.38924  0.19098  1.0000
  H   H509      1.0  0.06446  0.30067  0.22296  1.0000
  H   H510      1.0  0.27774  0.22268  0.35578  1.0000
  H   H511      1.0  0.16502  0.30421  0.36437  1.0000
  N   N41       1.0  0.34421  0.18963  0.26907  1.0000
  C   C506      1.0  0.33718  0.19213  0.28254  1.0000
  C   C507      1.0  0.35118  0.17596  0.26733  1.0000
  C   C508      1.0  0.33706  0.18077  0.29472  1.0000
  C   C509      1.0  0.35119  0.16434  0.27926  1.0000
  C   C510      1.0  0.34410  0.16679  0.29304  1.0000
  C   C511      1.0  0.34506  0.20173  0.25655  1.0000
  H   H512      1.0  0.33146  0.20293  0.28390  1.0000
  H   H513      1.0  0.35685  0.17401  0.25666  1.0000
  H   H514      1.0  0.33137  0.18273  0.30538  1.0000
  H   H515      1.0  0.35670  0.15352  0.27780  1.0000
  H   H516      1.0  0.34393  0.15787  0.30240  1.0000
  H   H517      1.0  0.35555  0.20497  0.25433  1.0000
  C   C512      1.0  0.40037  0.28878  0.21436  1.0000
  C   C513      1.0  0.32832  0.13397  0.19941  1.0000
  H   H518      1.0  0.43064  0.24811  0.20920  1.0000
  S   S173      1.0  0.24846  0.34093  0.37637  1.0000
  C   C514      1.0  0.16461  0.11063  0.24339  1.0000
  C   C515      1.0  0.25282  0.29629  0.34078  1.0000
  H   H519      1.0  0.09658  0.37975  0.19562  1.0000
  H   H520      1.0  0.19069  0.37729  0.19385  1.0000
  C   C516      1.0  0.24231  0.12279  0.19115  1.0000
  C   C517      1.0  0.21935  0.47469  0.28502  1.0000
  S   S174      1.0  0.29356  0.24235  0.36746  1.0000
  H   H521      1.0  0.24837  0.13110  0.18413  1.0000
  S   S175      1.0  0.30371  0.46629  0.20877  1.0000
  C   C518      1.0  0.23969  0.29195  0.34438  1.0000
  H   H522      1.0  0.25877  0.14546  0.32555  1.0000
  C   C519      1.0  0.17734  0.31751  0.34695  1.0000
  H   H523      1.0  0.14131  0.11708  0.19664  1.0000
  H   H524      1.0  0.23795  0.19573  0.31593  1.0000
  H   H525      1.0  0.36534  0.39158  0.21203  1.0000
  C   C520      1.0  0.22562  0.15511  0.31726  1.0000
  C   C521      1.0  0.19130  0.32738  0.38014  1.0000
  H   H526      1.0  0.41536  0.36944  0.20373  1.0000
  C   C522      1.0  0.23130  0.36071  0.19185  1.0000
  H   H527      1.0  0.11409  0.21237  0.21462  1.0000
  H   H528      1.0  0.39388  0.18825  0.32076  1.0000
  C   C523      1.0  0.39447  0.20486  0.30138  1.0000
  H   H529      1.0  0.28174  0.38363  0.23805  1.0000
  N   N42       1.0  0.18669  0.32376  0.36867  1.0000
  N   N43       1.0  0.46405  0.21773  0.31090  1.0000
  C   C524      1.0  0.13515  0.20235  0.21942  1.0000
  C   C525      1.0  0.05127  0.15590  0.25809  1.0000
  N   N44       1.0  0.14422  0.18973  0.22409  1.0000
  C   C526      1.0  0.19013  0.27898  0.37976  1.0000
  C   C527      1.0  0.24510  0.39398  0.35353  1.0000
  H   H530      1.0  0.13440  0.02127  0.18683  1.0000
  C   C528      1.0  0.17231  0.31160  0.36148  1.0000
  C   C529      1.0  0.18700  0.32667  0.34336  1.0000
  H   H531      1.0  0.29643  0.40024  0.22040  1.0000
  C   C530      1.0  0.15617  0.99331  0.21005  1.0000
  N   N45       1.0  0.34097  0.12425  0.19647  1.0000
  C   C531      1.0  0.23946  0.27788  0.34406  1.0000
  C   C532      1.0  0.26611  0.38782  0.22475  1.0000
  C   C533      1.0  0.25241  0.26831  0.34017  1.0000
  H   H532      1.0  0.01915  0.11773  0.20384  1.0000
  C   C534      1.0  0.34393  0.16419  0.35787  1.0000
  Fe  Fe91      1.0  0.34178  0.44893  0.19023  1.0000
  C   C535      1.0  0.25144  0.38447  0.36463  1.0000
  N   N46       1.0  0.41192  0.26386  0.21476  1.0000
  C   C536      1.0  0.40722  0.27743  0.20714  1.0000
  C   C537      1.0  0.40995  0.26120  0.22955  1.0000
  C   C538      1.0  0.47645  0.20315  0.29326  1.0000
  C   C539      1.0  0.40330  0.27233  0.23709  1.0000
  C   C540      1.0  0.39852  0.28621  0.22941  1.0000
  H   H533      1.0  0.14401  0.13381  0.18390  1.0000
  H   H534      1.0  0.27784  0.07593  0.21365  1.0000
  H   H535      1.0  0.41389  0.25048  0.23552  1.0000
  S   S176      1.0  0.32333  0.43780  0.19583  1.0000
  H   H536      1.0  0.24262  0.35603  0.19147  1.0000
  C   C541      1.0  0.26566  0.10579  0.18954  1.0000
  S   S177      1.0  0.27603  0.30988  0.36118  1.0000
  C   C542      1.0  0.10055  0.36831  0.19586  1.0000
  H   H537      1.0  0.48480  0.35759  0.18645  1.0000
  S   S178      1.0  0.35712  0.22096  0.37167  1.0000
  C   C543      1.0  0.48016  0.28125  0.25732  1.0000
  S   S179      1.0  0.11206  0.29996  0.18506  1.0000
  C   C544      1.0  0.11079  0.33886  0.19589  1.0000
  S   S180      1.0  0.33121  0.24975  0.36873  1.0000
  H   H538      1.0  0.21058  0.39027  0.36742  1.0000
  C   C545      1.0  0.30488  0.17584  0.37309  1.0000
  C   C546      1.0  0.17708  0.31489  0.37227  1.0000
  S   S181      1.0  0.35927  0.18671  0.18770  1.0000
  N   N47       1.0  0.25207  0.10989  0.19734  1.0000
  C   C547      1.0  0.24280  0.37738  0.37679  1.0000
  H   H539      1.0  0.08166  0.36586  0.19041  1.0000
  C   C548      1.0  0.26527  0.45778  0.25397  1.0000
  Fe  Fe92      1.0  0.07059  0.17612  0.18848  1.0000
  H   H540      1.0  0.27864  0.25940  0.32227  1.0000
  H   H541      1.0  0.26298  0.38246  0.36375  1.0000
  H   H542      1.0  0.30150  0.30403  0.37529  1.0000
  N   N48       1.0  0.28445  0.46909  0.25316  1.0000
  H   H543      1.0  0.31807  0.29106  0.37348  1.0000
  S   S182      1.0  0.15688  0.06772  0.18465  1.0000
  C   C549      1.0  0.30860  0.29518  0.38156  1.0000
  H   H544      1.0  0.26648  0.26093  0.37690  1.0000
  H   H545      1.0  0.48727  0.29332  0.26875  1.0000
  C   C550      1.0  0.48951  0.20585  0.29373  1.0000
  C   C551      1.0  0.48975  0.21461  0.30281  1.0000
  C   C552      1.0  0.13649  0.12632  0.18874  1.0000
  H   H546      1.0  0.28092  0.48131  0.26940  1.0000
  C   C553      1.0  0.29448  0.20140  0.36930  1.0000
  C   C554      1.0  0.34181  0.11334  0.18834  1.0000
  C   C555      1.0  0.16534  0.98676  0.18664  1.0000
  C   C556      1.0  0.24530  0.25062  0.56258  1.0000
  S   S183      1.0  0.41097  0.27951  0.57177  1.0000
  H   H547      1.0  0.32353  0.29203  0.45883  1.0000
  Fe  Fe93      1.0  0.42198  0.28338  0.54833  1.0000
  S   S184      1.0  0.44059  0.26461  0.55104  1.0000
  S   S185      1.0  0.40797  0.28846  0.53169  1.0000
  C   C557      1.0  0.28511  0.46059  0.57491  1.0000
  C   C558      1.0  0.30361  0.37019  0.51682  1.0000
  Fe  Fe94      1.0  0.45135  0.27999  0.55588  1.0000
  C   C559      1.0  0.30176  0.25855  0.40113  1.0000
  S   S186      1.0  0.43366  0.29927  0.55084  1.0000
  Fe  Fe95      1.0  0.35242  0.26960  0.48191  1.0000
  S   S187      1.0  0.37225  0.25219  0.47880  1.0000
  S   S188      1.0  0.35417  0.29136  0.46791  1.0000
  Fe  Fe96      1.0  0.33559  0.24965  0.50510  1.0000
  S   S189      1.0  0.35417  0.23071  0.50373  1.0000
  S   S190      1.0  0.31356  0.24855  0.51926  1.0000
  Fe  Fe97      1.0  0.36756  0.24638  0.50319  1.0000
  S   S191      1.0  0.38494  0.24061  0.51645  1.0000
  Fe  Fe98      1.0  0.35680  0.23862  0.47951  1.0000
  S   S192      1.0  0.36033  0.22288  0.46485  1.0000
  S   S193      1.0  0.34871  0.26480  0.50617  1.0000
  S   S194      1.0  0.33726  0.25654  0.48097  1.0000
  C   C560      1.0  0.29963  0.36418  0.50734  1.0000
  H   H548      1.0  0.35795  0.23623  0.54971  1.0000
  C   C561      1.0  0.48653  0.29337  0.57743  1.0000
  C   C562      1.0  0.27790  0.38266  0.50764  1.0000
  H   H549      1.0  0.28121  0.25272  0.41092  1.0000
  H   H550      1.0  0.42191  0.24714  0.49407  1.0000
  C   C563      1.0  0.35473  0.23543  0.56167  1.0000
  S   S195      1.0  0.30626  0.18686  0.55676  1.0000
  C   C564      1.0  0.30726  0.31170  0.45638  1.0000
  C   C565      1.0  0.28589  0.47506  0.56860  1.0000
  H   H551      1.0  0.25159  0.32493  0.55049  1.0000
  C   C566      1.0  0.20711  0.31454  0.57840  1.0000
  Fe  Fe99      1.0  0.25327  0.33167  0.49495  1.0000
  S   S196      1.0  0.27417  0.31620  0.49770  1.0000
  S   S197      1.0  0.24083  0.32540  0.48194  1.0000
  Fe  Fe100     1.0  0.25617  0.34972  0.51533  1.0000
  S   S198      1.0  0.27727  0.33549  0.51905  1.0000
  S   S199      1.0  0.24673  0.36865  0.52665  1.0000
  Fe  Fe101     1.0  0.28215  0.33625  0.49527  1.0000
  S   S200      1.0  0.30208  0.34266  0.48072  1.0000
  Fe  Fe102     1.0  0.26668  0.31721  0.52123  1.0000
  S   S201      1.0  0.26785  0.29874  0.54058  1.0000
  S   S202      1.0  0.26173  0.35178  0.49107  1.0000
  S   S203      1.0  0.24516  0.33138  0.51881  1.0000
  N   N49       1.0  0.39887  0.27864  0.48460  1.0000
  H   H552      1.0  0.47294  0.31364  0.53433  1.0000
  H   H553      1.0  0.26762  0.38738  0.50443  1.0000
  H   H554      1.0  0.17671  0.27249  0.40057  1.0000
  C   C567      1.0  0.24308  0.33324  0.55543  1.0000
  H   H555      1.0  0.31033  0.19071  0.38254  1.0000
  H   H556      1.0  0.24364  0.26161  0.54067  1.0000
  S   S204      1.0  0.20635  0.28393  0.56639  1.0000
  C   C568      1.0  0.48508  0.28486  0.55676  1.0000
  N   N50       1.0  0.36433  0.24118  0.56686  1.0000
  H   H557      1.0  0.30794  0.24761  0.40368  1.0000
  H   H558      1.0  0.29066  0.26392  0.53993  1.0000
  H   H559      1.0  0.23456  0.24837  0.56550  1.0000
  C   C569      1.0  0.48859  0.33153  0.55766  1.0000
  C   C570      1.0  0.28225  0.38845  0.51704  1.0000
  H   H560      1.0  0.45950  0.31061  0.55058  1.0000
  H   H561      1.0  0.24017  0.34265  0.54670  1.0000
  H   H562      1.0  0.33408  0.22121  0.48510  1.0000
  H   H563      1.0  0.24758  0.33716  0.56262  1.0000
  C   C571      1.0  0.18588  0.27731  0.39483  1.0000
  S   S205      1.0  0.32340  0.21876  0.38721  1.0000
  Fe  Fe103     1.0  0.33880  0.23228  0.38696  1.0000
  S   S206      1.0  0.33778  0.24293  0.40549  1.0000
  H   H564      1.0  0.29677  0.33924  0.45254  1.0000
  Fe  Fe104     1.0  0.24113  0.33282  0.40027  1.0000
  S   S207      1.0  0.24760  0.34503  0.41344  1.0000
  S   S208      1.0  0.21393  0.29412  0.40563  1.0000
  H   H565      1.0  0.19004  0.28040  0.41427  1.0000
  H   H566      1.0  0.28291  0.33645  0.44512  1.0000
  H   H567      1.0  0.28033  0.29758  0.39175  1.0000
  N   N51       1.0  0.27250  0.25712  0.55534  1.0000
  C   C572      1.0  0.29963  0.38854  0.53105  1.0000
  C   C573      1.0  0.47859  0.28884  0.57008  1.0000
  N   N52       1.0  0.31800  0.21303  0.50237  1.0000
  C   C574      1.0  0.41696  0.28260  0.49469  1.0000
  H   H568      1.0  0.38613  0.27927  0.46974  1.0000
  H   H569      1.0  0.27974  0.33727  0.46403  1.0000
  C   C575      1.0  0.30877  0.26986  0.39358  1.0000
  H   H570      1.0  0.44873  0.34093  0.55471  1.0000
  H   H571      1.0  0.30564  0.27633  0.46952  1.0000
  C   C576      1.0  0.33959  0.18906  0.50877  1.0000
  H   H572      1.0  0.35348  0.20011  0.49066  1.0000
  H   H573      1.0  0.37626  0.28120  0.48775  1.0000
  C   C577      1.0  0.40460  0.28780  0.48878  1.0000
  H   H574      1.0  0.24781  0.36999  0.38540  1.0000
  C   C578      1.0  0.20517  0.28823  0.39536  1.0000
  H   H575      1.0  0.28547  0.27085  0.55627  1.0000
  C   C579      1.0  0.24311  0.33082  0.46286  1.0000
  C   C580      1.0  0.25009  0.34208  0.45504  1.0000
  C   C581      1.0  0.25149  0.34625  0.43987  1.0000
  C   C582      1.0  0.24602  0.33914  0.43242  1.0000
  C   C583      1.0  0.23924  0.32774  0.44023  1.0000
  C   C584      1.0  0.23773  0.32366  0.45540  1.0000
  H   H576      1.0  0.25403  0.34783  0.46071  1.0000
  H   H577      1.0  0.25664  0.35516  0.43390  1.0000
  H   H578      1.0  0.23493  0.32223  0.43462  1.0000
  H   H579      1.0  0.23227  0.31497  0.46140  1.0000
  C   C585      1.0  0.25586  0.37117  0.53889  1.0000
  C   C586      1.0  0.26731  0.36057  0.54345  1.0000
  C   C587      1.0  0.27520  0.36316  0.55219  1.0000
  C   C588      1.0  0.27153  0.37626  0.55680  1.0000
  C   C589      1.0  0.25974  0.38675  0.55275  1.0000
  C   C590      1.0  0.25193  0.38420  0.54380  1.0000
  H   H580      1.0  0.27016  0.35034  0.54028  1.0000
  H   H581      1.0  0.28423  0.35494  0.55539  1.0000
  H   H582      1.0  0.25682  0.39692  0.55624  1.0000
  H   H583      1.0  0.24300  0.39244  0.54042  1.0000
  C   C591      1.0  0.25085  0.29445  0.54791  1.0000
  C   C592      1.0  0.24703  0.28835  0.56271  1.0000
  C   C593      1.0  0.48361  0.32425  0.55006  1.0000
  C   C594      1.0  0.22364  0.28754  0.55949  1.0000
  C   C595      1.0  0.22755  0.29350  0.54471  1.0000
  C   C596      1.0  0.24114  0.29690  0.53892  1.0000
  H   H584      1.0  0.48260  0.34783  0.57049  1.0000
  C   C597      1.0  0.23339  0.28493  0.56851  1.0000
  H   H585      1.0  0.22005  0.29546  0.53769  1.0000
  H   H586      1.0  0.24418  0.30115  0.52741  1.0000
  H   H587      1.0  0.32043  0.26756  0.39053  1.0000
  H   H588      1.0  0.25459  0.28631  0.56967  1.0000
  C   C598      1.0  0.28678  0.26144  0.40528  1.0000
  C   C599      1.0  0.46470  0.34615  0.56265  1.0000
  C   C600      1.0  0.28733  0.29415  0.46809  1.0000
  H   H589      1.0  0.29763  0.22687  0.50835  1.0000
  H   H590      1.0  0.31517  0.31845  0.45196  1.0000
  C   C601      1.0  0.47904  0.34249  0.56405  1.0000
  C   C602      1.0  0.28291  0.30915  0.46405  1.0000
  C   C603      1.0  0.38798  0.24479  0.56522  1.0000
  S   S209      1.0  0.24913  0.30941  0.39908  1.0000
  S   S210      1.0  0.47487  0.28089  0.54642  1.0000
  C   C604      1.0  0.30668  0.22570  0.49885  1.0000
  C   C605      1.0  0.20854  0.32059  0.56361  1.0000
  C   C606      1.0  0.30202  0.28793  0.46624  1.0000
  H   H591      1.0  0.28349  0.36592  0.49541  1.0000
  C   C607      1.0  0.35414  0.22849  0.44829  1.0000
  C   C608      1.0  0.35625  0.21845  0.43956  1.0000
  C   C609      1.0  0.35139  0.22261  0.42637  1.0000
  C   C610      1.0  0.34433  0.23687  0.42184  1.0000
  C   C611      1.0  0.34217  0.24686  0.43062  1.0000
  C   C612      1.0  0.34706  0.24272  0.44374  1.0000
  H   H592      1.0  0.36174  0.20741  0.44296  1.0000
  H   H593      1.0  0.35313  0.21481  0.41973  1.0000
  H   H594      1.0  0.33678  0.25793  0.42719  1.0000
  H   H595      1.0  0.34547  0.25060  0.45024  1.0000
  C   C613      1.0  0.33992  0.30542  0.47258  1.0000
  C   C614      1.0  0.32796  0.30279  0.48362  1.0000
  C   C615      1.0  0.31629  0.31425  0.48645  1.0000
  C   C616      1.0  0.31674  0.32827  0.47832  1.0000
  C   C617      1.0  0.32884  0.33088  0.46757  1.0000
  C   C618      1.0  0.34038  0.31946  0.46464  1.0000
  H   H596      1.0  0.32759  0.29192  0.48978  1.0000
  H   H597      1.0  0.30696  0.31222  0.49484  1.0000
  H   H598      1.0  0.32921  0.34171  0.46128  1.0000
  H   H599      1.0  0.34962  0.32150  0.45612  1.0000
  C   C619      1.0  0.31175  0.23191  0.53114  1.0000
  C   C620      1.0  0.29795  0.22920  0.53743  1.0000
  C   C621      1.0  0.29619  0.21558  0.54595  1.0000
  C   C622      1.0  0.30825  0.20458  0.54819  1.0000
  C   C623      1.0  0.32206  0.20743  0.54229  1.0000
  C   C624      1.0  0.32380  0.22110  0.53384  1.0000
  H   H600      1.0  0.28859  0.23745  0.53527  1.0000
  H   H601      1.0  0.28552  0.21339  0.55015  1.0000
  H   H602      1.0  0.33142  0.19898  0.54404  1.0000
  H   H603      1.0  0.33447  0.22318  0.52939  1.0000
  H   H604      1.0  0.38333  0.29597  0.47518  1.0000
  H   H605      1.0  0.27938  0.28746  0.47279  1.0000
  H   H606      1.0  0.30255  0.22476  0.48968  1.0000
  C   C625      1.0  0.40071  0.27483  0.52913  1.0000
  C   C626      1.0  0.38840  0.27881  0.52307  1.0000
  C   C627      1.0  0.38322  0.26839  0.51948  1.0000
  C   C628      1.0  0.39043  0.25391  0.52175  1.0000
  C   C629      1.0  0.40258  0.24989  0.52808  1.0000
  C   C630      1.0  0.40766  0.26028  0.53182  1.0000
  H   H607      1.0  0.38296  0.29004  0.52096  1.0000
  H   H608      1.0  0.37377  0.27161  0.51479  1.0000
  H   H609      1.0  0.40826  0.23872  0.52983  1.0000
  H   H610      1.0  0.41725  0.25711  0.53632  1.0000
  H   H611      1.0  0.45710  0.35429  0.56808  1.0000
  H   H612      1.0  0.21216  0.36708  0.38690  1.0000
  N   N53       1.0  0.23051  0.32706  0.56342  1.0000
  C   C631      1.0  0.38554  0.28405  0.47907  1.0000
  C   C632      1.0  0.31481  0.20174  0.51347  1.0000
  C   C633      1.0  0.19342  0.28181  0.40259  1.0000
  C   C634      1.0  0.46005  0.33854  0.55510  1.0000
  H   H613      1.0  0.45578  0.32595  0.53605  1.0000
  H   H614      1.0  0.30400  0.20217  0.52003  1.0000
  H   H615      1.0  0.27526  0.39784  0.52090  1.0000
  N   N54       1.0  0.30105  0.28359  0.38992  1.0000
  H   H616      1.0  0.34809  0.17983  0.51144  1.0000
  H   H617      1.0  0.26737  0.27799  0.40526  1.0000
  N   N55       1.0  0.46949  0.32775  0.54891  1.0000
  C   C635      1.0  0.28785  0.33344  0.45479  1.0000
  C   C636      1.0  0.26752  0.24997  0.56907  1.0000
  H   H618      1.0  0.29051  0.39586  0.53674  1.0000
  H   H619      1.0  0.31226  0.29964  0.38896  1.0000
  H   H620      1.0  0.32308  0.18100  0.52615  1.0000
  H   H621      1.0  0.30648  0.35465  0.50358  1.0000
  H   H622      1.0  0.46343  0.31718  0.58244  1.0000
  H   H623      1.0  0.27146  0.31394  0.46567  1.0000
  C   C637      1.0  0.21930  0.37203  0.39038  1.0000
  H   H624      1.0  0.42114  0.28977  0.49856  1.0000
  H   H625      1.0  0.30411  0.37998  0.53969  1.0000
  H   H626      1.0  0.31368  0.36521  0.52036  1.0000
  C   C638      1.0  0.27903  0.27561  0.40211  1.0000
  H   H627      1.0  0.29467  0.25212  0.55642  1.0000
  H   H628      1.0  0.39928  0.24362  0.55996  1.0000
  Fe  Fe105     1.0  0.22736  0.31080  0.39475  1.0000
  H   H629      1.0  0.49104  0.31552  0.54540  1.0000
  S   S211      1.0  0.27951  0.45042  0.56582  1.0000
  C   C639      1.0  0.25043  0.25798  0.54862  1.0000
  N   N56       1.0  0.29493  0.38215  0.52157  1.0000
  H   H630      1.0  0.30794  0.39480  0.52463  1.0000
  H   H631      1.0  0.40009  0.25683  0.48372  1.0000
  H   H632      1.0  0.26782  0.26742  0.53447  1.0000
  H   H633      1.0  0.39940  0.29911  0.48799  1.0000
  S   S212      1.0  0.25972  0.41793  0.57574  1.0000
  C   C640      1.0  0.31207  0.29672  0.46023  1.0000
  H   H634      1.0  0.43261  0.26370  0.50151  1.0000
  H   H635      1.0  0.22586  0.36318  0.39718  1.0000
  C   C641      1.0  0.41738  0.25866  0.49224  1.0000
  C   C642      1.0  0.34264  0.20043  0.49719  1.0000
  H   H636      1.0  0.20078  0.31996  0.55781  1.0000
  Fe  Fe106     1.0  0.43025  0.26169  0.57470  1.0000
  N   N57       1.0  0.29284  0.31773  0.45854  1.0000
  C   C643      1.0  0.28651  0.26119  0.55186  1.0000
  C   C644      1.0  0.40501  0.26422  0.48638  1.0000
  C   C645      1.0  0.22041  0.32679  0.55622  1.0000
  C   C646      1.0  0.26412  0.26120  0.54517  1.0000
  H   H637      1.0  0.35499  0.22392  0.56719  1.0000
  C   C647      1.0  0.32558  0.18965  0.51693  1.0000
  C   C648      1.0  0.28670  0.37050  0.50273  1.0000
  H   H638      1.0  0.31897  0.21740  0.57894  1.0000
  C   C649      1.0  0.42337  0.26794  0.49642  1.0000
  C   C650      1.0  0.28641  0.28664  0.39446  1.0000
  C   C651      1.0  0.37857  0.23971  0.56018  1.0000
  S   S213      1.0  0.28237  0.37904  0.56717  1.0000
  C   C652      1.0  0.33162  0.21239  0.49410  1.0000
  H   H639      1.0  0.31095  0.23576  0.49585  1.0000
  Fe  Fe107     1.0  0.28764  0.18618  0.57591  1.0000
  H   H640      1.0  0.22159  0.33117  0.54466  1.0000
  H   H641      1.0  0.28393  0.47964  0.55776  1.0000
  S   S214      1.0  0.26699  0.20285  0.57639  1.0000
  S   S215      1.0  0.21873  0.33351  0.39821  1.0000
  H   H642      1.0  0.21262  0.37978  0.39723  1.0000
  C   C653      1.0  0.35921  0.24724  0.57884  1.0000
  C   C654      1.0  0.46416  0.31913  0.54210  1.0000
  H   H643      1.0  0.38270  0.23462  0.55087  1.0000
  H   H644      1.0  0.34341  0.24150  0.56406  1.0000
  H   H645      1.0  0.27403  0.24700  0.57722  1.0000
  C   C655      1.0  0.38276  0.25137  0.57713  1.0000
  H   H646      1.0  0.44518  0.30686  0.57753  1.0000
  H   H647      1.0  0.46737  0.28871  0.57457  1.0000
  Fe  Fe108     1.0  0.27581  0.42865  0.57921  1.0000
  C   C656      1.0  0.28870  0.48375  0.57648  1.0000
  H   H648      1.0  0.17334  0.30999  0.38353  1.0000
  H   H649      1.0  0.32478  0.47437  0.57812  1.0000
  Fe  Fe109     1.0  0.42423  0.29358  0.57462  1.0000
  H   H650      1.0  0.19094  0.31862  0.39007  1.0000
  S   S216      1.0  0.44252  0.27528  0.57990  1.0000
  C   C657      1.0  0.22931  0.32093  0.57787  1.0000
  C   C658      1.0  0.25390  0.24656  0.57289  1.0000
  Fe  Fe110     1.0  0.27653  0.39753  0.57886  1.0000
  H   H651      1.0  0.25115  0.47391  0.56795  1.0000
  H   H652      1.0  0.23036  0.28035  0.57993  1.0000
  H   H653      1.0  0.25828  0.35056  0.57947  1.0000
  S   S217      1.0  0.29334  0.40860  0.58024  1.0000
  H   H654      1.0  0.38998  0.25546  0.58100  1.0000
  H   H655      1.0  0.29312  0.21798  0.58152  1.0000
  H   H656      1.0  0.18433  0.33760  0.38292  1.0000
  C   C659      1.0  0.25106  0.47950  0.57622  1.0000
  H   H657      1.0  0.09996  0.00201  0.69045  1.0000
  H   H658      1.0  0.07389  0.24106  0.72442  1.0000
  Fe  Fe111     1.0  0.24401  0.18763  0.72565  1.0000
  S   S218      1.0  0.23636  0.20419  0.70707  1.0000
  S   S219      1.0  0.26888  0.39185  0.60297  1.0000
  Fe  Fe112     1.0  0.27418  0.19357  0.71584  1.0000
  S   S220      1.0  0.26897  0.21058  0.69649  1.0000
  S   S221      1.0  0.29637  0.18723  0.72072  1.0000
  Fe  Fe113     1.0  0.24865  0.21796  0.71174  1.0000
  S   S222      1.0  0.24041  0.24176  0.70948  1.0000
  Fe  Fe114     1.0  0.25735  0.19521  0.69363  1.0000
  S   S223      1.0  0.25841  0.19099  0.67193  1.0000
  S   S224      1.0  0.25467  0.20226  0.73157  1.0000
  S   S225      1.0  0.26410  0.17733  0.71176  1.0000
  Fe  Fe115     1.0  0.35107  0.24054  0.63292  1.0000
  S   S226      1.0  0.33237  0.25001  0.62201  1.0000
  S   S227      1.0  0.36644  0.25478  0.63032  1.0000
  Fe  Fe116     1.0  0.34009  0.21325  0.64856  1.0000
  S   S228      1.0  0.32019  0.22042  0.63932  1.0000
  S   S229      1.0  0.34545  0.19232  0.66411  1.0000
  Fe  Fe117     1.0  0.33520  0.22777  0.61852  1.0000
  S   S230      1.0  0.33376  0.22458  0.59715  1.0000
  Fe  Fe118     1.0  0.31922  0.24195  0.64369  1.0000
  S   S231      1.0  0.29913  0.25670  0.65251  1.0000
  S   S232      1.0  0.35529  0.21880  0.62739  1.0000
  S   S233      1.0  0.33776  0.23406  0.65502  1.0000
  Fe  Fe119     1.0  0.13072  0.03189  0.73804  1.0000
  S   S234      1.0  0.11687  0.03563  0.75955  1.0000
  S   S235      1.0  0.14125  0.01020  0.73202  1.0000
  Fe  Fe120     1.0  0.13311  0.06343  0.72719  1.0000
  S   S236      1.0  0.11963  0.06996  0.74768  1.0000
  S   S237      1.0  0.14298  0.07817  0.70733  1.0000
  Fe  Fe121     1.0  0.13193  0.04940  0.75903  1.0000
  C   C660      1.0  0.25210  0.47898  0.60076  1.0000
  Fe  Fe122     1.0  0.10551  0.05589  0.74657  1.0000
  S   S238      1.0  0.08164  0.06382  0.75343  1.0000
  S   S239      1.0  0.14688  0.04408  0.73868  1.0000
  S   S240      1.0  0.11793  0.05094  0.72496  1.0000
  Fe  Fe123     1.0  0.18697  0.14634  0.66177  1.0000
  S   S241      1.0  0.19645  0.12541  0.67522  1.0000
  S   S242      1.0  0.17702  0.14722  0.64341  1.0000
  Fe  Fe124     1.0  0.19418  0.16441  0.67828  1.0000
  S   S243      1.0  0.20372  0.14526  0.69372  1.0000
  S   S244      1.0  0.19420  0.18692  0.67920  1.0000
  Fe  Fe125     1.0  0.21424  0.13642  0.67367  1.0000
  C   C661      1.0  0.23159  0.38654  0.59556  1.0000
  Fe  Fe126     1.0  0.18499  0.13614  0.69393  1.0000
  S   S245      1.0  0.17150  0.12580  0.71445  1.0000
  S   S246      1.0  0.20591  0.15623  0.65811  1.0000
  S   S247      1.0  0.17431  0.15634  0.68058  1.0000
  Fe  Fe127     1.0  0.02061  0.16163  0.75776  1.0000
  S   S248      1.0  0.03081  0.13948  0.76866  1.0000
  S   S249      1.0  0.00004  0.16823  0.74932  1.0000
  Fe  Fe128     1.0  0.04438  0.17553  0.75936  1.0000
  S   S250      1.0  0.05659  0.15465  0.77013  1.0000
  S   S251      1.0  0.05377  0.19502  0.75591  1.0000
  Fe  Fe129     1.0  0.05149  0.14486  0.75431  1.0000
  S   S252      1.0  0.06960  0.13188  0.74053  1.0000
  Fe  Fe130     1.0  0.25673  0.18424  0.58940  1.0000
  H   H659      1.0  0.22696  0.23566  0.74155  1.0000
  S   S253      1.0  0.04099  0.16616  0.74225  1.0000
  C   C662      1.0  0.23043  0.26525  0.75100  1.0000
  Fe  Fe131     1.0  0.11071  0.23992  0.66505  1.0000
  S   S254      1.0  0.13073  0.22248  0.66344  1.0000
  C   C663      1.0  0.19983  0.24425  0.77129  1.0000
  Fe  Fe132     1.0  0.09089  0.21886  0.67956  1.0000
  S   S255      1.0  0.10894  0.19937  0.67957  1.0000
  S   S256      1.0  0.06756  0.21856  0.68837  1.0000
  Fe  Fe133     1.0  0.12061  0.21263  0.68616  1.0000
  S   S257      1.0  0.13163  0.20596  0.70503  1.0000
  Fe  Fe134     1.0  0.11739  0.21089  0.65696  1.0000
  S   S258      1.0  0.12511  0.20052  0.63767  1.0000
  S   S259      1.0  0.10175  0.23099  0.68816  1.0000
  S   S260      1.0  0.09823  0.22929  0.65643  1.0000
  Fe  Fe135     1.0  0.15809  0.26237  0.72661  1.0000
  S   S261      1.0  0.14880  0.28187  0.73653  1.0000
  S   S262      1.0  0.15102  0.26169  0.70687  1.0000
  Fe  Fe136     1.0  0.17943  0.24944  0.74625  1.0000
  S   S263      1.0  0.17209  0.26789  0.75782  1.0000
  S   S264      1.0  0.19589  0.22976  0.75297  1.0000
  Fe  Fe137     1.0  0.15000  0.26602  0.75762  1.0000
  H   H660      1.0  0.05600  0.23437  0.78069  1.0000
  Fe  Fe138     1.0  0.17179  0.28183  0.73566  1.0000
  S   S265      1.0  0.17958  0.30269  0.72783  1.0000
  S   S266      1.0  0.15728  0.24643  0.74782  1.0000
  S   S267      1.0  0.18104  0.26352  0.72397  1.0000
  Fe  Fe139     1.0  0.23910  0.31107  0.66256  1.0000
  S   S268      1.0  0.25936  0.30869  0.64562  1.0000
  S   S269      1.0  0.23511  0.29133  0.67934  1.0000
  Fe  Fe140     1.0  0.22906  0.34270  0.64993  1.0000
  S   S270      1.0  0.24828  0.34320  0.63148  1.0000
  S   S271      1.0  0.21110  0.36169  0.65364  1.0000
  Fe  Fe141     1.0  0.24502  0.32180  0.63033  1.0000
  S   S272      1.0  0.24645  0.31471  0.60993  1.0000
  Fe  Fe142     1.0  0.26061  0.33007  0.64848  1.0000
  S   S273      1.0  0.28055  0.33440  0.65138  1.0000
  S   S274      1.0  0.22450  0.32253  0.64713  1.0000
  S   S275      1.0  0.24170  0.33133  0.66709  1.0000
  Fe  Fe143     1.0  0.34118  0.29668  0.67206  1.0000
  S   S276      1.0  0.36021  0.28185  0.66147  1.0000
  S   S277      1.0  0.32023  0.30656  0.66494  1.0000
  Fe  Fe144     1.0  0.35552  0.29596  0.69609  1.0000
  S   S278      1.0  0.37593  0.28131  0.68767  1.0000
  S   S279      1.0  0.35150  0.30436  0.71622  1.0000
  Fe  Fe145     1.0  0.37310  0.29525  0.66597  1.0000
  S   S280      1.0  0.39091  0.30263  0.64831  1.0000
  Fe  Fe146     1.0  0.36114  0.26928  0.68408  1.0000
  S   S281      1.0  0.36623  0.24501  0.68957  1.0000
  S   S282      1.0  0.35402  0.31115  0.67470  1.0000
  S   S283      1.0  0.34087  0.28285  0.69427  1.0000
  Fe  Fe147     1.0  0.44003  0.34864  0.64956  1.0000
  S   S284      1.0  0.43428  0.36008  0.62816  1.0000
  S   S285      1.0  0.42343  0.33926  0.66760  1.0000
  Fe  Fe148     1.0  0.47077  0.35390  0.63988  1.0000
  S   S286      1.0  0.46716  0.36607  0.61771  1.0000
  S   S287      1.0  0.17304  0.09734  0.76965  1.0000
  Fe  Fe149     1.0  0.44557  0.37651  0.62967  1.0000
  S   S288      1.0  0.43374  0.39953  0.62346  1.0000
  Fe  Fe150     1.0  0.45603  0.34854  0.61849  1.0000
  N   N58       1.0  0.30431  0.35863  0.64985  1.0000
  S   S289      1.0  0.45007  0.36575  0.65185  1.0000
  S   S290      1.0  0.46094  0.33564  0.63984  1.0000
  Fe  Fe151     1.0  0.26197  0.37371  0.70903  1.0000
  S   S291      1.0  0.25511  0.38560  0.72720  1.0000
  S   S292      1.0  0.25620  0.38323  0.68729  1.0000
  Fe  Fe152     1.0  0.27614  0.34611  0.72748  1.0000
  S   S293      1.0  0.27114  0.35599  0.74677  1.0000
  S   S294      1.0  0.28397  0.32220  0.73084  1.0000
  Fe  Fe153     1.0  0.24941  0.36470  0.74113  1.0000
  S   S295      1.0  0.22932  0.36047  0.75768  1.0000
  Fe  Fe154     1.0  0.27764  0.37547  0.73068  1.0000
  S   S296      1.0  0.29426  0.38643  0.73252  1.0000
  S   S297      1.0  0.25426  0.35397  0.72241  1.0000
  S   S298      1.0  0.28472  0.36460  0.71174  1.0000
  Fe  Fe155     1.0  0.33994  0.44246  0.63800  1.0000
  S   S299      1.0  0.32432  0.45980  0.64824  1.0000
  C   C664      1.0  0.40047  0.23421  0.60445  1.0000
  Fe  Fe156     1.0  0.35784  0.43465  0.66091  1.0000
  S   S300      1.0  0.34335  0.45132  0.67338  1.0000
  S   S301      1.0  0.37729  0.41971  0.66879  1.0000
  Fe  Fe157     1.0  0.32541  0.44365  0.66920  1.0000
  S   S302      1.0  0.30331  0.44149  0.68245  1.0000
  C   C665      1.0  0.03720  0.12194  0.72771  1.0000
  H   H661      1.0  0.30590  0.21619  0.71627  1.0000
  S   S303      1.0  0.33984  0.42579  0.65868  1.0000
  S   S304      1.0  0.35918  0.44983  0.63924  1.0000
  H   H662      1.0  0.21536  0.34856  0.68642  1.0000
  C   C666      1.0  0.14770  0.28285  0.63825  1.0000
  C   C667      1.0  0.14740  0.99600  0.76593  1.0000
  H   H663      1.0  0.32742  0.24482  0.73265  1.0000
  H   H664      1.0  0.48681  0.31755  0.60888  1.0000
  H   H665      1.0  0.18485  0.20057  0.60181  1.0000
  H   H666      1.0  0.38665  0.32613  0.60374  1.0000
  C   C668      1.0  0.25052  0.24034  0.66973  1.0000
  H   H667      1.0  0.38662  0.37314  0.68654  1.0000
  H   H668      1.0  0.34660  0.22283  0.68881  1.0000
  H   H669      1.0  0.24652  0.33487  0.74699  1.0000
  C   C669      1.0  0.29696  0.40146  0.71831  1.0000
  C   C670      1.0  0.28537  0.41049  0.71246  1.0000
  C   C671      1.0  0.28745  0.42288  0.70168  1.0000
  C   C672      1.0  0.30122  0.42600  0.69625  1.0000
  C   C673      1.0  0.31291  0.41676  0.70178  1.0000
  C   C674      1.0  0.31072  0.40465  0.71300  1.0000
  H   H670      1.0  0.27471  0.40822  0.71664  1.0000
  H   H671      1.0  0.27833  0.43008  0.69758  1.0000
  H   H672      1.0  0.32355  0.41914  0.69770  1.0000
  H   H673      1.0  0.31970  0.39771  0.71754  1.0000
  C   C675      1.0  0.41831  0.40542  0.63619  1.0000
  C   C676      1.0  0.40725  0.41658  0.63142  1.0000
  C   C677      1.0  0.39464  0.42111  0.64131  1.0000
  C   C678      1.0  0.39315  0.41472  0.65609  1.0000
  C   C679      1.0  0.40436  0.40382  0.66090  1.0000
  C   C680      1.0  0.41682  0.39906  0.65097  1.0000
  H   H674      1.0  0.40836  0.42156  0.62000  1.0000
  H   H675      1.0  0.38610  0.42947  0.63744  1.0000
  H   H676      1.0  0.40333  0.39889  0.67232  1.0000
  H   H677      1.0  0.42535  0.39059  0.65478  1.0000
  C   C681      1.0  0.33277  0.30925  0.72148  1.0000
  C   C682      1.0  0.32442  0.29895  0.72399  1.0000
  C   C683      1.0  0.30941  0.30292  0.72736  1.0000
  C   C684      1.0  0.30271  0.31728  0.72788  1.0000
  C   C685      1.0  0.31100  0.32758  0.72561  1.0000
  C   C686      1.0  0.32608  0.32351  0.72254  1.0000
  H   H678      1.0  0.32950  0.28788  0.72342  1.0000
  H   H679      1.0  0.30301  0.29490  0.72931  1.0000
  H   H680      1.0  0.30583  0.33866  0.72619  1.0000
  H   H681      1.0  0.33252  0.33149  0.72064  1.0000
  C   C687      1.0  0.39833  0.31456  0.65325  1.0000
  C   C688      1.0  0.40885  0.32119  0.64309  1.0000
  C   C689      1.0  0.41625  0.32925  0.64733  1.0000
  C   C690      1.0  0.41304  0.33081  0.66172  1.0000
  C   C691      1.0  0.40206  0.32471  0.67174  1.0000
  C   C692      1.0  0.39469  0.31658  0.66751  1.0000
  H   H682      1.0  0.41173  0.31957  0.63208  1.0000
  H   H683      1.0  0.42485  0.33368  0.63958  1.0000
  H   H684      1.0  0.39956  0.32587  0.68291  1.0000
  H   H685      1.0  0.38654  0.31151  0.67542  1.0000
  C   C693      1.0  0.34461  0.24521  0.71390  1.0000
  C   C694      1.0  0.31365  0.18211  0.65298  1.0000
  H   H686      1.0  0.33888  0.25478  0.70778  1.0000
  C   C695      1.0  0.27413  0.34816  0.66104  1.0000
  C   C696      1.0  0.27671  0.34577  0.67492  1.0000
  C   C697      1.0  0.27104  0.35653  0.68301  1.0000
  C   C698      1.0  0.26302  0.36981  0.67711  1.0000
  C   C699      1.0  0.26047  0.37226  0.66314  1.0000
  C   C700      1.0  0.26589  0.36132  0.65517  1.0000
  H   H687      1.0  0.28304  0.33558  0.67943  1.0000
  H   H688      1.0  0.27300  0.35449  0.69378  1.0000
  H   H689      1.0  0.25419  0.38248  0.65853  1.0000
  H   H690      1.0  0.26390  0.36313  0.64438  1.0000
  H   H691      1.0  0.25217  0.14827  0.59826  1.0000
  S   S305      1.0  0.08752  0.23132  0.77826  1.0000
  C   C701      1.0  0.07954  0.18128  0.77953  1.0000
  C   C702      1.0  0.25093  0.14768  0.61004  1.0000
  H   H692      1.0  0.19997  0.25337  0.76224  1.0000
  H   H693      1.0  0.24817  0.22718  0.65631  1.0000
  H   H694      1.0  0.26453  0.28281  0.77428  1.0000
  C   C703      1.0  0.19581  0.30012  0.71517  1.0000
  C   C704      1.0  0.19931  0.31144  0.70362  1.0000
  C   C705      1.0  0.21161  0.30890  0.69268  1.0000
  C   C706      1.0  0.22037  0.29505  0.69336  1.0000
  C   C707      1.0  0.21713  0.28390  0.70517  1.0000
  C   C708      1.0  0.20490  0.28646  0.71610  1.0000
  H   H695      1.0  0.19220  0.32199  0.70282  1.0000
  H   H696      1.0  0.21403  0.31753  0.68350  1.0000
  H   H697      1.0  0.22387  0.27318  0.70570  1.0000
  H   H698      1.0  0.20238  0.27781  0.72518  1.0000
  H   H699      1.0  0.25182  0.46028  0.59310  1.0000
  H   H700      1.0  0.99310  0.12942  0.71708  1.0000
  C   C709      1.0  0.22123  0.13636  0.75926  1.0000
  H   H701      1.0  0.02190  0.15778  0.72235  1.0000
  H   H702      1.0  0.05759  0.08459  0.76518  1.0000
  C   C710      1.0  0.22770  0.12464  0.63825  1.0000
  H   H703      1.0  0.12489  0.25952  0.75462  1.0000
  C   C711      1.0  0.31515  0.40722  0.63161  1.0000
  C   C712      1.0  0.32397  0.41673  0.63063  1.0000
  C   C713      1.0  0.41003  0.24356  0.60064  1.0000
  H   H704      1.0  0.31591  0.17782  0.66378  1.0000
  H   H705      1.0  0.31360  0.39876  0.64118  1.0000
  H   H706      1.0  0.32931  0.41545  0.63937  1.0000
  H   H707      1.0  0.29591  0.24234  0.70952  1.0000
  H   H708      1.0  0.22665  0.37869  0.70367  1.0000
  C   C714      1.0  0.20593  0.38991  0.63927  1.0000
  C   C715      1.0  0.21632  0.37770  0.64335  1.0000
  C   C716      1.0  0.23091  0.37819  0.63883  1.0000
  C   C717      1.0  0.21578  0.34741  0.72139  1.0000
  H   H709      1.0  0.19462  0.38963  0.64293  1.0000
  H   H710      1.0  0.23892  0.36903  0.64249  1.0000
  C   C718      1.0  0.13616  0.22162  0.70647  1.0000
  C   C719      1.0  0.14177  0.22173  0.71822  1.0000
  C   C720      1.0  0.14598  0.23419  0.71876  1.0000
  C   C721      1.0  0.14467  0.24643  0.70751  1.0000
  C   C722      1.0  0.13885  0.24634  0.69597  1.0000
  C   C723      1.0  0.13455  0.23403  0.69551  1.0000
  H   H711      1.0  0.14313  0.21215  0.72672  1.0000
  H   H712      1.0  0.15059  0.23413  0.72766  1.0000
  H   H713      1.0  0.13784  0.25575  0.68720  1.0000
  H   H714      1.0  0.13029  0.23416  0.68640  1.0000
  C   C724      1.0  0.22301  0.36875  0.70523  1.0000
  C   C725      1.0  0.44825  0.32956  0.59718  1.0000
  C   C726      1.0  0.24304  0.29718  0.61558  1.0000
  C   C727      1.0  0.24269  0.28958  0.60545  1.0000
  C   C728      1.0  0.23862  0.27615  0.61022  1.0000
  C   C729      1.0  0.13860  0.13474  0.67473  1.0000
  H   H715      1.0  0.24526  0.29414  0.59397  1.0000
  H   H716      1.0  0.23793  0.27043  0.60243  1.0000
  C   C730      1.0  0.21948  0.38133  0.60400  1.0000
  H   H717      1.0  0.09736  0.99199  0.73842  1.0000
  H   H718      1.0  0.13360  0.30331  0.64085  1.0000
  H   H719      1.0  0.15979  0.08961  0.75111  1.0000
  C   C731      1.0  0.12658  0.26483  0.61858  1.0000
  C   C732      1.0  0.33542  0.22701  0.69332  1.0000
  H   H720      1.0  0.25450  0.25534  0.68003  1.0000
  H   H721      1.0  0.34212  0.30576  0.63799  1.0000
  C   C733      1.0  0.05690  0.20272  0.73736  1.0000
  C   C734      1.0  0.06884  0.20908  0.73098  1.0000
  C   C735      1.0  0.07235  0.21370  0.71587  1.0000
  C   C736      1.0  0.06347  0.21269  0.70724  1.0000
  C   C737      1.0  0.05107  0.20713  0.71376  1.0000
  C   C738      1.0  0.04789  0.20194  0.72879  1.0000
  H   H722      1.0  0.07558  0.21005  0.73764  1.0000
  H   H723      1.0  0.08191  0.21801  0.71093  1.0000
  H   H724      1.0  0.04411  0.20646  0.70712  1.0000
  H   H725      1.0  0.03843  0.19740  0.73373  1.0000
  C   C739      1.0  0.16360  0.16288  0.64074  1.0000
  C   C740      1.0  0.15391  0.16368  0.63221  1.0000
  C   C741      1.0  0.14235  0.17553  0.63098  1.0000
  C   C742      1.0  0.14034  0.18652  0.63843  1.0000
  C   C743      1.0  0.15031  0.18603  0.64655  1.0000
  C   C744      1.0  0.16203  0.17425  0.64759  1.0000
  H   H726      1.0  0.15515  0.15499  0.62679  1.0000
  H   H727      1.0  0.13472  0.17597  0.62458  1.0000
  H   H728      1.0  0.14897  0.19467  0.65205  1.0000
  H   H729      1.0  0.16974  0.17393  0.65377  1.0000
  C   C745      1.0  0.26483  0.12631  0.65784  1.0000
  C   C746      1.0  0.04029  0.22375  0.77840  1.0000
  C   C747      1.0  0.27226  0.26363  0.63068  1.0000
  H   H730      1.0  0.26778  0.11552  0.66416  1.0000
  H   H731      1.0  0.00683  0.11562  0.70954  1.0000
  C   C748      1.0  0.32009  0.19214  0.77135  1.0000
  Fe  Fe158     1.0  0.28380  0.22912  0.77153  1.0000
  C   C749      1.0  0.21439  0.33875  0.77076  1.0000
  N   N59       1.0  0.23841  0.14155  0.61838  1.0000
  C   C750      1.0  0.11632  0.00045  0.73555  1.0000
  H   H732      1.0  0.24505  0.23440  0.67978  1.0000
  C   C751      1.0  0.25931  0.24420  0.64381  1.0000
  N   N60       1.0  0.29676  0.18841  0.76275  1.0000
  H   H733      1.0  0.11039  0.01033  0.73908  1.0000
  C   C752      1.0  0.07726  0.08276  0.74896  1.0000
  C   C753      1.0  0.08666  0.09030  0.73818  1.0000
  C   C754      1.0  0.08393  0.10541  0.73549  1.0000
  C   C755      1.0  0.07187  0.11307  0.74365  1.0000
  C   C756      1.0  0.06222  0.10560  0.75424  1.0000
  C   C757      1.0  0.06487  0.09042  0.75681  1.0000
  H   H734      1.0  0.09607  0.08449  0.73187  1.0000
  H   H735      1.0  0.09134  0.11115  0.72720  1.0000
  H   H736      1.0  0.05288  0.11147  0.76058  1.0000
  H   H737      1.0  0.13065  0.13884  0.66757  1.0000
  C   C758      1.0  0.14971  0.09220  0.70942  1.0000
  C   C759      1.0  0.14739  0.09576  0.72293  1.0000
  C   C760      1.0  0.15374  0.10648  0.72428  1.0000
  C   C761      1.0  0.16272  0.11333  0.71227  1.0000
  C   C762      1.0  0.16455  0.11015  0.69868  1.0000
  C   C763      1.0  0.15800  0.09967  0.69726  1.0000
  H   H738      1.0  0.14081  0.09021  0.73232  1.0000
  H   H739      1.0  0.15189  0.10936  0.73466  1.0000
  H   H740      1.0  0.17104  0.11569  0.68926  1.0000
  H   H741      1.0  0.15970  0.09704  0.68676  1.0000
  C   C764      1.0  0.30463  0.27151  0.65453  1.0000
  C   C765      1.0  0.31932  0.27154  0.65145  1.0000
  C   C766      1.0  0.32405  0.28248  0.65436  1.0000
  C   C767      1.0  0.31411  0.29378  0.65988  1.0000
  C   C768      1.0  0.29934  0.29432  0.66210  1.0000
  C   C769      1.0  0.29459  0.28302  0.65968  1.0000
  H   H742      1.0  0.32714  0.26306  0.64698  1.0000
  H   H743      1.0  0.33543  0.28208  0.65235  1.0000
  H   H744      1.0  0.29158  0.30329  0.66591  1.0000
  H   H745      1.0  0.28319  0.28320  0.66188  1.0000
  C   C770      1.0  0.31545  0.22718  0.59728  1.0000
  C   C771      1.0  0.30515  0.23338  0.60804  1.0000
  C   C772      1.0  0.29060  0.23340  0.60970  1.0000
  C   C773      1.0  0.30702  0.23810  0.70495  1.0000
  C   C774      1.0  0.32942  0.24176  0.68964  1.0000
  S   S306      1.0  0.27492  0.25298  0.76760  1.0000
  H   H746      1.0  0.30842  0.23788  0.61532  1.0000
  H   H747      1.0  0.28283  0.23744  0.61853  1.0000
  C   C775      1.0  0.34527  0.22702  0.73615  1.0000
  H   H748      1.0  0.17030  0.31813  0.75280  1.0000
  C   C776      1.0  0.23653  0.21967  0.76521  1.0000
  H   H749      1.0  0.05955  0.24519  0.70745  1.0000
  H   H750      1.0  0.37868  0.44221  0.68224  1.0000
  H   H751      1.0  0.22426  0.15653  0.60547  1.0000
  H   H752      1.0  0.30911  0.19231  0.74116  1.0000
  H   H753      1.0  0.21374  0.34076  0.73224  1.0000
  C   C777      1.0  0.24076  0.19059  0.67212  1.0000
  C   C778      1.0  0.23766  0.17812  0.67042  1.0000
  C   C779      1.0  0.22333  0.17690  0.67287  1.0000
  C   C780      1.0  0.21211  0.18842  0.67629  1.0000
  C   C781      1.0  0.21525  0.20114  0.67740  1.0000
  C   C782      1.0  0.22958  0.20215  0.67548  1.0000
  H   H754      1.0  0.24631  0.16916  0.66782  1.0000
  H   H755      1.0  0.22105  0.16695  0.67227  1.0000
  H   H756      1.0  0.20670  0.21013  0.67997  1.0000
  H   H757      1.0  0.23197  0.21184  0.67674  1.0000
  C   C783      1.0  0.25276  0.24888  0.71405  1.0000
  C   C784      1.0  0.25574  0.26233  0.70642  1.0000
  C   C785      1.0  0.26592  0.26779  0.70985  1.0000
  C   C786      1.0  0.25961  0.24115  0.72547  1.0000
  H   H758      1.0  0.25048  0.26840  0.69763  1.0000
  H   H759      1.0  0.26879  0.27778  0.70338  1.0000
  H   H760      1.0  0.25732  0.23080  0.73148  1.0000
  C   C787      1.0  0.30983  0.18857  0.70481  1.0000
  C   C788      1.0  0.32304  0.17870  0.70437  1.0000
  C   C789      1.0  0.33392  0.17977  0.69178  1.0000
  C   C790      1.0  0.33174  0.19091  0.67972  1.0000
  C   C791      1.0  0.31867  0.20097  0.68026  1.0000
  C   C792      1.0  0.30772  0.19974  0.69275  1.0000
  H   H761      1.0  0.32479  0.17009  0.71368  1.0000
  H   H762      1.0  0.34405  0.17199  0.69142  1.0000
  H   H763      1.0  0.31699  0.20978  0.67112  1.0000
  H   H764      1.0  0.29790  0.20782  0.69319  1.0000
  C   C793      1.0  0.38337  0.47680  0.63988  1.0000
  C   C794      1.0  0.24402  0.14987  0.74347  1.0000
  C   C795      1.0  0.24639  0.13474  0.74781  1.0000
  H   H765      1.0  0.04684  0.11444  0.73054  1.0000
  H   H766      1.0  0.25284  0.15503  0.73731  1.0000
  H   H767      1.0  0.25708  0.12829  0.74501  1.0000
  H   H768      1.0  0.48955  0.37724  0.63761  1.0000
  H   H769      1.0  0.14687  0.07016  0.75448  1.0000
  H   H770      1.0  0.28667  0.12728  0.64664  1.0000
  C   C796      1.0  0.43377  0.33330  0.60387  1.0000
  H   H771      1.0  0.31058  0.36604  0.62713  1.0000
  C   C797      1.0  0.22007  0.36041  0.71929  1.0000
  H   H772      1.0  0.41222  0.33059  0.60609  1.0000
  H   H773      1.0  0.43052  0.34073  0.61113  1.0000
  H   H774      1.0  0.33616  0.24891  0.68228  1.0000
  C   C798      1.0  0.38321  0.25023  0.61901  1.0000
  C   C799      1.0  0.38694  0.23770  0.61342  1.0000
  C   C800      1.0  0.42751  0.31786  0.59161  1.0000
  C   C801      1.0  0.13745  0.15952  0.67621  1.0000
  H   H775      1.0  0.07800  0.17110  0.77773  1.0000
  C   C802      1.0  0.39303  0.25924  0.61569  1.0000
  H   H776      1.0  0.37949  0.23066  0.61599  1.0000
  H   H777      1.0  0.15899  0.24662  0.60329  1.0000
  H   H778      1.0  0.39033  0.26877  0.62024  1.0000
  H   H779      1.0  0.25286  0.47284  0.61163  1.0000
  H   H780      1.0  0.35384  0.24220  0.75247  1.0000
  H   H781      1.0  0.20268  0.32170  0.78101  1.0000
  H   H782      1.0  0.04422  0.14072  0.72839  1.0000
  H   H783      1.0  0.15779  0.22258  0.60362  1.0000
  C   C803      1.0  0.30024  0.37008  0.65661  1.0000
  C   C804      1.0  0.33850  0.25063  0.76989  1.0000
  S   S307      1.0  0.13317  0.26618  0.77807  1.0000
  C   C805      1.0  0.28629  0.22739  0.60050  1.0000
  H   H784      1.0  0.09761  0.11725  0.75473  1.0000
  H   H785      1.0  0.38219  0.32696  0.62273  1.0000
  C   C806      1.0  0.21020  0.40230  0.62993  1.0000
  C   C807      1.0  0.13679  0.26187  0.64803  1.0000
  Fe  Fe159     1.0  0.27051  0.20414  0.59767  1.0000
  C   C808      1.0  0.17597  0.31379  0.77894  1.0000
  H   H786      1.0  0.11212  0.29276  0.65285  1.0000
  C   C809      1.0  0.30214  0.36080  0.63507  1.0000
  C   C810      1.0  0.21234  0.21389  0.60464  1.0000
  H   H787      1.0  0.00439  0.13670  0.75790  1.0000
  C   C811      1.0  0.31265  0.22331  0.70887  1.0000
  N   N61       1.0  0.20486  0.19990  0.63967  1.0000
  C   C812      1.0  0.20231  0.21390  0.64112  1.0000
  C   C813      1.0  0.21848  0.19157  0.63863  1.0000
  C   C814      1.0  0.21368  0.22005  0.64102  1.0000
  C   C815      1.0  0.23003  0.19734  0.63869  1.0000
  C   C816      1.0  0.22763  0.21174  0.63962  1.0000
  C   C817      1.0  0.19283  0.19352  0.64002  1.0000
  H   H788      1.0  0.19148  0.22045  0.64213  1.0000
  H   H789      1.0  0.22048  0.18038  0.63785  1.0000
  H   H790      1.0  0.21177  0.23116  0.64206  1.0000
  H   H791      1.0  0.24072  0.19061  0.63837  1.0000
  H   H792      1.0  0.23653  0.21641  0.63949  1.0000
  H   H793      1.0  0.18885  0.18793  0.65126  1.0000
  H   H794      1.0  0.18377  0.20190  0.63624  1.0000
  H   H795      1.0  0.19619  0.18571  0.63272  1.0000
  N   N62       1.0  0.43424  0.29523  0.65419  1.0000
  C   C818      1.0  0.42786  0.28843  0.64781  1.0000
  C   C819      1.0  0.44460  0.30271  0.64600  1.0000
  C   C820      1.0  0.43153  0.28935  0.63280  1.0000
  C   C821      1.0  0.44856  0.30381  0.63096  1.0000
  C   C822      1.0  0.44199  0.29703  0.62437  1.0000
  C   C823      1.0  0.43029  0.29415  0.66994  1.0000
  H   H796      1.0  0.41946  0.28272  0.65424  1.0000
  H   H797      1.0  0.44955  0.30821  0.65106  1.0000
  H   H798      1.0  0.42605  0.28442  0.62768  1.0000
  H   H799      1.0  0.45647  0.31011  0.62442  1.0000
  H   H800      1.0  0.43726  0.28453  0.67541  1.0000
  H   H801      1.0  0.43143  0.30398  0.67285  1.0000
  H   H802      1.0  0.41883  0.29332  0.67420  1.0000
  H   H803      1.0  0.33908  0.46151  0.58627  1.0000
  C   C824      1.0  0.23023  0.15825  0.74711  1.0000
  H   H804      1.0  0.20669  0.34661  0.77642  1.0000
  H   H805      1.0  0.10695  0.24578  0.75475  1.0000
  H   H806      1.0  0.23756  0.32070  0.58345  1.0000
  C   C825      1.0  0.25583  0.25212  0.66991  1.0000
  S   S308      1.0  0.22999  0.41714  0.61134  1.0000
  H   H807      1.0  0.11187  0.21130  0.76039  1.0000
  H   H808      1.0  0.38324  0.45002  0.65555  1.0000
  C   C826      1.0  0.10654  0.20380  0.75847  1.0000
  H   H809      1.0  0.30505  0.42091  0.59912  1.0000
  C   C827      1.0  0.14082  0.26242  0.61094  1.0000
  S   S309      1.0  0.26774  0.42559  0.60328  1.0000
  C   C828      1.0  0.28435  0.18696  0.75801  1.0000
  C   C829      1.0  0.16439  0.08307  0.77245  1.0000
  N   N63       1.0  0.28877  0.43020  0.65079  1.0000
  C   C830      1.0  0.28238  0.42900  0.64041  1.0000
  C   C831      1.0  0.28626  0.42195  0.66451  1.0000
  C   C832      1.0  0.27326  0.41927  0.64368  1.0000
  C   C833      1.0  0.27713  0.41219  0.66818  1.0000
  C   C834      1.0  0.27062  0.41086  0.65766  1.0000
  C   C835      1.0  0.29802  0.44065  0.64750  1.0000
  H   H810      1.0  0.28455  0.43533  0.62944  1.0000
  H   H811      1.0  0.29134  0.42293  0.67268  1.0000
  H   H812      1.0  0.26847  0.41806  0.63537  1.0000
  H   H813      1.0  0.27505  0.40577  0.67914  1.0000
  H   H814      1.0  0.26353  0.40333  0.66033  1.0000
  H   H815      1.0  0.30117  0.44492  0.63564  1.0000
  H   H816      1.0  0.29240  0.44982  0.65296  1.0000
  H   H817      1.0  0.30809  0.43546  0.65157  1.0000
  H   H818      1.0  0.21063  0.33307  0.71104  1.0000
  C   C836      1.0  0.21413  0.34308  0.70951  1.0000
  C   C837      1.0  0.06530  0.25312  0.69918  1.0000
  C   C838      1.0  0.42341  0.32753  0.60101  1.0000
  S   S310      1.0  0.33668  0.44001  0.61691  1.0000
  C   C839      1.0  0.38527  0.31961  0.61501  1.0000
  C   C840      1.0  0.12240  0.28577  0.64968  1.0000
  N   N64       1.0  0.29663  0.19093  0.63731  1.0000
  C   C841      1.0  0.21689  0.35182  0.69563  1.0000
  C   C842      1.0  0.32484  0.18464  0.64106  1.0000
  H   H819      1.0  0.21387  0.37815  0.67523  1.0000
  C   C843      1.0  0.26290  0.25969  0.65696  1.0000
  N   N65       1.0  0.07762  0.25515  0.70364  1.0000
  N   N66       1.0  0.37467  0.31073  0.61741  1.0000
  H   H820      1.0  0.20816  0.15789  0.75781  1.0000
  H   H821      1.0  0.29504  0.38059  0.65124  1.0000
  H   H822      1.0  0.30233  0.35044  0.63234  1.0000
  C   C844      1.0  0.27551  0.13294  0.64791  1.0000
  C   C845      1.0  0.14356  0.29963  0.76827  1.0000
  S   S311      1.0  0.10784  0.26399  0.65962  1.0000
  H   H823      1.0  0.29887  0.37732  0.67611  1.0000
  H   H824      1.0  0.27450  0.20053  0.64305  1.0000
  C   C846      1.0  0.25038  0.13347  0.65947  1.0000
  C   C847      1.0  0.40634  0.25604  0.60631  1.0000
  C   C848      1.0  0.32599  0.42773  0.61829  1.0000
  C   C849      1.0  0.33153  0.27662  0.76593  1.0000
  C   C850      1.0  0.14787  0.24843  0.60910  1.0000
  H   H825      1.0  0.36948  0.38797  0.67275  1.0000
  H   H826      1.0  0.22133  0.36390  0.72849  1.0000
  C   C851      1.0  0.15484  0.00463  0.76925  1.0000
  H   H827      1.0  0.26715  0.26873  0.65727  1.0000
  H   H828      1.0  0.99889  0.11271  0.72877  1.0000
  C   C852      1.0  0.22397  0.20377  0.59906  1.0000
  Fe  Fe160     1.0  0.29086  0.25347  0.74654  1.0000
  H   H829      1.0  0.37838  0.47066  0.63518  1.0000
  S   S312      1.0  0.27706  0.16728  0.58702  1.0000
  H   H830      1.0  0.12076  0.11879  0.75966  1.0000
  C   C853      1.0  0.35807  0.26649  0.73309  1.0000
  C   C854      1.0  0.30794  0.18895  0.78169  1.0000
  C   C855      1.0  0.23760  0.24340  0.76815  1.0000
  S   S313      1.0  0.13916  0.04821  0.77935  1.0000
  C   C856      1.0  0.30875  0.19127  0.75258  1.0000
  Fe  Fe161     1.0  0.20154  0.27289  0.58980  1.0000
  C   C857      1.0  0.20743  0.19112  0.59573  1.0000
  S   S314      1.0  0.17950  0.26808  0.59899  1.0000
  C   C858      1.0  0.15850  0.08199  0.76132  1.0000
  H   H831      1.0  0.23412  0.21654  0.77725  1.0000
  H   H832      1.0  0.23136  0.36658  0.67127  1.0000
  C   C859      1.0  0.14942  0.06117  0.77652  1.0000
  C   C860      1.0  0.22416  0.37329  0.67897  1.0000
  C   C861      1.0  0.10899  0.99002  0.73525  1.0000
  C   C862      1.0  0.11863  0.25480  0.76481  1.0000
  C   C863      1.0  0.11961  0.25327  0.62435  1.0000
  C   C864      1.0  0.12349  0.27086  0.65218  1.0000
  C   C865      1.0  0.34094  0.27752  0.75235  1.0000
  C   C866      1.0  0.37859  0.45351  0.67723  1.0000
  H   H833      1.0  0.10866  0.25499  0.63067  1.0000
  C   C867      1.0  0.25229  0.23629  0.65661  1.0000
  C   C868      1.0  0.38109  0.45802  0.66211  1.0000
  H   H834      1.0  0.31616  0.26836  0.68265  1.0000
  H   H835      1.0  0.27825  0.18340  0.63761  1.0000
  C   C869      1.0  0.29069  0.46332  0.59668  1.0000
  H   H836      1.0  0.36975  0.28362  0.60502  1.0000
  H   H837      1.0  0.28771  0.44349  0.59360  1.0000
  H   H838      1.0  0.25444  0.16468  0.63484  1.0000
  H   H839      1.0  0.25905  0.34149  0.59804  1.0000
  H   H840      1.0  0.33146  0.20628  0.70587  1.0000
  H   H841      1.0  0.34710  0.28686  0.62360  1.0000
  H   H842      1.0  0.32118  0.47055  0.61642  1.0000
  C   C870      1.0  0.25146  0.47183  0.59038  1.0000
  C   C871      1.0  0.15247  0.30772  0.75755  1.0000
  H   H843      1.0  0.15260  0.21658  0.62298  1.0000
  H   H844      1.0  0.48134  0.29669  0.58759  1.0000
  C   C872      1.0  0.10900  0.20098  0.74464  1.0000
  C   C873      1.0  0.37580  0.47814  0.67920  1.0000
  H   H845      1.0  0.39513  0.47499  0.63534  1.0000
  H   H846      1.0  0.22373  0.26202  0.73294  1.0000
  C   C874      1.0  0.22484  0.40249  0.62474  1.0000
  H   H847      1.0  0.23420  0.16835  0.71168  1.0000
  C   C875      1.0  0.34771  0.25194  0.75622  1.0000
  C   C876      1.0  0.19896  0.21907  0.78118  1.0000
  C   C877      1.0  0.12045  0.25667  0.77791  1.0000
  N   N67       1.0  0.17377  0.28194  0.67032  1.0000
  C   C878      1.0  0.18441  0.28012  0.65830  1.0000
  C   C879      1.0  0.17700  0.28328  0.68265  1.0000
  C   C880      1.0  0.19871  0.27966  0.65838  1.0000
  C   C881      1.0  0.19119  0.28293  0.68308  1.0000
  C   C882      1.0  0.20211  0.28113  0.67086  1.0000
  C   C883      1.0  0.15887  0.28265  0.66972  1.0000
  H   H848      1.0  0.18185  0.27911  0.64852  1.0000
  H   H849      1.0  0.16861  0.28465  0.69223  1.0000
  H   H850      1.0  0.20706  0.27824  0.64879  1.0000
  H   H851      1.0  0.19368  0.28413  0.69282  1.0000
  H   H852      1.0  0.21315  0.28093  0.67105  1.0000
  H   H853      1.0  0.15800  0.27262  0.66705  1.0000
  H   H854      1.0  0.15130  0.28383  0.68021  1.0000
  H   H855      1.0  0.15533  0.29206  0.66125  1.0000
  N   N68       1.0  0.31539  0.24712  0.69548  1.0000
  S   S315      1.0  0.46165  0.33650  0.60036  1.0000
  C   C884      1.0  0.29952  0.18526  0.65088  1.0000
  N   N69       1.0  0.38854  0.23175  0.65215  1.0000
  C   C885      1.0  0.39931  0.22423  0.64320  1.0000
  C   C886      1.0  0.37640  0.22651  0.65916  1.0000
  C   C887      1.0  0.39790  0.21124  0.64083  1.0000
  C   C888      1.0  0.37472  0.21349  0.65718  1.0000
  C   C889      1.0  0.38550  0.20587  0.64788  1.0000
  C   C890      1.0  0.39011  0.24527  0.65470  1.0000
  H   H856      1.0  0.40887  0.22845  0.63747  1.0000
  H   H857      1.0  0.36785  0.23254  0.66614  1.0000
  H   H858      1.0  0.40628  0.20553  0.63339  1.0000
  H   H859      1.0  0.36506  0.20940  0.66274  1.0000
  H   H860      1.0  0.38414  0.19588  0.64610  1.0000
  H   H861      1.0  0.37976  0.25333  0.65489  1.0000
  H   H862      1.0  0.39318  0.24327  0.66534  1.0000
  H   H863      1.0  0.39825  0.25021  0.64595  1.0000
  C   C891      1.0  0.31315  0.34318  0.67062  1.0000
  C   C892      1.0  0.30894  0.35476  0.67765  1.0000
  N   N70       1.0  0.34886  0.26526  0.74766  1.0000
  H   H864      1.0  0.31801  0.33253  0.67605  1.0000
  H   H865      1.0  0.31058  0.35317  0.68859  1.0000
  C   C893      1.0  0.13452  0.29174  0.64285  1.0000
  C   C894      1.0  0.30753  0.19361  0.62558  1.0000
  S   S316      1.0  0.22811  0.25469  0.63107  1.0000
  C   C895      1.0  0.21212  0.32463  0.77337  1.0000
  N   N71       1.0  0.23427  0.23542  0.76039  1.0000
  C   C896      1.0  0.14850  0.22250  0.61301  1.0000
  Fe  Fe162     1.0  0.22074  0.09831  0.77655  1.0000
  H   H866      1.0  0.14124  0.21645  0.61123  1.0000
  H   H867      1.0  0.39582  0.31250  0.61663  1.0000
  C   C897      1.0  0.21888  0.15146  0.75507  1.0000
  H   H868      1.0  0.05751  0.26355  0.69717  1.0000
  C   C898      1.0  0.02615  0.11692  0.72529  1.0000
  C   C899      1.0  0.31921  0.42912  0.60690  1.0000
  S   S317      1.0  0.18374  0.22622  0.61158  1.0000
  H   H869      1.0  0.20216  0.41156  0.62635  1.0000
  C   C900      1.0  0.13775  0.16975  0.68371  1.0000
  C   C901      1.0  0.13827  0.16550  0.69839  1.0000
  H   H870      1.0  0.13718  0.16286  0.66477  1.0000
  H   H871      1.0  0.13792  0.18084  0.67809  1.0000
  H   H872      1.0  0.13877  0.17332  0.70423  1.0000
  N   N72       1.0  0.18234  0.21386  0.70563  1.0000
  C   C902      1.0  0.18460  0.22536  0.70956  1.0000
  C   C903      1.0  0.18841  0.20003  0.71158  1.0000
  C   C904      1.0  0.19302  0.22312  0.71981  1.0000
  C   C905      1.0  0.19682  0.19742  0.72192  1.0000
  C   C906      1.0  0.19908  0.20906  0.72607  1.0000
  C   C907      1.0  0.17404  0.21630  0.69442  1.0000
  H   H873      1.0  0.17982  0.23634  0.70486  1.0000
  H   H874      1.0  0.18679  0.19092  0.70832  1.0000
  H   H875      1.0  0.19486  0.23219  0.72293  1.0000
  H   H876      1.0  0.20162  0.18647  0.72667  1.0000
  H   H877      1.0  0.20556  0.20719  0.73412  1.0000
  H   H878      1.0  0.16715  0.20820  0.69719  1.0000
  H   H879      1.0  0.16688  0.22717  0.69317  1.0000
  H   H880      1.0  0.18138  0.21540  0.68381  1.0000
  N   N73       1.0  0.24479  0.36220  0.59520  1.0000
  H   H881      1.0  0.22875  0.11586  0.64763  1.0000
  C   C908      1.0  0.23282  0.35702  0.60312  1.0000
  H   H882      1.0  0.27890  0.30131  0.76033  1.0000
  H   H883      1.0  0.26113  0.14121  0.61333  1.0000
  H   H884      1.0  0.37363  0.46034  0.69755  1.0000
  C   C909      1.0  0.19850  0.23102  0.76957  1.0000
  C   C910      1.0  0.22744  0.25697  0.74297  1.0000
  H   H885      1.0  0.15133  0.31030  0.74634  1.0000
  H   H886      1.0  0.20489  0.12643  0.64076  1.0000
  C   C911      1.0  0.28177  0.19379  0.63545  1.0000
  C   C912      1.0  0.37582  0.46367  0.68581  1.0000
  H   H887      1.0  0.10763  0.00249  0.70520  1.0000
  C   C913      1.0  0.22155  0.19242  0.59452  1.0000
  H   H888      1.0  0.20551  0.18232  0.59225  1.0000
  H   H889      1.0  0.11558  0.99238  0.76721  1.0000
  C   C914      1.0  0.29092  0.47789  0.59061  1.0000
  C   C915      1.0  0.09757  0.09607  0.76855  1.0000
  H   H890      1.0  0.23126  0.39808  0.59260  1.0000
  C   C916      1.0  0.10323  0.10845  0.76197  1.0000
  C   C917      1.0  0.15123  0.07095  0.76324  1.0000
  C   C918      1.0  0.10847  0.24705  0.76487  1.0000
  C   C919      1.0  0.21755  0.31469  0.58562  1.0000
  H   H891      1.0  0.23795  0.26482  0.76995  1.0000
  S   S318      1.0  0.23839  0.10900  0.76128  1.0000
  C   C920      1.0  0.22008  0.36648  0.60789  1.0000
  H   H892      1.0  0.23319  0.34548  0.60613  1.0000
  Fe  Fe163     1.0  0.18067  0.27562  0.61825  1.0000
  C   C921      1.0  0.02331  0.14628  0.72294  1.0000
  H   H893      1.0  0.26022  0.24124  0.63360  1.0000
  C   C922      1.0  0.22662  0.34270  0.76089  1.0000
  Fe  Fe164     1.0  0.31475  0.23259  0.75979  1.0000
  H   H894      1.0  0.22874  0.27691  0.74744  1.0000
  H   H895      1.0  0.18670  0.30737  0.77478  1.0000
  S   S319      1.0  0.28506  0.26712  0.72588  1.0000
  H   H896      1.0  0.21232  0.13128  0.76509  1.0000
  Fe  Fe165     1.0  0.34345  0.46596  0.65136  1.0000
  C   C923      1.0  0.09691  0.19707  0.76986  1.0000
  N   N74       1.0  0.38996  0.37635  0.66343  1.0000
  C   C924      1.0  0.39970  0.37417  0.65094  1.0000
  C   C925      1.0  0.37715  0.38603  0.66286  1.0000
  C   C926      1.0  0.39699  0.38218  0.63743  1.0000
  C   C927      1.0  0.37401  0.39411  0.64952  1.0000
  C   C928      1.0  0.38406  0.39224  0.63675  1.0000
  C   C929      1.0  0.39326  0.36796  0.67743  1.0000
  H   H897      1.0  0.40984  0.36652  0.65146  1.0000
  C   C930      1.0  0.12596  0.98588  0.76995  1.0000
  H   H898      1.0  0.40506  0.38094  0.62760  1.0000
  H   H899      1.0  0.44486  0.29786  0.61272  1.0000
  H   H900      1.0  0.38199  0.39881  0.62638  1.0000
  H   H901      1.0  0.40474  0.36711  0.67752  1.0000
  N   N75       1.0  0.26448  0.25576  0.64410  1.0000
  H   H902      1.0  0.39140  0.35686  0.67933  1.0000
  Fe  Fe166     1.0  0.25327  0.41311  0.60007  1.0000
  S   S320      1.0  0.02305  0.17315  0.77381  1.0000
  S   S321      1.0  0.21250  0.08151  0.77119  1.0000
  H   H903      1.0  0.31367  0.33620  0.65139  1.0000
  C   C931      1.0  0.23658  0.15775  0.70911  1.0000
  C   C932      1.0  0.08070  0.24805  0.71692  1.0000
  H   H904      1.0  0.21435  0.22223  0.60863  1.0000
  H   H905      1.0  0.34181  0.28810  0.74557  1.0000
  C   C933      1.0  0.08628  0.26391  0.69418  1.0000
  C   C934      1.0  0.16314  0.31218  0.76129  1.0000
  N   N76       1.0  0.38067  0.47230  0.65574  1.0000
  H   H906      1.0  0.17570  0.32540  0.77395  1.0000
  S   S322      1.0  0.42603  0.24024  0.58795  1.0000
  H   H907      1.0  0.11155  0.25910  0.71397  1.0000
  C   C935      1.0  0.32178  0.19047  0.62726  1.0000
  C   C936      1.0  0.30942  0.26268  0.69228  1.0000
  H   H908      1.0  0.28062  0.19972  0.62431  1.0000
  H   H909      1.0  0.15902  0.26096  0.63734  1.0000
  H   H910      1.0  0.33033  0.19281  0.61793  1.0000
  S   S323      1.0  0.41461  0.31007  0.58870  1.0000
  Fe  Fe167     1.0  0.28405  0.40476  0.60415  1.0000
  C   C937      1.0  0.12695  0.23944  0.62225  1.0000
  H   H911      1.0  0.08750  0.09549  0.76643  1.0000
  H   H912      1.0  0.20972  0.38881  0.60767  1.0000
  N   N77       1.0  0.22144  0.36437  0.69363  1.0000
  C   C938      1.0  0.01254  0.14092  0.72042  1.0000
  C   C939      1.0  0.35199  0.30426  0.62985  1.0000
  C   C940      1.0  0.36746  0.29189  0.61128  1.0000
  C   C941      1.0  0.35473  0.29373  0.62170  1.0000
  H   H913      1.0  0.13536  0.29592  0.76548  1.0000
  C   C942      1.0  0.26929  0.30405  0.76844  1.0000
  H   H914      1.0  0.08600  0.17836  0.75197  1.0000
  N   N78       1.0  0.27424  0.30610  0.70430  1.0000
  C   C943      1.0  0.26936  0.30096  0.71874  1.0000
  C   C944      1.0  0.26525  0.30953  0.69477  1.0000
  C   C945      1.0  0.25538  0.29849  0.72391  1.0000
  C   C946      1.0  0.25116  0.30722  0.69962  1.0000
  C   C947      1.0  0.24624  0.30160  0.71425  1.0000
  C   C948      1.0  0.28913  0.30809  0.69917  1.0000
  H   H915      1.0  0.27650  0.29820  0.72629  1.0000
  H   H916      1.0  0.26901  0.31380  0.68332  1.0000
  H   H917      1.0  0.25187  0.29375  0.73525  1.0000
  H   H918      1.0  0.24421  0.30938  0.69205  1.0000
  H   H919      1.0  0.23547  0.29940  0.71800  1.0000
  H   H920      1.0  0.29008  0.31806  0.70186  1.0000
  H   H921      1.0  0.29658  0.29873  0.70437  1.0000
  H   H922      1.0  0.29276  0.30902  0.68727  1.0000
  N   N79       1.0  0.23129  0.13416  0.71396  1.0000
  C   C949      1.0  0.24249  0.13052  0.70294  1.0000
  C   C950      1.0  0.25098  0.14044  0.69471  1.0000
  C   C951      1.0  0.22302  0.12334  0.72298  1.0000
  H   H923      1.0  0.24485  0.11992  0.70037  1.0000
  H   H924      1.0  0.25972  0.13758  0.68584  1.0000
  H   H925      1.0  0.21191  0.12852  0.72780  1.0000
  H   H926      1.0  0.22197  0.11609  0.71645  1.0000
  H   H927      1.0  0.22848  0.11676  0.73195  1.0000
  C   C952      1.0  0.37737  0.30056  0.60924  1.0000
  C   C953      1.0  0.09287  0.24945  0.72089  1.0000
  C   C954      1.0  0.30243  0.36831  0.67063  1.0000
  H   H928      1.0  0.02383  0.21410  0.76504  1.0000
  H   H929      1.0  0.12111  0.27555  0.62043  1.0000
  Fe  Fe168     1.0  0.27895  0.17159  0.60781  1.0000
  N   N80       1.0  0.18408  0.05619  0.74271  1.0000
  C   C955      1.0  0.19012  0.06332  0.74909  1.0000
  C   C956      1.0  0.17998  0.06270  0.72977  1.0000
  C   C957      1.0  0.19224  0.07732  0.74246  1.0000
  C   C958      1.0  0.18223  0.07655  0.72273  1.0000
  C   C959      1.0  0.18821  0.08398  0.72922  1.0000
  C   C960      1.0  0.18151  0.04174  0.75014  1.0000
  H   H930      1.0  0.19298  0.05839  0.75955  1.0000
  H   H931      1.0  0.17485  0.05727  0.72483  1.0000
  H   H932      1.0  0.19650  0.08316  0.74781  1.0000
  H   H933      1.0  0.17907  0.08161  0.71244  1.0000
  H   H934      1.0  0.18942  0.09499  0.72417  1.0000
  H   H935      1.0  0.17210  0.04254  0.75935  1.0000
  H   H936      1.0  0.17938  0.03602  0.74276  1.0000
  H   H937      1.0  0.19108  0.03493  0.75442  1.0000
  S   S324      1.0  0.23725  0.12438  0.67137  1.0000
  H   H938      1.0  0.33582  0.18233  0.64258  1.0000
  H   H939      1.0  0.29085  0.18319  0.66016  1.0000
  C   C961      1.0  0.32697  0.21776  0.70302  1.0000
  H   H940      1.0  0.23563  0.15310  0.65255  1.0000
  S   S325      1.0  0.19009  0.25372  0.62982  1.0000
  H   H941      1.0  0.08398  0.26936  0.68356  1.0000
  H   H942      1.0  0.30880  0.26737  0.70165  1.0000
  H   H943      1.0  0.29845  0.26482  0.69002  1.0000
  C   C962      1.0  0.23516  0.39060  0.62961  1.0000
  H   H944      1.0  0.36408  0.40213  0.64913  1.0000
  C   C963      1.0  0.36832  0.25246  0.58413  1.0000
  S   S326      1.0  0.21903  0.29698  0.76826  1.0000
  H   H945      1.0  0.29270  0.45867  0.60750  1.0000
  H   H946      1.0  0.26817  0.26356  0.62112  1.0000
  H   H947      1.0  0.13303  0.09860  0.77662  1.0000
  H   H948      1.0  0.37571  0.21987  0.71054  1.0000
  H   H949      1.0  0.20270  0.14696  0.61966  1.0000
  H   H950      1.0  0.10331  0.18965  0.73153  1.0000
  H   H951      1.0  0.25208  0.34421  0.77494  1.0000
  S   S327      1.0  0.29660  0.39736  0.62194  1.0000
  C   C964      1.0  0.19824  0.21301  0.60531  1.0000
  C   C965      1.0  0.22532  0.14753  0.61465  1.0000
  N   N81       1.0  0.10470  0.08476  0.77737  1.0000
  S   S328      1.0  0.33755  0.22055  0.75430  1.0000
  S   S329      1.0  0.25806  0.18738  0.61085  1.0000
  C   C966      1.0  0.00271  0.12078  0.71908  1.0000
  S   S330      1.0  0.26837  0.21406  0.77914  1.0000
  S   S331      1.0  0.20178  0.28221  0.60833  1.0000
  H   H952      1.0  0.29144  0.36783  0.63393  1.0000
  N   N82       1.0  0.13373  0.99497  0.77342  1.0000
  Fe  Fe169     1.0  0.19112  0.24660  0.60955  1.0000
  S   S332      1.0  0.29831  0.22949  0.74954  1.0000
  H   H953      1.0  0.28393  0.25864  0.62914  1.0000
  H   H954      1.0  0.38733  0.29902  0.60119  1.0000
  N   N83       1.0  0.14086  0.23719  0.61459  1.0000
  C   C967      1.0  0.24008  0.29094  0.63040  1.0000
  N   N84       1.0  0.16467  0.30895  0.77539  1.0000
  S   S333      1.0  0.22659  0.17711  0.74125  1.0000
  H   H955      1.0  0.36598  0.25626  0.73170  1.0000
  C   C968      1.0  0.13133  0.99799  0.73131  1.0000
  H   H956      1.0  0.36449  0.21027  0.73602  1.0000
  C   C969      1.0  0.25809  0.35216  0.59035  1.0000
  H   H957      1.0  0.23480  0.20493  0.59809  1.0000
  C   C970      1.0  0.27181  0.14669  0.63935  1.0000
  Fe  Fe170     1.0  0.21123  0.25943  0.61813  1.0000
  H   H958      1.0  0.41378  0.26322  0.60345  1.0000
  C   C971      1.0  0.21310  0.14215  0.62260  1.0000
  H   H959      1.0  0.15262  0.99015  0.75732  1.0000
  C   C972      1.0  0.35887  0.21996  0.72982  1.0000
  C   C973      1.0  0.31027  0.41973  0.60795  1.0000
  C   C974      1.0  0.31075  0.34533  0.65663  1.0000
  S   S334      1.0  0.18414  0.01171  0.78073  1.0000
  H   H960      1.0  0.35134  0.26923  0.72483  1.0000
  C   C975      1.0  0.28783  0.45470  0.58884  1.0000
  H   H961      1.0  0.13246  0.99697  0.69460  1.0000
  C   C976      1.0  0.23663  0.33236  0.75387  1.0000
  C   C977      1.0  0.23972  0.13024  0.63000  1.0000
  C   C978      1.0  0.27231  0.26032  0.72163  1.0000
  C   C979      1.0  0.21433  0.13062  0.63446  1.0000
  S   S335      1.0  0.16258  0.29067  0.62942  1.0000
  H   H962      1.0  0.21673  0.30972  0.59706  1.0000
  H   H963      1.0  0.36425  0.25720  0.59367  1.0000
  C   C980      1.0  0.24424  0.37677  0.59127  1.0000
  C   C981      1.0  0.23530  0.27020  0.62506  1.0000
  C   C982      1.0  0.45228  0.32003  0.58769  1.0000
  H   H964      1.0  0.25005  0.12559  0.63311  1.0000
  C   C983      1.0  0.26893  0.24713  0.72961  1.0000
  C   C984      1.0  0.23412  0.31845  0.75608  1.0000
  H   H965      1.0  0.24194  0.31060  0.75058  1.0000
  C   C985      1.0  0.33806  0.23950  0.72806  1.0000
  C   C986      1.0  0.35820  0.23819  0.70753  1.0000
  C   C987      1.0  0.03574  0.13671  0.72651  1.0000
  H   H966      1.0  0.24034  0.29658  0.63835  1.0000
  N   N85       1.0  0.01403  0.12639  0.72168  1.0000
  C   C988      1.0  0.13843  0.15110  0.70541  1.0000
  H   H967      1.0  0.25365  0.38091  0.58491  1.0000
  C   C989      1.0  0.23501  0.12795  0.75578  1.0000
  C   C990      1.0  0.22827  0.14758  0.71708  1.0000
  C   C991      1.0  0.30823  0.40878  0.62028  1.0000
  S   S336      1.0  0.28549  0.15435  0.62656  1.0000
  H   H968      1.0  0.24640  0.39093  0.62633  1.0000
  H   H969      1.0  0.13767  0.25036  0.64983  1.0000
  C   C992      1.0  0.23559  0.25845  0.76365  1.0000
  H   H970      1.0  0.09539  0.24371  0.73135  1.0000
  H   H971      1.0  0.09495  0.19946  0.78054  1.0000
  C   C993      1.0  0.24810  0.15407  0.69796  1.0000
  H   H972      1.0  0.21947  0.15045  0.72587  1.0000
  C   C994      1.0  0.25737  0.15397  0.64112  1.0000
  H   H973      1.0  0.23377  0.27286  0.64664  1.0000
  N   N86       1.0  0.08995  0.18777  0.76754  1.0000
  H   H974      1.0  0.27356  0.24141  0.73889  1.0000
  N   N87       1.0  0.13773  0.14542  0.68315  1.0000
  H   H975      1.0  0.13923  0.14753  0.71673  1.0000
  C   C995      1.0  0.19575  0.20143  0.60113  1.0000
  H   H976      1.0  0.02848  0.20088  0.78076  1.0000
  C   C996      1.0  0.24668  0.14741  0.65125  1.0000
  H   H977      1.0  0.27087  0.27514  0.63112  1.0000
  H   H978      1.0  0.32080  0.43750  0.59726  1.0000
  S   S337      1.0  0.29174  0.18856  0.59653  1.0000
  H   H979      1.0  0.09256  0.06988  0.77672  1.0000
  H   H980      1.0  0.24998  0.24097  0.58384  1.0000
  C   C997      1.0  0.22941  0.24199  0.74785  1.0000
  C   C998      1.0  0.23634  0.27743  0.63514  1.0000
  C   C999      1.0  0.13802  0.14118  0.69760  1.0000
  H   H981      1.0  0.13634  0.12434  0.68185  1.0000
  H   H982      1.0  0.02730  0.10540  0.72635  1.0000
  H   H983      1.0  0.30527  0.19828  0.61484  1.0000
  C   C1000     1.0  0.36221  0.31261  0.62767  1.0000
  H   H984      1.0  0.25472  0.16181  0.69177  1.0000
  S   S338      1.0  0.21322  0.25071  0.59856  1.0000
  H   H985      1.0  0.12147  0.23051  0.62682  1.0000
  S   S339      1.0  0.30849  0.25675  0.75496  1.0000
  H   H986      1.0  0.22949  0.38214  0.67847  1.0000
  H   H987      1.0  0.13811  0.13004  0.70316  1.0000
  H   H988      1.0  0.14960  0.13257  0.66787  1.0000
  C   C1001     1.0  0.14888  0.26789  0.64089  1.0000
  C   C1002     1.0  0.10192  0.25813  0.71116  1.0000
  H   H989      1.0  0.36018  0.32046  0.63436  1.0000
  H   H990      1.0  0.40331  0.22460  0.59999  1.0000
  C   C1003     1.0  0.22188  0.31452  0.76583  1.0000
  C   C1004     1.0  0.36523  0.22541  0.71543  1.0000
  N   N88       1.0  0.33044  0.48038  0.59498  1.0000
  H   H991      1.0  0.06903  0.24880  0.68905  1.0000
  S   S340      1.0  0.26866  0.22476  0.60440  1.0000
  H   H992      1.0  0.19814  0.30934  0.58411  1.0000
  H   H993      1.0  0.32997  0.19574  0.74859  1.0000
  H   H994      1.0  0.14644  0.27129  0.60675  1.0000
  H   H995      1.0  0.36420  0.27515  0.73089  1.0000
  C   C1005     1.0  0.09862  0.26541  0.69772  1.0000
  H   H996      1.0  0.10575  0.27191  0.68989  1.0000
  H   H997      1.0  0.24943  0.15879  0.61170  1.0000
  H   H998      1.0  0.21081  0.36233  0.61474  1.0000
  C   C1006     1.0  0.02195  0.21175  0.77708  1.0000
  H   H999      1.0  0.27483  0.18620  0.76708  1.0000
  H   H1000     1.0  0.04826  0.21672  0.77192  1.0000
  H   H1001     1.0  0.24789  0.21470  0.76106  1.0000
  C   C1007     1.0  0.26118  0.29371  0.77619  1.0000
  C   C1008     1.0  0.10172  0.19163  0.74233  1.0000
  C   C1009     1.0  0.32059  0.19316  0.75671  1.0000
  C   C1010     1.0  0.33037  0.26307  0.77476  1.0000
  C   C1011     1.0  0.09204  0.18520  0.75395  1.0000
  H   H1002     1.0  0.11640  0.20615  0.73569  1.0000
  H   H1003     1.0  0.24171  0.23815  0.77795  1.0000
  C   C1012     1.0  0.44196  0.31422  0.58487  1.0000
  C   C1013     1.0  0.26499  0.31797  0.77129  1.0000
  C   C1014     1.0  0.29644  0.22225  0.58898  1.0000
  H   H1004     1.0  0.27138  0.32593  0.76520  1.0000
  H   H1005     1.0  0.16563  0.00554  0.76327  1.0000
  H   H1006     1.0  0.00282  0.14844  0.71787  1.0000
  C   C1015     1.0  0.11614  0.10932  0.76476  1.0000
  H   H1007     1.0  0.25347  0.12389  0.77862  1.0000
  C   C1016     1.0  0.32870  0.46933  0.58835  1.0000
  C   C1017     1.0  0.37835  0.48228  0.66406  1.0000
  H   H1008     1.0  0.33745  0.24002  0.77651  1.0000
  C   C1018     1.0  0.14826  0.01210  0.78039  1.0000
  H   H1009     1.0  0.32504  0.28635  0.76951  1.0000
  C   C1019     1.0  0.12305  0.09798  0.77425  1.0000
  C   C1020     1.0  0.11710  0.08572  0.78055  1.0000
  S   S341      1.0  0.30116  0.22973  0.78228  1.0000
  S   S342      1.0  0.23617  0.17972  0.58764  1.0000
  H   H1010     1.0  0.06896  0.18894  0.78056  1.0000
  H   H1011     1.0  0.09666  0.98978  0.70790  1.0000
  C   C1021     1.0  0.10032  0.24097  0.77805  1.0000
  Fe  Fe171     1.0  0.29340  0.25377  0.77654  1.0000
  C   C1022     1.0  0.31106  0.22206  0.58741  1.0000
  H   H1012     1.0  0.34801  0.24805  0.58437  1.0000
  H   H1013     1.0  0.32060  0.46320  0.59563  1.0000
  H   H1014     1.0  0.22930  0.21523  0.76127  1.0000
  C   C1023     1.0  0.10482  0.99530  0.69974  1.0000
  H   H1015     1.0  0.28114  0.19661  0.74963  1.0000
  C   C1024     1.0  0.13100  0.98730  0.69223  1.0000
  C   C1025     1.0  0.99499  0.14085  0.75311  1.0000
  H   H1016     1.0  0.28716  0.17721  0.75325  1.0000
  H   H1017     1.0  0.26773  0.35640  0.58970  1.0000
  C   C1026     1.0  0.32623  0.47931  0.60966  1.0000
  C   C1027     1.0  0.29638  0.18691  0.77718  1.0000
  H   H1018     1.0  0.32907  0.19398  0.77462  1.0000
  H   H1019     1.0  0.19802  0.20878  0.77982  1.0000
  N   N89       1.0  0.25290  0.32149  0.78152  1.0000
  Fe  Fe172     1.0  0.19078  0.09250  0.78177  1.0000
  H   H1020     1.0  0.18002  0.04105  0.78249  1.0000
  N   N90       1.0  0.02615  0.22269  0.78193  1.0000
  H   H1021     1.0  0.01044  0.21120  0.78160  1.0000
  H   H1022     1.0  0.34176  0.48516  0.67421  1.0000
  Fe  Fe173     1.0  0.20186  0.09596  0.80671  1.0000
  C   C1028     1.0  0.09500  0.26203  0.88198  1.0000
  S   S343      1.0  0.19503  0.10661  0.82602  1.0000
  H   H1023     1.0  0.23299  0.17962  0.92387  1.0000
  H   H1024     1.0  0.20060  0.13610  0.79988  1.0000
  C   C1029     1.0  0.99428  0.21838  0.82488  1.0000
  H   H1025     1.0  0.08762  0.25437  0.88507  1.0000
  C   C1030     1.0  0.09611  0.26038  0.85699  1.0000
  H   H1026     1.0  0.10330  0.25725  0.88870  1.0000
  H   H1027     1.0  0.03965  0.17317  0.79940  1.0000
  S   S344      1.0  0.19151  0.07911  0.80414  1.0000
  H   H1028     1.0  0.08893  0.27256  0.88472  1.0000
  Fe  Fe174     1.0  0.05320  0.22021  0.82663  1.0000
  S   S345      1.0  0.06641  0.20416  0.84185  1.0000
  C   C1031     1.0  0.20135  0.24568  0.78461  1.0000
  C   C1032     1.0  0.23536  0.23998  0.84702  1.0000
  H   H1029     1.0  0.24506  0.24357  0.84648  1.0000
  H   H1030     1.0  0.99892  0.16951  0.80320  1.0000
  C   C1033     1.0  0.01808  0.21944  0.82726  1.0000
  Fe  Fe175     1.0  0.08343  0.21768  0.83212  1.0000
  S   S346      1.0  0.10044  0.22477  0.83925  1.0000
  H   H1031     1.0  0.25604  0.09988  0.88663  1.0000
  S   S347      1.0  0.06907  0.23487  0.81875  1.0000
  Fe  Fe176     1.0  0.23563  0.14488  0.85591  1.0000
  S   S348      1.0  0.23079  0.16762  0.84331  1.0000
  S   S349      1.0  0.24272  0.12595  0.84482  1.0000
  Fe  Fe177     1.0  0.23111  0.15389  0.88467  1.0000
  S   S350      1.0  0.22623  0.17738  0.87447  1.0000
  S   S351      1.0  0.22765  0.14603  0.90911  1.0000
  Fe  Fe178     1.0  0.21294  0.17135  0.86239  1.0000
  S   S352      1.0  0.19091  0.18419  0.85949  1.0000
  Fe  Fe179     1.0  0.24448  0.17199  0.85610  1.0000
  S   S353      1.0  0.25972  0.18726  0.84647  1.0000
  S   S354      1.0  0.21638  0.14813  0.87390  1.0000
  S   S355      1.0  0.25079  0.14883  0.86745  1.0000
  H   H1032     1.0  0.09641  0.23775  0.80134  1.0000
  C   C1034     1.0  0.19049  0.03557  0.78478  1.0000
  H   H1033     1.0  0.08322  0.17853  0.78997  1.0000
  C   C1035     1.0  0.10266  0.26221  0.84224  1.0000
  S   S356      1.0  0.22441  0.08485  0.79826  1.0000
  H   H1034     1.0  0.08674  0.25548  0.86082  1.0000
  H   H1035     1.0  0.12017  0.26954  0.82584  1.0000
  C   C1036     1.0  0.27211  0.28104  0.81180  1.0000
  H   H1036     1.0  0.03544  0.20316  0.81912  1.0000
  C   C1037     1.0  0.11173  0.28879  0.96511  1.0000
  H   H1037     1.0  0.22542  0.01434  0.82037  1.0000
  C   C1038     1.0  0.06440  0.14852  0.82520  1.0000
  Fe  Fe180     1.0  0.12227  0.23683  0.90620  1.0000
  S   S357      1.0  0.13837  0.24706  0.88836  1.0000
  S   S358      1.0  0.10634  0.22588  0.90231  1.0000
  Fe  Fe181     1.0  0.12993  0.24766  0.92980  1.0000
  S   S359      1.0  0.14633  0.25897  0.91363  1.0000
  S   S360      1.0  0.12435  0.24785  0.95392  1.0000
  Fe  Fe182     1.0  0.13042  0.26596  0.89918  1.0000
  S   S361      1.0  0.12461  0.28860  0.88667  1.0000
  Fe  Fe183     1.0  0.15280  0.23898  0.90447  1.0000
  S   S362      1.0  0.17642  0.23012  0.89833  1.0000
  S   S363      1.0  0.11318  0.25646  0.91605  1.0000
  S   S364      1.0  0.13751  0.22694  0.92159  1.0000
  H   H1038     1.0  0.09139  0.07292  0.79453  1.0000
  N   N91       1.0  0.22371  0.22457  0.84063  1.0000
  N   N92       1.0  0.21717  0.19438  0.93543  1.0000
  Fe  Fe184     1.0  0.21497  0.27856  0.82121  1.0000
  S   S365      1.0  0.20348  0.29933  0.80919  1.0000
  S   S366      1.0  0.23150  0.27845  0.83325  1.0000
  Fe  Fe185     1.0  0.18413  0.28910  0.81729  1.0000
  S   S367      1.0  0.16175  0.30220  0.82294  1.0000
  C   C1039     1.0  0.11495  0.26813  0.83724  1.0000
  H   H1039     1.0  0.19080  0.03328  0.82187  1.0000
  S   S368      1.0  0.19511  0.26946  0.83119  1.0000
  H   H1040     1.0  0.19352  0.11902  0.89866  1.0000
  C   C1040     1.0  0.21547  0.01664  0.82872  1.0000
  S   S369      1.0  0.26373  0.15837  0.94819  1.0000
  C   C1041     1.0  0.01568  0.19446  0.85645  1.0000
  C   C1042     1.0  0.13024  0.25418  0.97721  1.0000
  H   H1041     1.0  0.25401  0.33621  0.79346  1.0000
  C   C1043     1.0  0.23600  0.22871  0.84043  1.0000
  N   N93       1.0  0.10183  0.26406  0.86652  1.0000
  C   C1044     1.0  0.15606  0.30087  0.78596  1.0000
  H   H1042     1.0  0.11506  0.28542  0.91812  1.0000
  H   H1043     1.0  0.11819  0.27303  0.86924  1.0000
  H   H1044     1.0  0.26903  0.25306  0.79917  1.0000
  H   H1045     1.0  0.25295  0.09991  0.86924  1.0000
  C   C1045     1.0  0.20383  0.20333  0.93636  1.0000
  C   C1046     1.0  0.20094  0.23406  0.79647  1.0000
  H   H1046     1.0  0.09839  0.25873  0.83484  1.0000
  H   H1047     1.0  0.21756  0.01095  0.83964  1.0000
  C   C1047     1.0  0.13410  0.25508  0.96213  1.0000
  H   H1048     1.0  0.99863  0.17544  0.83552  1.0000
  C   C1048     1.0  0.03812  0.17839  0.84902  1.0000
  H   H1049     1.0  0.99831  0.23360  0.83506  1.0000
  C   C1049     1.0  0.15119  0.26963  0.96061  1.0000
  C   C1050     1.0  0.14486  0.26254  0.95391  1.0000
  H   H1050     1.0  0.00485  0.23083  0.79283  1.0000
  C   C1051     1.0  0.21111  0.13681  0.80089  1.0000
  H   H1051     1.0  0.15915  0.27580  0.95408  1.0000
  H   H1052     1.0  0.14796  0.26330  0.94231  1.0000
  C   C1052     1.0  0.13539  0.29205  0.86916  1.0000
  C   C1053     1.0  0.13084  0.30458  0.85927  1.0000
  C   C1054     1.0  0.13901  0.30748  0.84514  1.0000
  C   C1055     1.0  0.15189  0.29799  0.84082  1.0000
  C   C1056     1.0  0.15643  0.28536  0.85067  1.0000
  C   C1057     1.0  0.14816  0.28236  0.86483  1.0000
  H   H1053     1.0  0.12097  0.31208  0.86253  1.0000
  H   H1054     1.0  0.13542  0.31724  0.83759  1.0000
  H   H1055     1.0  0.16629  0.27791  0.84742  1.0000
  H   H1056     1.0  0.15180  0.27269  0.87243  1.0000
  S   S370      1.0  0.02899  0.22772  0.83290  1.0000
  H   H1057     1.0  0.03800  0.24984  0.79641  1.0000
  C   C1058     1.0  0.15529  0.06218  0.78773  1.0000
  H   H1058     1.0  0.17459  0.31258  0.79086  1.0000
  C   C1059     1.0  0.22550  0.19259  0.94647  1.0000
  C   C1060     1.0  0.04473  0.23372  0.78330  1.0000
  H   H1059     1.0  0.16740  0.07387  0.79431  1.0000
  H   H1060     1.0  0.28693  0.18455  0.78529  1.0000
  H   H1061     1.0  0.13003  0.27685  0.84329  1.0000
  H   H1062     1.0  0.24637  0.22333  0.83511  1.0000
  C   C1061     1.0  0.25269  0.26367  0.81471  1.0000
  C   C1062     1.0  0.24883  0.27467  0.82255  1.0000
  H   H1063     1.0  0.21065  0.12371  0.91080  1.0000
  H   H1064     1.0  0.22514  0.20320  0.94879  1.0000
  H   H1065     1.0  0.22094  0.18563  0.95672  1.0000
  H   H1066     1.0  0.24538  0.25670  0.81607  1.0000
  C   C1063     1.0  0.16059  0.23168  0.80607  1.0000
  H   H1067     1.0  0.11635  0.00148  0.79025  1.0000
  H   H1068     1.0  0.20301  0.10823  0.87670  1.0000
  S   S371      1.0  0.19881  0.11040  0.78525  1.0000
  H   H1069     1.0  0.28156  0.23483  0.98075  1.0000
  C   C1064     1.0  0.12052  0.27215  0.84700  1.0000
  H   H1070     1.0  0.23679  0.11764  0.90099  1.0000
  C   C1065     1.0  0.09869  0.07177  0.78392  1.0000
  H   H1071     1.0  0.04972  0.17496  0.84801  1.0000
  C   C1066     1.0  0.23761  0.15002  0.91964  1.0000
  C   C1067     1.0  0.23210  0.14900  0.93460  1.0000
  C   C1068     1.0  0.23979  0.15193  0.94339  1.0000
  C   C1069     1.0  0.25330  0.15546  0.93737  1.0000
  C   C1070     1.0  0.25882  0.15645  0.92242  1.0000
  C   C1071     1.0  0.25093  0.15393  0.91353  1.0000
  H   H1072     1.0  0.22177  0.14604  0.93938  1.0000
  H   H1073     1.0  0.23533  0.15123  0.95483  1.0000
  H   H1074     1.0  0.26925  0.15920  0.91766  1.0000
  H   H1075     1.0  0.25530  0.15473  0.90203  1.0000
  C   C1072     1.0  0.18632  0.19796  0.86924  1.0000
  C   C1073     1.0  0.17212  0.20232  0.87643  1.0000
  C   C1074     1.0  0.16885  0.21258  0.88512  1.0000
  C   C1075     1.0  0.17985  0.21830  0.88667  1.0000
  C   C1076     1.0  0.19393  0.21417  0.87920  1.0000
  C   C1077     1.0  0.19709  0.20421  0.87032  1.0000
  H   H1076     1.0  0.16375  0.19742  0.87573  1.0000
  H   H1077     1.0  0.15795  0.21566  0.89101  1.0000
  H   H1078     1.0  0.20242  0.21865  0.88034  1.0000
  H   H1079     1.0  0.20787  0.20148  0.86416  1.0000
  C   C1078     1.0  0.26239  0.19428  0.82765  1.0000
  C   C1079     1.0  0.26977  0.20560  0.82169  1.0000
  C   C1080     1.0  0.27139  0.21193  0.80685  1.0000
  C   C1081     1.0  0.26582  0.20681  0.79786  1.0000
  C   C1082     1.0  0.25853  0.19543  0.80376  1.0000
  C   C1083     1.0  0.25690  0.18913  0.81861  1.0000
  H   H1080     1.0  0.27408  0.20962  0.82861  1.0000
  H   H1081     1.0  0.27680  0.22086  0.80246  1.0000
  H   H1082     1.0  0.25427  0.19138  0.79684  1.0000
  H   H1083     1.0  0.25154  0.18020  0.82298  1.0000
  C   C1084     1.0  0.10224  0.22400  0.85702  1.0000
  C   C1085     1.0  0.11418  0.22824  0.85873  1.0000
  C   C1086     1.0  0.11569  0.22865  0.87254  1.0000
  C   C1087     1.0  0.10528  0.22476  0.88482  1.0000
  C   C1088     1.0  0.09345  0.22032  0.88315  1.0000
  C   C1089     1.0  0.09191  0.21996  0.86931  1.0000
  H   H1084     1.0  0.12210  0.23167  0.84931  1.0000
  H   H1085     1.0  0.12485  0.23206  0.87368  1.0000
  H   H1086     1.0  0.08536  0.21726  0.89261  1.0000
  H   H1087     1.0  0.08267  0.21668  0.86815  1.0000
  H   H1088     1.0  0.21303  0.02848  0.82822  1.0000
  C   C1090     1.0  0.18187  0.00294  0.81966  1.0000
  C   C1091     1.0  0.19413  0.99292  0.82305  1.0000
  C   C1092     1.0  0.11377  0.27001  0.86169  1.0000
  C   C1093     1.0  0.25010  0.10616  0.87796  1.0000
  C   C1094     1.0  0.24882  0.33599  0.78473  1.0000
  H   H1089     1.0  0.19404  0.19743  0.90785  1.0000
  H   H1090     1.0  0.25379  0.11649  0.87307  1.0000
  H   H1091     1.0  0.23393  0.11331  0.97818  1.0000
  H   H1092     1.0  0.22774  0.01584  0.79368  1.0000
  H   H1093     1.0  0.01227  0.24821  0.80222  1.0000
  C   C1095     1.0  0.21229  0.14631  0.80872  1.0000
  Fe  Fe186     1.0  0.25427  0.16220  0.97098  1.0000
  S   S372      1.0  0.09384  0.20521  0.81437  1.0000
  C   C1096     1.0  0.20833  0.11150  0.83166  1.0000
  C   C1097     1.0  0.22290  0.10521  0.82771  1.0000
  C   C1098     1.0  0.23335  0.10960  0.83198  1.0000
  C   C1099     1.0  0.22931  0.12047  0.84000  1.0000
  C   C1100     1.0  0.21474  0.12667  0.84412  1.0000
  C   C1101     1.0  0.20426  0.12208  0.84007  1.0000
  H   H1094     1.0  0.22611  0.09688  0.82148  1.0000
  H   H1095     1.0  0.24460  0.10466  0.82891  1.0000
  H   H1096     1.0  0.21152  0.13505  0.85034  1.0000
  H   H1097     1.0  0.19299  0.12696  0.84318  1.0000
  C   C1102     1.0  0.25868  0.28314  0.82132  1.0000
  C   C1103     1.0  0.05611  0.17200  0.81084  1.0000
  H   H1098     1.0  0.18490  0.21199  0.92687  1.0000
  H   H1099     1.0  0.14418  0.23722  0.79345  1.0000
  C   C1104     1.0  0.20004  0.22063  0.79472  1.0000
  C   C1105     1.0  0.04553  0.15179  0.81212  1.0000
  C   C1106     1.0  0.11229  0.25062  0.79104  1.0000
  C   C1107     1.0  0.13629  0.30029  0.92975  1.0000
  H   H1100     1.0  0.00283  0.14283  0.80681  1.0000
  N   N94       1.0  0.23675  0.12810  0.79666  1.0000
  H   H1101     1.0  0.17130  0.02543  0.81635  1.0000
  C   C1108     1.0  0.23804  0.13752  0.80415  1.0000
  C   C1109     1.0  0.00874  0.16831  0.83848  1.0000
  C   C1110     1.0  0.03056  0.19020  0.85525  1.0000
  C   C1111     1.0  0.03462  0.24251  0.79200  1.0000
  H   H1102     1.0  0.32299  0.26223  0.78525  1.0000
  H   H1103     1.0  0.12910  0.01704  0.79646  1.0000
  Fe  Fe187     1.0  0.03498  0.15146  0.78342  1.0000
  H   H1104     1.0  0.13569  0.29763  0.90865  1.0000
  C   C1112     1.0  0.22584  0.14673  0.81034  1.0000
  H   H1105     1.0  0.00613  0.15849  0.84647  1.0000
  H   H1106     1.0  0.16499  0.19859  0.84329  1.0000
  C   C1113     1.0  0.00309  0.22463  0.82964  1.0000
  H   H1107     1.0  0.27963  0.12872  0.96100  1.0000
  Fe  Fe188     1.0  0.07560  0.19352  0.82268  1.0000
  S   S373      1.0  0.03308  0.14473  0.80749  1.0000
  H   H1108     1.0  0.27956  0.28785  0.81061  1.0000
  H   H1109     1.0  0.03655  0.16192  0.83915  1.0000
  H   H1110     1.0  0.05656  0.18321  0.80680  1.0000
  H   H1111     1.0  0.25833  0.11598  0.79617  1.0000
  H   H1112     1.0  0.21465  0.98983  0.82847  1.0000
  N   N95       1.0  0.11867  0.29083  0.94968  1.0000
  C   C1114     1.0  0.26613  0.26154  0.80521  1.0000
  C   C1115     1.0  0.20057  0.19662  0.91554  1.0000
  H   H1113     1.0  0.16624  0.21528  0.84682  1.0000
  C   C1116     1.0  0.13433  0.01100  0.78797  1.0000
  H   H1114     1.0  0.13873  0.28947  0.79087  1.0000
  C   C1117     1.0  0.22354  0.12780  0.79483  1.0000
  C   C1118     1.0  0.19167  0.02186  0.82256  1.0000
  S   S374      1.0  0.22170  0.26755  0.80245  1.0000
  H   H1115     1.0  0.12255  0.07691  0.78787  1.0000
  C   C1119     1.0  0.03065  0.17114  0.84386  1.0000
  H   H1116     1.0  0.23703  0.18750  0.94299  1.0000
  H   H1117     1.0  0.10462  0.28058  0.94445  1.0000
  H   H1118     1.0  0.17476  0.22451  0.82112  1.0000
  C   C1120     1.0  0.21732  0.02136  0.79124  1.0000
  H   H1119     1.0  0.19964  0.20944  0.94491  1.0000
  H   H1120     1.0  0.15390  0.01884  0.78306  1.0000
  H   H1121     1.0  0.23048  0.21486  0.82229  1.0000
  H   H1122     1.0  0.15741  0.29803  0.79709  1.0000
  C   C1121     1.0  0.13090  0.29581  0.92018  1.0000
  C   C1122     1.0  0.27576  0.27039  0.80358  1.0000
  H   H1123     1.0  0.23078  0.20243  0.83968  1.0000
  H   H1124     1.0  0.11934  0.28842  0.97192  1.0000
  C   C1123     1.0  0.22479  0.21258  0.83382  1.0000
  H   H1125     1.0  0.21402  0.21084  0.83399  1.0000
  H   H1126     1.0  0.19991  0.21154  0.80385  1.0000
  C   C1124     1.0  0.01539  0.20167  0.81547  1.0000
  C   C1125     1.0  0.02411  0.20774  0.82041  1.0000
  H   H1127     1.0  0.24713  0.10818  0.78999  1.0000
  N   N96       1.0  0.20371  0.01197  0.82580  1.0000
  H   H1128     1.0  0.25578  0.29158  0.82744  1.0000
  C   C1126     1.0  0.19540  0.20472  0.92633  1.0000
  C   C1127     1.0  0.21415  0.18749  0.91470  1.0000
  C   C1128     1.0  0.22240  0.18661  0.92472  1.0000
  C   C1129     1.0  0.14719  0.23166  0.80375  1.0000
  C   C1130     1.0  0.12990  0.29784  0.94455  1.0000
  H   H1129     1.0  0.17350  0.99951  0.81689  1.0000
  H   H1130     1.0  0.16809  0.23722  0.79755  1.0000
  H   H1131     1.0  0.02023  0.19272  0.81003  1.0000
  C   C1131     1.0  0.11933  0.28887  0.92550  1.0000
  C   C1132     1.0  0.16430  0.22448  0.81942  1.0000
  H   H1132     1.0  0.19484  0.05446  0.78874  1.0000
  H   H1133     1.0  0.24260  0.28937  0.79280  1.0000
  H   H1134     1.0  0.03624  0.19620  0.85895  1.0000
  C   C1133     1.0  0.00859  0.18707  0.85100  1.0000
  H   H1135     1.0  0.24848  0.13767  0.80577  1.0000
  S   S375      1.0  0.23165  0.16047  0.98193  1.0000
  H   H1136     1.0  0.07142  0.14154  0.83225  1.0000
  C   C1134     1.0  0.02017  0.24161  0.79524  1.0000
  N   N97       1.0  0.23456  0.10918  0.88386  1.0000
  C   C1135     1.0  0.22523  0.10656  0.87711  1.0000
  C   C1136     1.0  0.22944  0.11516  0.89587  1.0000
  C   C1137     1.0  0.21035  0.10999  0.88235  1.0000
  C   C1138     1.0  0.21463  0.11859  0.90150  1.0000
  C   C1139     1.0  0.20504  0.11603  0.89464  1.0000
  H   H1137     1.0  0.22924  0.10207  0.86742  1.0000
  C   C1140     1.0  0.11338  0.28633  0.94038  1.0000
  Fe  Fe189     1.0  0.20101  0.25999  0.81140  1.0000
  C   C1141     1.0  0.20504  0.99766  0.82608  1.0000
  H   H1138     1.0  0.13417  0.30130  0.95195  1.0000
  C   C1142     1.0  0.13772  0.22440  0.81473  1.0000
  C   C1143     1.0  0.21061  0.23136  0.84737  1.0000
  H   H1139     1.0  0.20081  0.22833  0.84727  1.0000
  S   S376      1.0  0.25271  0.18365  0.97615  1.0000
  C   C1144     1.0  0.05440  0.14296  0.82150  1.0000
  C   C1145     1.0  0.22208  0.24676  0.85416  1.0000
  H   H1140     1.0  0.19924  0.24749  0.86008  1.0000
  S   S377      1.0  0.06199  0.20904  0.80795  1.0000
  Fe  Fe190     1.0  0.21387  0.06916  0.79378  1.0000
  C   C1146     1.0  0.20963  0.24231  0.85453  1.0000
  S   S378      1.0  0.20076  0.23669  0.81353  1.0000
  S   S379      1.0  0.07787  0.16959  0.82510  1.0000
  S   S380      1.0  0.18847  0.27898  0.79809  1.0000
  H   H1141     1.0  0.10741  0.06198  0.78552  1.0000
  H   H1142     1.0  0.14954  0.20939  0.85311  1.0000
  C   C1147     1.0  0.04649  0.16630  0.80667  1.0000
  H   H1143     1.0  0.22143  0.25564  0.85917  1.0000
  C   C1148     1.0  0.06525  0.16308  0.81997  1.0000
  Fe  Fe191     1.0  0.07906  0.22188  0.80156  1.0000
  S   S381      1.0  0.22211  0.04500  0.79779  1.0000
  H   H1144     1.0  0.14537  0.30560  0.92574  1.0000
  H   H1145     1.0  0.23553  0.31403  0.79757  1.0000
  C   C1149     1.0  0.15908  0.20982  0.84400  1.0000
  C   C1150     1.0  0.12719  0.00229  0.78435  1.0000
  C   C1151     1.0  0.25916  0.12344  0.97266  1.0000
  C   C1152     1.0  0.19540  0.02085  0.78458  1.0000
  N   N98       1.0  0.01617  0.17578  0.84449  1.0000
  C   C1153     1.0  0.24893  0.29736  0.78665  1.0000
  H   H1146     1.0  0.20269  0.15306  0.81383  1.0000
  C   C1154     1.0  0.19888  0.04316  0.78833  1.0000
  H   H1147     1.0  0.22258  0.12034  0.78889  1.0000
  N   N99       1.0  0.15488  0.21752  0.83019  1.0000
  H   H1148     1.0  0.21825  0.18106  0.90641  1.0000
  Fe  Fe192     1.0  0.20875  0.28761  0.79109  1.0000
  H   H1149     1.0  0.29283  0.11237  0.97974  1.0000
  H   H1150     1.0  0.05374  0.13173  0.82570  1.0000
  C   C1155     1.0  0.24960  0.11861  0.79005  1.0000
  H   H1151     1.0  0.13443  0.21144  0.83629  1.0000
  H   H1152     1.0  0.22685  0.15379  0.81674  1.0000
  C   C1156     1.0  0.00049  0.20699  0.81761  1.0000
  C   C1157     1.0  0.21224  0.03603  0.79176  1.0000
  C   C1158     1.0  0.01607  0.23167  0.78998  1.0000
  S   S382      1.0  0.29203  0.26877  0.79080  1.0000
  H   H1153     1.0  0.20278  0.25583  0.78566  1.0000
  Fe  Fe193     1.0  0.18937  0.98737  0.78495  1.0000
  C   C1159     1.0  0.14699  0.26913  0.97560  1.0000
  H   H1154     1.0  0.15389  0.05461  0.79803  1.0000
  C   C1160     1.0  0.14183  0.21719  0.82789  1.0000
  C   C1161     1.0  0.27399  0.12230  0.97059  1.0000
  H   H1155     1.0  0.12723  0.22432  0.81308  1.0000
  H   H1156     1.0  0.11370  0.25196  0.80119  1.0000
  C   C1162     1.0  0.10241  0.24261  0.79111  1.0000
  C   C1163     1.0  0.16297  0.07303  0.78562  1.0000
  H   H1157     1.0  0.25352  0.13067  0.96450  1.0000
  H   H1158     1.0  0.10233  0.29778  0.96692  1.0000
  C   C1164     1.0  0.24499  0.31135  0.78930  1.0000
  H   H1159     1.0  0.23694  0.33932  0.78815  1.0000
  H   H1160     1.0  0.99709  0.19076  0.85154  1.0000
  H   H1161     1.0  0.21283  0.00243  0.78741  1.0000
  C   C1165     1.0  0.99332  0.16480  0.79802  1.0000
  H   H1162     1.0  0.30734  0.18828  0.79310  1.0000
  C   C1166     1.0  0.18058  0.01750  0.81944  1.0000
  H   H1163     1.0  0.00978  0.20382  0.86102  1.0000
  H   H1164     1.0  0.01560  0.16508  0.82833  1.0000
  C   C1167     1.0  0.99548  0.14983  0.80006  1.0000
  C   C1168     1.0  0.20889  0.01375  0.78770  1.0000
  C   C1169     1.0  0.28137  0.11317  0.98111  1.0000
  H   H1165     1.0  0.10806  0.27837  0.96890  1.0000
  C   C1170     1.0  0.14541  0.29606  0.78255  1.0000
  Fe  Fe194     1.0  0.06950  0.86041  0.16928  1.0000
  S   S383      1.0  0.08219  0.86927  0.14749  1.0000
  C   C1171     1.0  0.24827  0.89270  0.06042  1.0000
  Fe  Fe195     1.0  0.09896  0.86848  0.15972  1.0000
  S   S384      1.0  0.11193  0.88600  0.15320  1.0000
  Fe  Fe196     1.0  0.09240  0.84608  0.14696  1.0000
  S   S385      1.0  0.09689  0.83562  0.12784  1.0000
  C   C1172     1.0  0.03446  0.80571  0.14116  1.0000
  Fe  Fe197     1.0  0.03993  0.81647  0.06524  1.0000
  S   S386      1.0  0.03929  0.79287  0.07253  1.0000
  S   S387      1.0  0.03535  0.82935  0.04373  1.0000
  Fe  Fe198     1.0  0.04161  0.81960  0.09479  1.0000
  S   S388      1.0  0.04092  0.79644  0.10450  1.0000
  S   S389      1.0  0.04045  0.83431  0.10945  1.0000
  Fe  Fe199     1.0  0.05656  0.79225  0.08407  1.0000
  S   S390      1.0  0.07608  0.77449  0.08664  1.0000
  Fe  Fe200     1.0  0.02377  0.79930  0.09222  1.0000
  S   S391      1.0  0.00325  0.79193  0.10464  1.0000
  S   S392      1.0  0.05852  0.81537  0.07505  1.0000
  S   S393      1.0  0.02310  0.82296  0.08419  1.0000
  C   C1173     1.0  0.99250  0.78677  0.09582  1.0000
  H   H1166     1.0  0.29608  0.78373  0.13389  1.0000
  S   S394      1.0  0.11583  0.70166  0.15333  1.0000
  C   C1174     1.0  0.20233  0.90753  0.05354  1.0000
  C   C1175     1.0  0.02172  0.81384  0.13684  1.0000
  Fe  Fe201     1.0  0.15625  0.94839  0.16413  1.0000
  H   H1167     1.0  0.17098  0.65976  0.14766  1.0000
  S   S395      1.0  0.16288  0.92418  0.16819  1.0000
  Fe  Fe202     1.0  0.32170  0.72328  0.16445  1.0000
  H   H1168     1.0  0.06739  0.86892  0.09877  1.0000
  Fe  Fe203     1.0  0.12934  0.74429  0.16126  1.0000
  Fe  Fe204     1.0  0.23660  0.93324  0.09372  1.0000
  S   S396      1.0  0.25258  0.93701  0.07260  1.0000
  S   S397      1.0  0.24058  0.91600  0.11366  1.0000
  Fe  Fe205     1.0  0.23432  0.93732  0.06250  1.0000
  S   S398      1.0  0.23690  0.92648  0.04379  1.0000
  S   S399      1.0  0.21899  0.93211  0.08358  1.0000
  Fe  Fe206     1.0  0.30944  0.84532  0.15232  1.0000
  S   S400      1.0  0.31985  0.84611  0.12893  1.0000
  N   N100      1.0  0.19600  0.79991  0.04956  1.0000
  Fe  Fe207     1.0  0.29190  0.82430  0.15334  1.0000
  S   S401      1.0  0.30051  0.82314  0.12996  1.0000
  C   C1176     1.0  0.36992  0.81153  0.15223  1.0000
  Fe  Fe208     1.0  0.32179  0.82212  0.13474  1.0000
  S   S402      1.0  0.34125  0.80761  0.12443  1.0000
  Fe  Fe209     1.0  0.29765  0.84718  0.12620  1.0000
  S   S403      1.0  0.29092  0.86143  0.10591  1.0000
  S   S404      1.0  0.31349  0.82122  0.15850  1.0000
  S   S405      1.0  0.28695  0.84850  0.14926  1.0000
  H   H1169     1.0  0.24957  0.97646  0.09547  1.0000
  H   H1170     1.0  0.27219  0.73508  0.09924  1.0000
  C   C1177     1.0  0.17927  0.96716  0.10076  1.0000
  Fe  Fe210     1.0  0.26237  0.78301  0.11081  1.0000
  S   S406      1.0  0.27487  0.79987  0.09741  1.0000
  S   S407      1.0  0.25864  0.77430  0.13487  1.0000
  Fe  Fe211     1.0  0.25646  0.77622  0.08500  1.0000
  S   S408      1.0  0.26855  0.79211  0.06897  1.0000
  S   S409      1.0  0.24705  0.76163  0.07767  1.0000
  Fe  Fe212     1.0  0.28494  0.78403  0.08292  1.0000
  S   S410      1.0  0.30834  0.78201  0.07247  1.0000
  Fe  Fe213     1.0  0.25757  0.80689  0.08439  1.0000
  S   S411      1.0  0.24808  0.83040  0.07665  1.0000
  S   S412      1.0  0.27403  0.76650  0.09739  1.0000
  S   S413      1.0  0.24395  0.79167  0.09933  1.0000
  H   H1171     1.0  0.24604  0.88632  0.03690  1.0000
  C   C1178     1.0  0.37905  0.73550  0.13087  1.0000
  Fe  Fe214     1.0  0.34705  0.70075  0.15464  1.0000
  H   H1172     1.0  0.27688  0.65394  0.10857  1.0000
  H   H1173     1.0  0.11148  0.83246  0.03583  1.0000
  Fe  Fe215     1.0  0.33870  0.72921  0.13377  1.0000
  S   S414      1.0  0.31509  0.73068  0.14305  1.0000
  S   S415      1.0  0.34865  0.74549  0.11579  1.0000
  C   C1179     1.0  0.16174  0.88524  0.16912  1.0000
  C   C1180     1.0  0.27675  0.90484  0.13176  1.0000
  Fe  Fe216     1.0  0.32013  0.70712  0.14274  1.0000
  S   S416      1.0  0.30727  0.69809  0.13289  1.0000
  S   S417      1.0  0.34492  0.72388  0.15530  1.0000
  S   S418      1.0  0.34335  0.70608  0.13199  1.0000
  S   S419      1.0  0.14884  0.96398  0.14496  1.0000
  Fe  Fe217     1.0  0.11359  0.72231  0.16001  1.0000
  C   C1181     1.0  0.25264  0.88543  0.17165  1.0000
  S   S420      1.0  0.11356  0.81241  0.99578  1.0000
  H   H1174     1.0  0.22749  0.66687  0.09517  1.0000
  Fe  Fe218     1.0  0.09795  0.75312  0.15932  1.0000
  H   H1175     1.0  0.14515  0.98056  0.11725  1.0000
  C   C1182     1.0  0.31834  0.79034  0.11279  1.0000
  C   C1183     1.0  0.27615  0.84355  0.08941  1.0000
  H   H1176     1.0  0.36739  0.56762  0.16707  1.0000
  C   C1184     1.0  0.20321  0.90332  0.04060  1.0000
  C   C1185     1.0  0.99957  0.81606  0.12868  1.0000
  S   S421      1.0  0.23361  0.66010  0.12841  1.0000
  S   S422      1.0  0.22858  0.95690  0.09439  1.0000
  Fe  Fe219     1.0  0.23781  0.68692  0.14907  1.0000
  S   S423      1.0  0.25679  0.67277  0.13764  1.0000
  S   S424      1.0  0.32414  0.69972  0.16532  1.0000
  Fe  Fe220     1.0  0.24465  0.67879  0.11979  1.0000
  S   S425      1.0  0.25695  0.68287  0.09664  1.0000
  Fe  Fe221     1.0  0.24418  0.65544  0.14734  1.0000
  H   H1177     1.0  0.04913  0.84318  0.16487  1.0000
  S   S426      1.0  0.22656  0.69450  0.13050  1.0000
  H   H1178     1.0  0.38453  0.69887  0.13773  1.0000
  Fe  Fe222     1.0  0.16377  0.72578  0.08404  1.0000
  S   S427      1.0  0.17246  0.73402  0.06054  1.0000
  S   S428      1.0  0.15201  0.70782  0.08956  1.0000
  Fe  Fe223     1.0  0.17825  0.74418  0.09403  1.0000
  S   S429      1.0  0.18740  0.75419  0.07115  1.0000
  S   S430      1.0  0.18575  0.74987  0.11124  1.0000
  Fe  Fe224     1.0  0.16583  0.75556  0.06698  1.0000
  S   S431      1.0  0.15468  0.77671  0.05522  1.0000
  Fe  Fe225     1.0  0.19305  0.73153  0.06765  1.0000
  S   S432      1.0  0.21509  0.72213  0.05563  1.0000
  S   S433      1.0  0.15596  0.74746  0.09023  1.0000
  S   S434      1.0  0.18462  0.72150  0.09076  1.0000
  C   C1186     1.0  0.28375  0.65479  0.11526  1.0000
  C   C1187     1.0  0.24572  0.69387  0.08495  1.0000
  C   C1188     1.0  0.23171  0.70013  0.09081  1.0000
  C   C1189     1.0  0.22274  0.70942  0.08183  1.0000
  C   C1190     1.0  0.22727  0.71196  0.06679  1.0000
  C   C1191     1.0  0.24136  0.70560  0.06076  1.0000
  C   C1192     1.0  0.25066  0.69669  0.06986  1.0000
  H   H1179     1.0  0.22762  0.69779  0.10228  1.0000
  H   H1180     1.0  0.21224  0.71434  0.08669  1.0000
  H   H1181     1.0  0.24504  0.70752  0.04910  1.0000
  H   H1182     1.0  0.26156  0.69188  0.06520  1.0000
  C   C1193     1.0  0.13611  0.77204  0.01902  1.0000
  C   C1194     1.0  0.13999  0.75993  0.02967  1.0000
  C   C1195     1.0  0.14591  0.76128  0.04070  1.0000
  C   C1196     1.0  0.14779  0.77476  0.04120  1.0000
  C   C1197     1.0  0.14375  0.78690  0.03064  1.0000
  C   C1198     1.0  0.13806  0.78551  0.01946  1.0000
  H   H1183     1.0  0.13852  0.74948  0.02932  1.0000
  H   H1184     1.0  0.14883  0.75191  0.04889  1.0000
  H   H1185     1.0  0.14520  0.79734  0.03100  1.0000
  H   H1186     1.0  0.13528  0.79485  0.01117  1.0000
  H   H1187     1.0  0.23084  0.87818  0.04504  1.0000
  N   N101      1.0  0.23954  0.88413  0.05992  1.0000
  S   S435      1.0  0.16806  0.84091  0.02503  1.0000
  C   C1199     1.0  0.16798  0.65142  0.17080  1.0000
  C   C1200     1.0  0.28936  0.66717  0.11226  1.0000
  S   S436      1.0  0.18898  0.89643  0.03889  1.0000
  Fe  Fe226     1.0  0.24323  0.96069  0.07251  1.0000
  C   C1201     1.0  0.26844  0.63233  0.16556  1.0000
  C   C1202     1.0  0.25656  0.73765  0.11890  1.0000
  C   C1203     1.0  0.20799  0.81373  0.17752  1.0000
  C   C1204     1.0  0.30132  0.83072  0.08759  1.0000
  H   H1188     1.0  0.25618  0.89614  0.05091  1.0000
  C   C1205     1.0  0.28886  0.70135  0.14044  1.0000
  C   C1206     1.0  0.28374  0.70248  0.15498  1.0000
  C   C1207     1.0  0.26899  0.70354  0.16115  1.0000
  C   C1208     1.0  0.25950  0.70350  0.15271  1.0000
  C   C1209     1.0  0.26459  0.70309  0.13804  1.0000
  C   C1210     1.0  0.27924  0.70194  0.13193  1.0000
  H   H1189     1.0  0.29122  0.70189  0.16159  1.0000
  C   C1211     1.0  0.30848  0.65954  0.14275  1.0000
  H   H1190     1.0  0.25726  0.70325  0.13144  1.0000
  H   H1191     1.0  0.28314  0.70128  0.12063  1.0000
  C   C1212     1.0  0.07448  0.78133  0.04759  1.0000
  C   C1213     1.0  0.01913  0.86964  0.16964  1.0000
  H   H1192     1.0  0.08460  0.81509  0.15248  1.0000
  S   S437      1.0  0.36465  0.68249  0.16179  1.0000
  C   C1214     1.0  0.23114  0.84827  0.04089  1.0000
  N   N102      1.0  0.35028  0.82031  0.17611  1.0000
  C   C1215     1.0  0.17490  0.94595  0.07330  1.0000
  H   H1193     1.0  0.16338  0.88916  0.14603  1.0000
  C   C1216     1.0  0.18256  0.79658  0.04883  1.0000
  C   C1217     1.0  0.27727  0.72988  0.17422  1.0000
  C   C1218     1.0  0.15406  0.82858  0.01216  1.0000
  H   H1194     1.0  0.99535  0.82610  0.13303  1.0000
  H   H1195     1.0  0.15311  0.82054  0.02217  1.0000
  H   H1196     1.0  0.37743  0.80788  0.14293  1.0000
  C   C1219     1.0  0.20345  0.75207  0.10334  1.0000
  C   C1220     1.0  0.20975  0.76085  0.10795  1.0000
  C   C1221     1.0  0.22332  0.76369  0.10033  1.0000
  C   C1222     1.0  0.23044  0.75793  0.08800  1.0000
  C   C1223     1.0  0.22429  0.74883  0.08376  1.0000
  C   C1224     1.0  0.21105  0.74565  0.09162  1.0000
  H   H1197     1.0  0.20398  0.76578  0.11709  1.0000
  H   H1198     1.0  0.22811  0.77048  0.10387  1.0000
  H   H1199     1.0  0.22975  0.74419  0.07434  1.0000
  H   H1200     1.0  0.20661  0.73836  0.08841  1.0000
  C   C1225     1.0  0.31949  0.77149  0.08437  1.0000
  C   C1226     1.0  0.31359  0.76421  0.09809  1.0000
  C   C1227     1.0  0.32256  0.75599  0.10764  1.0000
  C   C1228     1.0  0.33742  0.75518  0.10362  1.0000
  C   C1229     1.0  0.34331  0.76269  0.08997  1.0000
  C   C1230     1.0  0.33436  0.77075  0.08029  1.0000
  H   H1201     1.0  0.30213  0.76490  0.10139  1.0000
  H   H1202     1.0  0.31786  0.75057  0.11819  1.0000
  H   H1203     1.0  0.35480  0.76216  0.08681  1.0000
  H   H1204     1.0  0.33896  0.77640  0.06967  1.0000
  C   C1231     1.0  0.24522  0.83422  0.05887  1.0000
  C   C1232     1.0  0.25182  0.82970  0.03442  1.0000
  C   C1233     1.0  0.25450  0.82676  0.04845  1.0000
  H   H1205     1.0  0.25888  0.82369  0.02650  1.0000
  H   H1206     1.0  0.26389  0.81889  0.05105  1.0000
  H   H1207     1.0  0.22544  0.78458  0.06432  1.0000
  S   S438      1.0  0.07680  0.82501  0.98284  1.0000
  H   H1208     1.0  0.13532  0.86115  0.17236  1.0000
  H   H1209     1.0  0.04212  0.81109  0.14264  1.0000
  H   H1210     1.0  0.20858  0.94103  0.18160  1.0000
  C   C1234     1.0  0.03353  0.86228  0.16929  1.0000
  H   H1211     1.0  0.23411  0.90083  0.16510  1.0000
  H   H1212     1.0  0.28260  0.89648  0.12528  1.0000
  H   H1213     1.0  0.11816  0.86644  0.98841  1.0000
  H   H1214     1.0  0.23196  0.80810  0.05089  1.0000
  C   C1235     1.0  0.27230  0.80040  0.15916  1.0000
  C   C1236     1.0  0.27066  0.80622  0.14485  1.0000
  C   C1237     1.0  0.26638  0.79824  0.13735  1.0000
  C   C1238     1.0  0.26378  0.78445  0.14415  1.0000
  C   C1239     1.0  0.26517  0.77877  0.15857  1.0000
  C   C1240     1.0  0.26945  0.78675  0.16604  1.0000
  H   H1215     1.0  0.27222  0.81704  0.13971  1.0000
  H   H1216     1.0  0.26475  0.80292  0.12645  1.0000
  H   H1217     1.0  0.26289  0.76825  0.16401  1.0000
  C   C1241     1.0  0.21836  0.79514  0.16289  1.0000
  C   C1242     1.0  0.35208  0.79512  0.13578  1.0000
  C   C1243     1.0  0.36581  0.78845  0.12940  1.0000
  C   C1244     1.0  0.37498  0.77873  0.13802  1.0000
  C   C1245     1.0  0.37046  0.77549  0.15311  1.0000
  C   C1246     1.0  0.35654  0.78181  0.15956  1.0000
  C   C1247     1.0  0.34734  0.79166  0.15088  1.0000
  H   H1218     1.0  0.36949  0.79100  0.11773  1.0000
  H   H1219     1.0  0.38573  0.77393  0.13296  1.0000
  C   C1248     1.0  0.23362  0.84508  0.05500  1.0000
  H   H1220     1.0  0.33664  0.79653  0.15587  1.0000
  C   C1249     1.0  0.22399  0.91727  0.04300  1.0000
  C   C1250     1.0  0.22509  0.91268  0.03021  1.0000
  C   C1251     1.0  0.21267  0.91446  0.05475  1.0000
  H   H1221     1.0  0.23382  0.91478  0.02107  1.0000
  H   H1222     1.0  0.21174  0.91782  0.06469  1.0000
  C   C1252     1.0  0.27678  0.87642  0.10817  1.0000
  C   C1253     1.0  0.27612  0.88873  0.09696  1.0000
  C   C1254     1.0  0.26504  0.90093  0.09855  1.0000
  C   C1255     1.0  0.25432  0.90070  0.11118  1.0000
  C   C1256     1.0  0.25476  0.88823  0.12225  1.0000
  C   C1257     1.0  0.26608  0.87616  0.12084  1.0000
  H   H1223     1.0  0.28443  0.88899  0.08716  1.0000
  H   H1224     1.0  0.26499  0.91059  0.09013  1.0000
  H   H1225     1.0  0.24634  0.88789  0.13194  1.0000
  H   H1226     1.0  0.26637  0.86659  0.12943  1.0000
  H   H1227     1.0  0.23891  0.73882  0.13737  1.0000
  H   H1228     1.0  0.22642  0.85092  0.06297  1.0000
  S   S439      1.0  0.14991  0.75198  0.15621  1.0000
  C   C1258     1.0  0.21256  0.81593  0.04236  1.0000
  H   H1229     1.0  0.23480  0.89783  0.09492  1.0000
  C   C1259     1.0  0.01428  0.85061  0.16112  1.0000
  C   C1260     1.0  0.09084  0.77612  0.02100  1.0000
  C   C1261     1.0  0.18418  0.95774  0.11283  1.0000
  C   C1262     1.0  0.17491  0.95656  0.12659  1.0000
  H   H1230     1.0  0.19506  0.95137  0.11156  1.0000
  H   H1231     1.0  0.17863  0.94930  0.13594  1.0000
  C   C1263     1.0  0.12717  0.70216  0.13621  1.0000
  C   C1264     1.0  0.13690  0.71141  0.13129  1.0000
  C   C1265     1.0  0.14497  0.71284  0.11704  1.0000
  C   C1266     1.0  0.14324  0.70502  0.10776  1.0000
  C   C1267     1.0  0.13397  0.69534  0.11286  1.0000
  C   C1268     1.0  0.12595  0.69387  0.12712  1.0000
  H   H1232     1.0  0.13815  0.71750  0.13844  1.0000
  H   H1233     1.0  0.15231  0.72017  0.11318  1.0000
  H   H1234     1.0  0.13269  0.68923  0.10569  1.0000
  H   H1235     1.0  0.11846  0.68668  0.13094  1.0000
  H   H1236     1.0  0.20471  0.66730  0.11353  1.0000
  H   H1237     1.0  0.32343  0.81897  0.08536  1.0000
  H   H1238     1.0  0.30183  0.67815  0.11908  1.0000
  C   C1269     1.0  0.31268  0.81517  0.07054  1.0000
  H   H1239     1.0  0.40214  0.71621  0.16847  1.0000
  H   H1240     1.0  0.32769  0.78653  0.10445  1.0000
  H   H1241     1.0  0.19342  0.90572  0.06255  1.0000
  C   C1270     1.0  0.15555  0.74921  0.17249  1.0000
  H   H1242     1.0  0.00844  0.78484  0.07616  1.0000
  C   C1271     1.0  0.04775  0.82820  0.02727  1.0000
  C   C1272     1.0  0.04253  0.83392  0.01450  1.0000
  C   C1273     1.0  0.05169  0.83300  0.00103  1.0000
  C   C1274     1.0  0.06623  0.82646  0.00014  1.0000
  C   C1275     1.0  0.07169  0.82096  0.01289  1.0000
  C   C1276     1.0  0.06240  0.82180  0.02652  1.0000
  H   H1243     1.0  0.03126  0.83896  0.01501  1.0000
  H   H1244     1.0  0.09263  0.86174  0.98787  1.0000
  H   H1245     1.0  0.08292  0.81584  0.01228  1.0000
  H   H1246     1.0  0.06649  0.81755  0.03640  1.0000
  C   C1277     1.0  0.07875  0.77365  0.10396  1.0000
  C   C1278     1.0  0.07504  0.78628  0.10938  1.0000
  C   C1279     1.0  0.07608  0.78568  0.12356  1.0000
  C   C1280     1.0  0.08117  0.77248  0.13230  1.0000
  C   C1281     1.0  0.08526  0.75984  0.12679  1.0000
  C   C1282     1.0  0.08392  0.76042  0.11265  1.0000
  H   H1247     1.0  0.07121  0.79655  0.10269  1.0000
  H   H1248     1.0  0.07285  0.79549  0.12772  1.0000
  H   H1249     1.0  0.08897  0.74957  0.13359  1.0000
  H   H1250     1.0  0.08650  0.75059  0.10859  1.0000
  C   C1283     1.0  0.11559  0.89368  0.16597  1.0000
  C   C1284     1.0  0.12402  0.90423  0.16092  1.0000
  C   C1285     1.0  0.12871  0.90933  0.17068  1.0000
  C   C1286     1.0  0.38479  0.70959  0.13868  1.0000
  H   H1251     1.0  0.38643  0.73024  0.17170  1.0000
  H   H1252     1.0  0.31873  0.80138  0.11328  1.0000
  H   H1253     1.0  0.12727  0.90820  0.14937  1.0000
  H   H1254     1.0  0.13544  0.91723  0.16662  1.0000
  H   H1255     1.0  0.00247  0.81906  0.11666  1.0000
  H   H1256     1.0  0.04745  0.78429  0.14605  1.0000
  C   C1287     1.0  0.08127  0.83407  0.12338  1.0000
  C   C1288     1.0  0.08235  0.82811  0.11147  1.0000
  C   C1289     1.0  0.06985  0.82753  0.10741  1.0000
  C   C1290     1.0  0.05629  0.83289  0.11529  1.0000
  C   C1291     1.0  0.05528  0.83827  0.12753  1.0000
  C   C1292     1.0  0.06771  0.83893  0.13154  1.0000
  H   H1257     1.0  0.09284  0.82426  0.10518  1.0000
  H   H1258     1.0  0.07073  0.82340  0.09792  1.0000
  H   H1259     1.0  0.04483  0.84243  0.13360  1.0000
  H   H1260     1.0  0.06678  0.84358  0.14071  1.0000
  N   N103      1.0  0.31891  0.78075  0.12705  1.0000
  C   C1293     1.0  0.33195  0.77452  0.13079  1.0000
  C   C1294     1.0  0.30642  0.77870  0.13680  1.0000
  C   C1295     1.0  0.33275  0.76586  0.14456  1.0000
  C   C1296     1.0  0.30683  0.77007  0.15066  1.0000
  C   C1297     1.0  0.32009  0.76367  0.15455  1.0000
  C   C1298     1.0  0.19629  0.73031  0.15453  1.0000
  H   H1261     1.0  0.34185  0.77619  0.12308  1.0000
  S   S440      1.0  0.27753  0.81024  0.16866  1.0000
  H   H1262     1.0  0.34315  0.76093  0.14742  1.0000
  H   H1263     1.0  0.29694  0.76837  0.15836  1.0000
  C   C1299     1.0  0.12400  0.85909  0.00923  1.0000
  H   H1264     1.0  0.31224  0.64921  0.15014  1.0000
  H   H1265     1.0  0.21016  0.78906  0.17006  1.0000
  H   H1266     1.0  0.29560  0.60809  0.17995  1.0000
  N   N104      1.0  0.03373  0.87124  0.11955  1.0000
  C   C1300     1.0  0.03574  0.87572  0.13087  1.0000
  C   C1301     1.0  0.04486  0.86904  0.10800  1.0000
  C   C1302     1.0  0.04918  0.87795  0.13094  1.0000
  C   C1303     1.0  0.16799  0.75352  0.17252  1.0000
  C   C1304     1.0  0.06061  0.87565  0.11925  1.0000
  C   C1305     1.0  0.01995  0.86761  0.12046  1.0000
  H   H1267     1.0  0.02699  0.87736  0.14005  1.0000
  H   H1268     1.0  0.20380  0.69349  0.06295  1.0000
  H   H1269     1.0  0.05077  0.88114  0.14017  1.0000
  H   H1270     1.0  0.06847  0.77920  0.00614  1.0000
  C   C1306     1.0  0.20203  0.71727  0.16303  1.0000
  H   H1271     1.0  0.01822  0.86803  0.10954  1.0000
  H   H1272     1.0  0.01982  0.85645  0.12695  1.0000
  H   H1273     1.0  0.01077  0.87519  0.12570  1.0000
  H   H1274     1.0  0.22257  0.87314  0.07151  1.0000
  H   H1275     1.0  0.35922  0.65162  0.18140  1.0000
  S   S441      1.0  0.08559  0.86129  0.18171  1.0000
  C   C1307     1.0  0.99754  0.78406  0.08179  1.0000
  H   H1276     1.0  0.28678  0.88304  0.15180  1.0000
  C   C1308     1.0  0.15629  0.84953  0.98645  1.0000
  Fe  Fe227     1.0  0.12394  0.79100  0.98952  1.0000
  C   C1309     1.0  0.36214  0.80958  0.17811  1.0000
  C   C1310     1.0  0.36852  0.69884  0.17885  1.0000
  H   H1277     1.0  0.13447  0.97965  0.16725  1.0000
  C   C1311     1.0  0.25800  0.74115  0.16137  1.0000
  C   C1312     1.0  0.09909  0.85071  0.99098  1.0000
  H   H1278     1.0  0.99244  0.77796  0.06431  1.0000
  C   C1313     1.0  0.14936  0.87449  0.15781  1.0000
  H   H1279     1.0  0.33791  0.73869  0.17826  1.0000
  H   H1280     1.0  0.14738  0.67686  0.18170  1.0000
  S   S442      1.0  0.19026  0.96893  0.08339  1.0000
  H   H1281     1.0  0.25328  0.90497  0.07310  1.0000
  C   C1314     1.0  0.24139  0.87886  0.04669  1.0000
  C   C1315     1.0  0.23623  0.89382  0.08516  1.0000
  C   C1316     1.0  0.28795  0.82792  0.07187  1.0000
  S   S443      1.0  0.19656  0.85819  0.03179  1.0000
  N   N105      1.0  0.39047  0.72474  0.15122  1.0000
  C   C1317     1.0  0.38476  0.73677  0.14204  1.0000
  C   C1318     1.0  0.39067  0.71126  0.14958  1.0000
  H   H1282     1.0  0.19816  0.95620  0.05870  1.0000
  H   H1283     1.0  0.32190  0.80761  0.06595  1.0000
  H   H1284     1.0  0.16657  0.93928  0.07750  1.0000
  H   H1285     1.0  0.38455  0.74743  0.14335  1.0000
  C   C1319     1.0  0.12725  0.78428  0.14388  1.0000
  C   C1320     1.0  0.23308  0.80941  0.16745  1.0000
  C   C1321     1.0  0.37337  0.68609  0.17354  1.0000
  N   N106      1.0  0.07690  0.78367  0.02198  1.0000
  C   C1322     1.0  0.09692  0.77101  0.03332  1.0000
  S   S444      1.0  0.20067  0.85381  0.99867  1.0000
  H   H1286     1.0  0.16715  0.97930  0.17968  1.0000
  H   H1287     1.0  0.24547  0.82203  0.17237  1.0000
  H   H1288     1.0  0.12867  0.84876  0.03034  1.0000
  H   H1289     1.0  0.37416  0.72073  0.12087  1.0000
  H   H1290     1.0  0.37640  0.57995  0.18108  1.0000
  C   C1323     1.0  0.11022  0.80521  0.15896  1.0000
  H   H1291     1.0  0.04345  0.86494  0.09928  1.0000
  H   H1292     1.0  0.16141  0.98261  0.09311  1.0000
  C   C1324     1.0  0.25377  0.90329  0.14924  1.0000
  C   C1325     1.0  0.01508  0.79251  0.13611  1.0000
  H   H1293     1.0  0.28866  0.72574  0.17393  1.0000
  H   H1294     1.0  0.23433  0.84105  0.98324  1.0000
  C   C1326     1.0  0.28661  0.64377  0.12717  1.0000
  H   H1295     1.0  0.24092  0.86298  0.98511  1.0000
  N   N107      1.0  0.10427  0.79937  0.15125  1.0000
  C   C1327     1.0  0.11134  0.88872  0.18093  1.0000
  H   H1296     1.0  0.33842  0.83493  0.16080  1.0000
  Fe  Fe228     1.0  0.21273  0.95601  0.08206  1.0000
  H   H1297     1.0  0.31809  0.66403  0.13648  1.0000
  H   H1298     1.0  0.38944  0.66635  0.17321  1.0000
  S   S445      1.0  0.38269  0.76368  0.16338  1.0000
  H   H1299     1.0  0.09764  0.83361  0.01758  1.0000
  H   H1300     1.0  0.13174  0.86597  0.00662  1.0000
  S   S446      1.0  0.31452  0.85806  0.16544  1.0000
  C   C1328     1.0  0.26749  0.88049  0.16786  1.0000
  N   N108      1.0  0.21986  0.80624  0.16959  1.0000
  H   H1301     1.0  0.09322  0.76984  0.05636  1.0000
  H   H1302     1.0  0.15784  0.72176  0.14994  1.0000
  H   H1303     1.0  0.24824  0.91212  0.14197  1.0000
  C   C1329     1.0  0.05845  0.87122  0.10767  1.0000
  H   H1304     1.0  0.01965  0.82552  0.13510  1.0000
  H   H1305     1.0  0.07119  0.87700  0.11930  1.0000
  S   S447      1.0  0.22611  0.66903  0.16027  1.0000
  H   H1306     1.0  0.06051  0.79676  0.01049  1.0000
  H   H1307     1.0  0.27297  0.87163  0.17509  1.0000
  N   N109      1.0  0.25338  0.72766  0.10025  1.0000
  C   C1330     1.0  0.26166  0.73346  0.10551  1.0000
  C   C1331     1.0  0.24018  0.72545  0.10823  1.0000
  C   C1332     1.0  0.23473  0.72953  0.12163  1.0000
  C   C1333     1.0  0.24299  0.73568  0.12697  1.0000
  C   C1334     1.0  0.25893  0.72333  0.08622  1.0000
  H   H1308     1.0  0.23361  0.72089  0.10406  1.0000
  H   H1309     1.0  0.22413  0.72801  0.12773  1.0000
  H   H1310     1.0  0.26551  0.71216  0.08770  1.0000
  H   H1311     1.0  0.25000  0.72373  0.08102  1.0000
  H   H1312     1.0  0.26550  0.73088  0.07851  1.0000
  N   N110      1.0  0.18005  0.71877  0.14934  1.0000
  C   C1335     1.0  0.28331  0.64450  0.17241  1.0000
  C   C1336     1.0  0.18532  0.70606  0.15799  1.0000
  C   C1337     1.0  0.27142  0.64507  0.16679  1.0000
  S   S448      1.0  0.00268  0.84233  0.15664  1.0000
  H   H1313     1.0  0.18048  0.74113  0.14154  1.0000
  H   H1314     1.0  0.24862  0.86800  0.04742  1.0000
  H   H1315     1.0  0.24238  0.80358  0.16109  1.0000
  H   H1316     1.0  0.00780  0.78730  0.13369  1.0000
  H   H1317     1.0  0.16831  0.72837  0.13242  1.0000
  H   H1318     1.0  0.27475  0.60911  0.16957  1.0000
  C   C1338     1.0  0.14301  0.86760  0.17156  1.0000
  H   H1319     1.0  0.99851  0.86968  0.16557  1.0000
  H   H1320     1.0  0.08636  0.80274  0.14145  1.0000
  H   H1321     1.0  0.20029  0.73995  0.15326  1.0000
  C   C1339     1.0  0.17820  0.68079  0.10955  1.0000
  N   N111      1.0  0.01224  0.80723  0.13436  1.0000
  H   H1322     1.0  0.16822  0.93356  0.05512  1.0000
  C   C1340     1.0  0.08868  0.77370  0.04668  1.0000
  H   H1323     1.0  0.19722  0.67169  0.16952  1.0000
  C   C1341     1.0  0.24666  0.89778  0.07297  1.0000
  H   H1324     1.0  0.20303  0.94219  0.01931  1.0000
  C   C1342     1.0  0.16083  0.96482  0.12815  1.0000
  H   H1325     1.0  0.12953  0.80567  0.16518  1.0000
  Fe  Fe229     1.0  0.21640  0.67525  0.14053  1.0000
  C   C1343     1.0  0.22188  0.80579  0.05050  1.0000
  H   H1326     1.0  0.25428  0.74623  0.15135  1.0000
  C   C1344     1.0  0.24569  0.89691  0.16230  1.0000
  H   H1327     1.0  0.37451  0.74510  0.12363  1.0000
  H   H1328     1.0  0.13241  0.67925  0.17330  1.0000
  S   S449      1.0  0.23612  0.84321  0.01342  1.0000
  C   C1345     1.0  0.22942  0.88002  0.07188  1.0000
  H   H1329     1.0  0.21943  0.88171  0.09406  1.0000
  C   C1346     1.0  0.21477  0.90572  0.02901  1.0000
  C   C1347     1.0  0.21820  0.79262  0.05806  1.0000
  H   H1330     1.0  0.28195  0.63427  0.12989  1.0000
  N   N112      1.0  0.11999  0.76362  0.08850  1.0000
  C   C1348     1.0  0.11787  0.75425  0.10164  1.0000
  C   C1349     1.0  0.12279  0.75883  0.07589  1.0000
  C   C1350     1.0  0.11855  0.73966  0.10238  1.0000
  C   C1351     1.0  0.12374  0.74427  0.07623  1.0000
  C   C1352     1.0  0.12149  0.73468  0.08958  1.0000
  C   C1353     1.0  0.11848  0.77903  0.08787  1.0000
  H   H1331     1.0  0.11543  0.75807  0.11165  1.0000
  H   H1332     1.0  0.12441  0.76629  0.06551  1.0000
  H   H1333     1.0  0.11678  0.73225  0.11282  1.0000
  H   H1334     1.0  0.12628  0.74042  0.06622  1.0000
  H   H1335     1.0  0.12215  0.72335  0.09001  1.0000
  H   H1336     1.0  0.12092  0.78078  0.09768  1.0000
  H   H1337     1.0  0.12616  0.78377  0.07834  1.0000
  H   H1338     1.0  0.10728  0.78481  0.08704  1.0000
  S   S450      1.0  0.22672  0.96127  0.06018  1.0000
  C   C1354     1.0  0.12491  0.80085  0.15915  1.0000
  H   H1339     1.0  0.20246  0.77950  0.06328  1.0000
  H   H1340     1.0  0.27511  0.84139  0.10137  1.0000
  C   C1355     1.0  0.19129  0.68731  0.08452  1.0000
  H   H1341     1.0  0.19745  0.81134  0.17913  1.0000
  H   H1342     1.0  0.16954  0.70929  0.13885  1.0000
  C   C1356     1.0  0.11254  0.78894  0.14388  1.0000
  C   C1357     1.0  0.16256  0.84999  0.99761  1.0000
  C   C1358     1.0  0.00954  0.86391  0.16539  1.0000
  H   H1343     1.0  0.09736  0.77400  0.01063  1.0000
  H   H1344     1.0  0.30845  0.79063  0.10916  1.0000
  H   H1345     1.0  0.35562  0.82709  0.13945  1.0000
  H   H1346     1.0  0.20068  0.69497  0.17166  1.0000
  C   C1359     1.0  0.22758  0.88484  0.08466  1.0000
  H   H1347     1.0  0.27735  0.85491  0.08485  1.0000
  C   C1360     1.0  0.06866  0.78617  0.03511  1.0000
  S   S451      1.0  0.11769  0.74314  0.14486  1.0000
  S   S452      1.0  0.17628  0.88110  0.01050  1.0000
  H   H1348     1.0  0.29911  0.81346  0.05726  1.0000
  H   H1349     1.0  0.26597  0.84224  0.08748  1.0000
  H   H1350     1.0  0.21550  0.90265  0.01895  1.0000
  C   C1361     1.0  0.02852  0.84312  0.16117  1.0000
  C   C1362     1.0  0.13345  0.79027  0.15158  1.0000
  H   H1351     1.0  0.21538  0.82615  0.03634  1.0000
  C   C1363     1.0  0.16128  0.83964  0.01057  1.0000
  C   C1364     1.0  0.29202  0.63118  0.17720  1.0000
  H   H1352     1.0  0.30204  0.83555  0.09610  1.0000
  C   C1365     1.0  0.02766  0.78402  0.14057  1.0000
  H   H1353     1.0  0.35293  0.77929  0.17119  1.0000
  H   H1354     1.0  0.18268  0.94212  0.08066  1.0000
  C   C1366     1.0  0.19431  0.95096  0.05242  1.0000
  H   H1355     1.0  0.03217  0.83269  0.15817  1.0000
  S   S453      1.0  0.09287  0.73223  0.17330  1.0000
  C   C1367     1.0  0.37894  0.72181  0.12927  1.0000
  C   C1368     1.0  0.11627  0.85932  0.99899  1.0000
  H   H1356     1.0  0.17701  0.79158  0.05976  1.0000
  H   H1357     1.0  0.07826  0.79369  0.99963  1.0000
  S   S454      1.0  0.21094  0.88119  0.00362  1.0000
  C   C1369     1.0  0.03744  0.79070  0.14303  1.0000
  S   S455      1.0  0.24169  0.70208  0.16060  1.0000
  N   N113      1.0  0.30047  0.65754  0.13295  1.0000
  S   S456      1.0  0.07873  0.83723  0.16798  1.0000
  H   H1358     1.0  0.18120  0.69341  0.08152  1.0000
  H   H1359     1.0  0.30148  0.66728  0.14950  1.0000
  S   S457      1.0  0.04548  0.86992  0.17413  1.0000
  C   C1370     1.0  0.39572  0.72648  0.16327  1.0000
  C   C1371     1.0  0.18932  0.66587  0.16969  1.0000
  H   H1360     1.0  0.21527  0.80018  0.15225  1.0000
  S   S458      1.0  0.17320  0.95135  0.17387  1.0000
  C   C1372     1.0  0.12228  0.84939  0.02255  1.0000
  N   N114      1.0  0.26833  0.89825  0.14553  1.0000
  Fe  Fe230     1.0  0.19532  0.87796  0.99204  1.0000
  C   C1373     1.0  0.11273  0.84018  0.02557  1.0000
  H   H1361     1.0  0.26309  0.74242  0.12294  1.0000
  H   H1362     1.0  0.08295  0.79668  0.16097  1.0000
  C   C1374     1.0  0.19645  0.70509  0.16488  1.0000
  C   C1375     1.0  0.29987  0.81848  0.06562  1.0000
  H   H1363     1.0  0.27803  0.83036  0.06800  1.0000
  S   S459      1.0  0.12731  0.72237  0.17484  1.0000
  C   C1376     1.0  0.23484  0.81993  0.17373  1.0000
  Fe  Fe231     1.0  0.18252  0.85697  0.01767  1.0000
  H   H1364     1.0  0.23669  0.74347  0.17485  1.0000
  Fe  Fe232     1.0  0.19244  0.88214  0.02277  1.0000
  H   H1365     1.0  0.06808  0.78340  0.05797  1.0000
  N   N115      1.0  0.28871  0.83369  0.08290  1.0000
  C   C1377     1.0  0.31348  0.82139  0.08153  1.0000
  S   S460      1.0  0.08205  0.77206  0.15012  1.0000
  S   S461      1.0  0.12823  0.77027  0.00563  1.0000
  H   H1366     1.0  0.16806  0.85859  0.99632  1.0000
  C   C1378     1.0  0.20517  0.78982  0.05743  1.0000
  S   S462      1.0  0.11052  0.84606  0.15682  1.0000
  S   S463      1.0  0.20068  0.91448  0.18055  1.0000
  H   H1367     1.0  0.05755  0.79207  0.03598  1.0000
  H   H1368     1.0  0.18483  0.78889  0.04154  1.0000
  C   C1379     1.0  0.08877  0.80365  0.15162  1.0000
  C   C1380     1.0  0.23999  0.84033  0.03067  1.0000
  C   C1381     1.0  0.19960  0.81279  0.04198  1.0000
  H   H1369     1.0  0.28692  0.67591  0.10320  1.0000
  C   C1382     1.0  0.20401  0.68729  0.07393  1.0000
  S   S464      1.0  0.25464  0.97955  0.06403  1.0000
  C   C1383     1.0  0.18515  0.73089  0.14784  1.0000
  C   C1384     1.0  0.16833  0.71956  0.14230  1.0000
  H   H1370     1.0  0.26980  0.91330  0.12501  1.0000
  H   H1371     1.0  0.22242  0.85694  0.03793  1.0000
  H   H1372     1.0  0.15972  0.64582  0.17122  1.0000
  C   C1385     1.0  0.17753  0.93844  0.05042  1.0000
  H   H1373     1.0  0.18118  0.93176  0.03012  1.0000
  H   H1374     1.0  0.17582  0.69090  0.11364  1.0000
  H   H1375     1.0  0.10796  0.76499  0.03249  1.0000
  S   S465      1.0  0.25444  0.63296  0.15729  1.0000
  C   C1386     1.0  0.18475  0.93751  0.03619  1.0000
  Fe  Fe233     1.0  0.21424  0.85726  0.01209  1.0000
  N   N116      1.0  0.18242  0.94502  0.05837  1.0000
  H   H1376     1.0  0.16901  0.68066  0.10501  1.0000
  H   H1377     1.0  0.17488  0.80644  0.04468  1.0000
  C   C1387     1.0  0.07070  0.78852  0.00896  1.0000
  H   H1378     1.0  0.19245  0.82075  0.03557  1.0000
  C   C1388     1.0  0.19702  0.94333  0.03013  1.0000
  N   N117      1.0  0.19159  0.68002  0.09851  1.0000
  C   C1389     1.0  0.21707  0.67967  0.07771  1.0000
  H   H1379     1.0  0.22704  0.67984  0.06967  1.0000
  H   H1380     1.0  0.14484  0.78659  0.15173  1.0000
  H   H1381     1.0  0.03003  0.77239  0.14162  1.0000
  C   C1390     1.0  0.03816  0.84901  0.16502  1.0000
  H   H1382     1.0  0.17899  0.67149  0.11893  1.0000
  S   S466      1.0  0.19331  0.67626  0.14043  1.0000
  C   C1391     1.0  0.29770  0.66840  0.12132  1.0000
  C   C1392     1.0  0.20185  0.95013  0.03827  1.0000
  H   H1383     1.0  0.21162  0.95434  0.03382  1.0000
  H   H1384     1.0  0.29727  0.63668  0.14512  1.0000
  C   C1393     1.0  0.30161  0.85783  0.18163  1.0000
  C   C1394     1.0  0.35769  0.82231  0.15028  1.0000
  C   C1395     1.0  0.20440  0.67277  0.10238  1.0000
  C   C1396     1.0  0.21732  0.67241  0.09203  1.0000
  H   H1385     1.0  0.28465  0.90991  0.13385  1.0000
  C   C1397     1.0  0.18513  0.66644  0.15694  1.0000
  C   C1398     1.0  0.29516  0.64528  0.13587  1.0000
  H   H1386     1.0  0.38142  0.79634  0.16786  1.0000
  C   C1399     1.0  0.17432  0.65933  0.15749  1.0000
  H   H1387     1.0  0.16964  0.95737  0.07386  1.0000
  H   H1388     1.0  0.14644  0.87343  0.14821  1.0000
  H   H1389     1.0  0.10363  0.81328  0.16502  1.0000
  C   C1400     1.0  0.10501  0.84083  0.01516  1.0000
  H   H1390     1.0  0.17420  0.75854  0.16246  1.0000
  H   H1391     1.0  0.32054  0.75706  0.16529  1.0000
  C   C1401     1.0  0.14784  0.82806  0.00093  1.0000
  Fe  Fe234     1.0  0.09618  0.83885  0.17800  1.0000
  H   H1392     1.0  0.26506  0.70376  0.17254  1.0000
  H   H1393     1.0  0.39515  0.70171  0.15686  1.0000
  H   H1394     1.0  0.22862  0.78700  0.16117  1.0000
  C   C1402     1.0  0.27522  0.88703  0.15467  1.0000
  H   H1395     1.0  0.14204  0.81968  0.00231  1.0000
  H   H1396     1.0  0.10775  0.78411  0.13803  1.0000
  C   C1403     1.0  0.38569  0.67627  0.17722  1.0000
  H   H1397     1.0  0.18093  0.69659  0.15957  1.0000
  H   H1398     1.0  0.13380  0.77597  0.13806  1.0000
  N   N118      1.0  0.10690  0.85028  0.00204  1.0000
  H   H1399     1.0  0.26465  0.65538  0.16334  1.0000
  C   C1404     1.0  0.28882  0.61839  0.17639  1.0000
  C   C1405     1.0  0.36904  0.56236  0.17794  1.0000
  H   H1400     1.0  0.29463  0.83926  0.18018  1.0000
  H   H1401     1.0  0.99595  0.82207  0.07543  1.0000
  H   H1402     1.0  0.24659  0.88033  0.18184  1.0000
  C   C1406     1.0  0.27268  0.73631  0.16116  1.0000
  C   C1407     1.0  0.37217  0.80506  0.16622  1.0000
  C   C1408     1.0  0.15604  0.97420  0.11607  1.0000
  H   H1403     1.0  0.28043  0.73737  0.15093  1.0000
  H   H1404     1.0  0.35873  0.70619  0.17659  1.0000
  H   H1405     1.0  0.33339  0.53503  0.17271  1.0000
  C   C1409     1.0  0.27704  0.61898  0.17051  1.0000
  S   S467      1.0  0.11001  0.75627  0.17439  1.0000
  C   C1410     1.0  0.14877  0.83870  0.98816  1.0000
  C   C1411     1.0  0.34792  0.82659  0.16242  1.0000
  H   H1406     1.0  0.27065  0.78234  0.17713  1.0000
  H   H1407     1.0  0.20849  0.96715  0.17808  1.0000
  C   C1412     1.0  0.16522  0.97535  0.10241  1.0000
  H   H1408     1.0  0.09159  0.84311  0.99483  1.0000
  H   H1409     1.0  0.40257  0.73468  0.15945  1.0000
  H   H1410     1.0  0.01547  0.87991  0.17300  1.0000
  H   H1411     1.0  0.04743  0.83729  0.99125  1.0000
  H   H1412     1.0  0.21068  0.71661  0.16828  1.0000
  H   H1413     1.0  0.12573  0.83822  0.18037  1.0000
  H   H1414     1.0  0.16883  0.89232  0.16833  1.0000
  Fe  Fe235     1.0  0.17800  0.92711  0.18037  1.0000
  H   H1415     1.0  0.28576  0.65441  0.17307  1.0000
  C   C1413     1.0  0.22286  0.82747  0.18199  1.0000
  C   C1414     1.0  0.24813  0.73959  0.17454  1.0000
  H   H1416     1.0  0.36158  0.54362  0.17821  1.0000
  C   C1415     1.0  0.15875  0.88340  0.15661  1.0000
  Fe  Fe236     1.0  0.20794  0.77101  0.20419  1.0000
  S   S468      1.0  0.20009  0.78826  0.21725  1.0000
  H   H1417     1.0  0.15700  0.88027  0.19240  1.0000
  Fe  Fe237     1.0  0.18048  0.76012  0.21499  1.0000
  S   S469      1.0  0.17014  0.77636  0.22907  1.0000
  S   S470      1.0  0.16877  0.74336  0.21530  1.0000
  Fe  Fe238     1.0  0.17945  0.79201  0.20989  1.0000
  H   H1418     1.0  0.17568  0.93060  0.22508  1.0000
  Fe  Fe239     1.0  0.19176  0.77097  0.23505  1.0000
  S   S471      1.0  0.19388  0.76962  0.25773  1.0000
  H   H1419     1.0  0.47752  0.72216  0.32282  1.0000
  S   S472      1.0  0.20124  0.75336  0.22259  1.0000
  H   H1420     1.0  0.37130  0.72168  0.35998  1.0000
  C   C1416     1.0  0.20264  0.96156  0.18810  1.0000
  H   H1421     1.0  0.22348  0.49182  0.26647  1.0000
  Fe  Fe240     1.0  0.24510  0.66512  0.27358  1.0000
  S   S473      1.0  0.26367  0.66748  0.25472  1.0000
  Fe  Fe241     1.0  0.24025  0.69575  0.27748  1.0000
  S   S474      1.0  0.25858  0.70076  0.25938  1.0000
  S   S475      1.0  0.22800  0.71184  0.29119  1.0000
  Fe  Fe242     1.0  0.24997  0.68922  0.24766  1.0000
  S   S476      1.0  0.24933  0.69969  0.22444  1.0000
  Fe  Fe243     1.0  0.27056  0.67861  0.26812  1.0000
  S   S477      1.0  0.29312  0.67384  0.27145  1.0000
  S   S478      1.0  0.23046  0.68579  0.26528  1.0000
  S   S479      1.0  0.25305  0.67482  0.28750  1.0000
  Fe  Fe244     1.0  0.23197  0.55115  0.27768  1.0000
  S   S480      1.0  0.22330  0.54498  0.30157  1.0000
  S   S481      1.0  0.21932  0.56252  0.26034  1.0000
  Fe  Fe245     1.0  0.26235  0.53595  0.28058  1.0000
  S   S482      1.0  0.25639  0.52853  0.30472  1.0000
  S   S483      1.0  0.28399  0.52986  0.26651  1.0000
  Fe  Fe246     1.0  0.23749  0.52309  0.29987  1.0000
  H   H1422     1.0  0.30391  0.75980  0.20209  1.0000
  Fe  Fe247     1.0  0.24296  0.55110  0.30410  1.0000
  S   S484      1.0  0.23976  0.56543  0.32013  1.0000
  S   S485      1.0  0.24462  0.52894  0.27581  1.0000
  S   S486      1.0  0.25040  0.55897  0.28017  1.0000
  Fe  Fe248     1.0  0.18412  0.64337  0.24334  1.0000
  S   S487      1.0  0.19359  0.64386  0.21965  1.0000
  S   S488      1.0  0.19305  0.62836  0.26225  1.0000
  Fe  Fe249     1.0  0.16089  0.67025  0.23775  1.0000
  S   S489      1.0  0.16788  0.67301  0.21379  1.0000
  S   S490      1.0  0.14318  0.68610  0.24865  1.0000
  Fe  Fe250     1.0  0.17051  0.64910  0.21746  1.0000
  S   S491      1.0  0.16341  0.64247  0.20056  1.0000
  Fe  Fe251     1.0  0.19023  0.66774  0.21759  1.0000
  S   S492      1.0  0.20396  0.68196  0.20135  1.0000
  S   S493      1.0  0.16113  0.64662  0.24140  1.0000
  S   S494      1.0  0.18313  0.66694  0.24143  1.0000
  H   H1423     1.0  0.12325  0.79850  0.21163  1.0000
  C   C1417     1.0  0.12933  0.80656  0.20516  1.0000
  H   H1424     1.0  0.45331  0.64089  0.26896  1.0000
  S   S495      1.0  0.10545  0.81923  0.19355  1.0000
  S   S496      1.0  0.10057  0.73066  0.21128  1.0000
  H   H1425     1.0  0.11282  0.88987  0.20226  1.0000
  H   H1426     1.0  0.30318  0.59288  0.30170  1.0000
  Fe  Fe252     1.0  0.24946  0.81457  0.22500  1.0000
  S   S497      1.0  0.22600  0.81748  0.23552  1.0000
  S   S498      1.0  0.26294  0.79311  0.22111  1.0000
  Fe  Fe253     1.0  0.25075  0.84496  0.22479  1.0000
  S   S499      1.0  0.22749  0.85065  0.23548  1.0000
  S   S500      1.0  0.26479  0.86075  0.22097  1.0000
  Fe  Fe254     1.0  0.23170  0.82873  0.24971  1.0000
  S   S501      1.0  0.22258  0.82487  0.27358  1.0000
  Fe  Fe255     1.0  0.22386  0.83912  0.22022  1.0000
  S   S502      1.0  0.20474  0.84810  0.20961  1.0000
  S   S503      1.0  0.25535  0.82406  0.24050  1.0000
  S   S504      1.0  0.24686  0.83519  0.20815  1.0000
  Fe  Fe256     1.0  0.29505  0.74436  0.26894  1.0000
  S   S505      1.0  0.28230  0.73298  0.28921  1.0000
  S   S506      1.0  0.29773  0.73802  0.24799  1.0000
  Fe  Fe257     1.0  0.29996  0.76530  0.28362  1.0000
  S   S507      1.0  0.28785  0.75580  0.30549  1.0000
  S   S508      1.0  0.30758  0.78597  0.27906  1.0000
  Fe  Fe258     1.0  0.29943  0.73442  0.29966  1.0000
  S   S509      1.0  0.30794  0.71419  0.31479  1.0000
  Fe  Fe259     1.0  0.27188  0.75512  0.29316  1.0000
  S   S510      1.0  0.24822  0.76092  0.30235  1.0000
  S   S511      1.0  0.31319  0.74392  0.27895  1.0000
  S   S512      1.0  0.28300  0.76638  0.27178  1.0000
  H   H1427     1.0  0.23803  0.58601  0.33679  1.0000
  H   H1428     1.0  0.22412  0.83562  0.18695  1.0000
  C   C1418     1.0  0.32304  0.66463  0.36720  1.0000
  H   H1429     1.0  0.34262  0.69778  0.21323  1.0000
  C   C1419     1.0  0.25375  0.67068  0.19242  1.0000
  C   C1420     1.0  0.20268  0.94694  0.19006  1.0000
  Fe  Fe260     1.0  0.36296  0.77505  0.21318  1.0000
  S   S513      1.0  0.38498  0.77353  0.19877  1.0000
  S   S514      1.0  0.35019  0.79634  0.21828  1.0000
  Fe  Fe261     1.0  0.36281  0.74383  0.21580  1.0000
  Fe  Fe262     1.0  0.39060  0.75233  0.21405  1.0000
  S   S515      1.0  0.41191  0.74287  0.22086  1.0000
  C   C1421     1.0  0.20231  0.71432  0.23477  1.0000
  S   S516      1.0  0.36926  0.75496  0.22960  1.0000
  S   S517      1.0  0.35435  0.76416  0.20085  1.0000
  Fe  Fe263     1.0  0.43524  0.71810  0.32463  1.0000
  S   S518      1.0  0.44139  0.73768  0.30857  1.0000
  S   S519      1.0  0.42504  0.72082  0.34745  1.0000
  Fe  Fe264     1.0  0.44351  0.69993  0.30192  1.0000
  S   S520      1.0  0.45030  0.71793  0.28401  1.0000
  S   S521      1.0  0.44590  0.67884  0.29556  1.0000
  Fe  Fe265     1.0  0.46088  0.72200  0.29991  1.0000
  C   C1422     1.0  0.48156  0.67568  0.30229  1.0000
  Fe  Fe266     1.0  0.43029  0.73189  0.29423  1.0000
  S   S522      1.0  0.41326  0.74827  0.28355  1.0000
  S   S523      1.0  0.45568  0.70277  0.31716  1.0000
  S   S524      1.0  0.42261  0.71352  0.31100  1.0000
  Fe  Fe267     1.0  0.40089  0.67075  0.25063  1.0000
  S   S525      1.0  0.41826  0.67814  0.23238  1.0000
  S   S526      1.0  0.39254  0.68040  0.27034  1.0000
  Fe  Fe268     1.0  0.39557  0.64982  0.23542  1.0000
  S   S527      1.0  0.41296  0.65496  0.21581  1.0000
  S   S528      1.0  0.37702  0.63857  0.23990  1.0000
  Fe  Fe269     1.0  0.42598  0.65457  0.23195  1.0000
  Fe  Fe270     1.0  0.40415  0.67798  0.21795  1.0000
  S   S529      1.0  0.40942  0.64711  0.25144  1.0000
  S   S530      1.0  0.38597  0.67305  0.23620  1.0000
  Fe  Fe271     1.0  0.31923  0.58943  0.22390  1.0000
  S   S531      1.0  0.33990  0.57462  0.21604  1.0000
  S   S532      1.0  0.30729  0.58716  0.24695  1.0000
  C   C1423     1.0  0.36037  0.64932  0.19287  1.0000
  C   C1424     1.0  0.11597  0.89390  0.19071  1.0000
  H   H1430     1.0  0.27773  0.57574  0.37212  1.0000
  Fe  Fe272     1.0  0.32977  0.57655  0.19727  1.0000
  H   H1431     1.0  0.20370  0.54156  0.28277  1.0000
  Fe  Fe273     1.0  0.34700  0.59534  0.20374  1.0000
  S   S533      1.0  0.36921  0.59970  0.20081  1.0000
  S   S534      1.0  0.30844  0.58990  0.20616  1.0000
  S   S535      1.0  0.32711  0.60982  0.21322  1.0000
  C   C1425     1.0  0.27746  0.67013  0.31950  1.0000
  H   H1432     1.0  0.19995  0.53232  0.26317  1.0000
  H   H1433     1.0  0.29729  0.81762  0.21224  1.0000
  C   C1426     1.0  0.37522  0.62786  0.22876  1.0000
  C   C1427     1.0  0.36245  0.62280  0.23189  1.0000
  C   C1428     1.0  0.36050  0.61423  0.22336  1.0000
  C   C1429     1.0  0.37134  0.61061  0.21161  1.0000
  C   C1430     1.0  0.38413  0.61572  0.20842  1.0000
  C   C1431     1.0  0.38605  0.62440  0.21692  1.0000
  H   H1434     1.0  0.35404  0.62538  0.24105  1.0000
  H   H1435     1.0  0.35071  0.61020  0.22607  1.0000
  Fe  Fe274     1.0  0.15631  0.95063  0.19431  1.0000
  H   H1436     1.0  0.39595  0.62821  0.21443  1.0000
  S   S536      1.0  0.16883  0.81462  0.20048  1.0000
  C   C1432     1.0  0.37637  0.70210  0.18720  1.0000
  C   C1433     1.0  0.30411  0.79563  0.22326  1.0000
  H   H1437     1.0  0.27521  0.84017  0.20212  1.0000
  H   H1438     1.0  0.25771  0.66434  0.33245  1.0000
  C   C1434     1.0  0.25909  0.73670  0.26501  1.0000
  H   H1439     1.0  0.20499  0.71141  0.25663  1.0000
  S   S537      1.0  0.48772  0.68128  0.24296  1.0000
  C   C1435     1.0  0.22743  0.49102  0.30033  1.0000
  C   C1436     1.0  0.47026  0.64433  0.27705  1.0000
  C   C1437     1.0  0.43079  0.67855  0.28934  1.0000
  C   C1438     1.0  0.41692  0.68513  0.29560  1.0000
  C   C1439     1.0  0.40503  0.68522  0.29015  1.0000
  C   C1440     1.0  0.40704  0.67888  0.27831  1.0000
  C   C1441     1.0  0.42082  0.67195  0.27233  1.0000
  C   C1442     1.0  0.43267  0.67178  0.27783  1.0000
  H   H1440     1.0  0.41532  0.68996  0.30479  1.0000
  H   H1441     1.0  0.39435  0.69044  0.29493  1.0000
  H   H1442     1.0  0.42236  0.66679  0.26340  1.0000
  H   H1443     1.0  0.44333  0.66675  0.27291  1.0000
  C   C1443     1.0  0.41270  0.74559  0.23772  1.0000
  C   C1444     1.0  0.42492  0.73868  0.24362  1.0000
  C   C1445     1.0  0.42534  0.73980  0.25752  1.0000
  C   C1446     1.0  0.41360  0.74790  0.26556  1.0000
  C   C1447     1.0  0.40160  0.75525  0.25945  1.0000
  C   C1448     1.0  0.40112  0.75405  0.24558  1.0000
  H   H1444     1.0  0.43398  0.73222  0.23762  1.0000
  H   H1445     1.0  0.43471  0.73428  0.26205  1.0000
  H   H1446     1.0  0.39254  0.76166  0.26556  1.0000
  H   H1447     1.0  0.39178  0.75967  0.24101  1.0000
  C   C1449     1.0  0.48561  0.69056  0.27758  1.0000
  C   C1450     1.0  0.40862  0.68458  0.36330  1.0000
  C   C1451     1.0  0.41689  0.69462  0.35455  1.0000
  C   C1452     1.0  0.41477  0.70808  0.35802  1.0000
  C   C1453     1.0  0.48887  0.72206  0.31862  1.0000
  C   C1454     1.0  0.27259  0.72178  0.20068  1.0000
  H   H1448     1.0  0.41046  0.67405  0.36078  1.0000
  H   H1449     1.0  0.42509  0.69183  0.34533  1.0000
  C   C1455     1.0  0.26248  0.67261  0.32426  1.0000
  H   H1450     1.0  0.18126  0.51238  0.26330  1.0000
  C   C1456     1.0  0.31914  0.78884  0.26198  1.0000
  C   C1457     1.0  0.32307  0.80225  0.25622  1.0000
  C   C1458     1.0  0.33240  0.80463  0.24263  1.0000
  C   C1459     1.0  0.33807  0.79350  0.23495  1.0000
  C   C1460     1.0  0.33400  0.78017  0.24060  1.0000
  C   C1461     1.0  0.32439  0.77792  0.25401  1.0000
  H   H1451     1.0  0.31907  0.81073  0.26234  1.0000
  H   H1452     1.0  0.33555  0.81495  0.23828  1.0000
  H   H1453     1.0  0.33819  0.77159  0.23461  1.0000
  H   H1454     1.0  0.32127  0.76764  0.25824  1.0000
  C   C1462     1.0  0.31701  0.71759  0.32638  1.0000
  C   C1463     1.0  0.31803  0.73168  0.32579  1.0000
  C   C1464     1.0  0.32396  0.73448  0.33610  1.0000
  C   C1465     1.0  0.32877  0.72321  0.34707  1.0000
  C   C1466     1.0  0.32801  0.70907  0.34748  1.0000
  C   C1467     1.0  0.32226  0.70624  0.33706  1.0000
  H   H1455     1.0  0.31409  0.74048  0.31752  1.0000
  H   H1456     1.0  0.32457  0.74543  0.33573  1.0000
  H   H1457     1.0  0.01119  0.84170  0.19284  1.0000
  H   H1458     1.0  0.35846  0.52450  0.19804  1.0000
  H   H1459     1.0  0.23443  0.67265  0.18525  1.0000
  C   C1468     1.0  0.28826  0.86908  0.20186  1.0000
  H   H1460     1.0  0.28637  0.87752  0.20779  1.0000
  C   C1469     1.0  0.22917  0.80688  0.28139  1.0000
  C   C1470     1.0  0.23972  0.79803  0.27303  1.0000
  C   C1471     1.0  0.24557  0.78390  0.27945  1.0000
  C   C1472     1.0  0.24070  0.77848  0.29419  1.0000
  C   C1473     1.0  0.22980  0.78717  0.30246  1.0000
  C   C1474     1.0  0.22414  0.80144  0.29609  1.0000
  H   H1461     1.0  0.24348  0.80204  0.26162  1.0000
  H   H1462     1.0  0.25364  0.77711  0.27290  1.0000
  H   H1463     1.0  0.22595  0.78297  0.31386  1.0000
  H   H1464     1.0  0.21593  0.80825  0.30259  1.0000
  C   C1475     1.0  0.48406  0.67120  0.31642  1.0000
  C   C1476     1.0  0.45097  0.67500  0.19875  1.0000
  H   H1465     1.0  0.19478  0.92866  0.20427  1.0000
  C   C1477     1.0  0.20352  0.86660  0.20172  1.0000
  C   C1478     1.0  0.21501  0.87318  0.20011  1.0000
  C   C1479     1.0  0.23839  0.75490  0.27215  1.0000
  S   S538      1.0  0.33561  0.72708  0.36017  1.0000
  C   C1480     1.0  0.14476  0.82779  0.18916  1.0000
  H   H1466     1.0  0.22469  0.86693  0.20379  1.0000
  C   C1481     1.0  0.33945  0.72758  0.21394  1.0000
  S   S539      1.0  0.23720  0.64613  0.34831  1.0000
  C   C1482     1.0  0.27934  0.85905  0.20626  1.0000
  H   H1467     1.0  0.22742  0.63673  0.20310  1.0000
  H   H1468     1.0  0.25819  0.75642  0.19817  1.0000
  H   H1469     1.0  0.37924  0.56808  0.20623  1.0000
  H   H1470     1.0  0.46272  0.70634  0.21962  1.0000
  C   C1483     1.0  0.29481  0.80224  0.20135  1.0000
  C   C1484     1.0  0.38888  0.69246  0.19053  1.0000
  S   S540      1.0  0.23038  0.50190  0.31069  1.0000
  S   S541      1.0  0.15280  0.96672  0.20862  1.0000
  C   C1485     1.0  0.13205  0.69913  0.23792  1.0000
  C   C1486     1.0  0.13641  0.70297  0.22283  1.0000
  C   C1487     1.0  0.12702  0.71304  0.21456  1.0000
  C   C1488     1.0  0.11315  0.71909  0.22132  1.0000
  C   C1489     1.0  0.10896  0.71554  0.23644  1.0000
  C   C1490     1.0  0.11842  0.70568  0.24472  1.0000
  H   H1471     1.0  0.14697  0.69823  0.21746  1.0000
  H   H1472     1.0  0.13052  0.71593  0.20299  1.0000
  H   H1473     1.0  0.09826  0.72019  0.24176  1.0000
  H   H1474     1.0  0.11501  0.70282  0.25639  1.0000
  H   H1475     1.0  0.24281  0.58780  0.29265  1.0000
  C   C1491     1.0  0.22775  0.49585  0.28545  1.0000
  C   C1492     1.0  0.13521  0.76630  0.21613  1.0000
  H   H1476     1.0  0.23051  0.50612  0.27990  1.0000
  C   C1493     1.0  0.29199  0.54479  0.26180  1.0000
  C   C1494     1.0  0.28771  0.55480  0.27078  1.0000
  C   C1495     1.0  0.29262  0.56773  0.26626  1.0000
  C   C1496     1.0  0.30184  0.57064  0.25276  1.0000
  Fe  Fe275     1.0  0.31825  0.60916  0.19458  1.0000
  C   C1497     1.0  0.18600  0.70467  0.25610  1.0000
  H   H1477     1.0  0.28058  0.55258  0.28122  1.0000
  H   H1478     1.0  0.28906  0.57553  0.27315  1.0000
  C   C1498     1.0  0.46260  0.67399  0.24384  1.0000
  C   C1499     1.0  0.18989  0.88963  0.19078  1.0000
  C   C1500     1.0  0.21153  0.58071  0.26099  1.0000
  C   C1501     1.0  0.20681  0.59025  0.24887  1.0000
  C   C1502     1.0  0.20089  0.60490  0.24918  1.0000
  C   C1503     1.0  0.19946  0.60995  0.26170  1.0000
  C   C1504     1.0  0.20376  0.60028  0.27396  1.0000
  C   C1505     1.0  0.21000  0.58575  0.27354  1.0000
  H   H1479     1.0  0.20789  0.58636  0.23917  1.0000
  H   H1480     1.0  0.19748  0.61226  0.23972  1.0000
  H   H1481     1.0  0.20230  0.60403  0.28381  1.0000
  H   H1482     1.0  0.21346  0.57841  0.28299  1.0000
  C   C1506     1.0  0.29818  0.69023  0.26297  1.0000
  C   C1507     1.0  0.30433  0.69684  0.27016  1.0000
  C   C1508     1.0  0.30488  0.71146  0.26508  1.0000
  C   C1509     1.0  0.29939  0.71934  0.25280  1.0000
  C   C1510     1.0  0.29416  0.71245  0.24509  1.0000
  C   C1511     1.0  0.29366  0.69784  0.25013  1.0000
  H   H1483     1.0  0.30786  0.69096  0.28009  1.0000
  H   H1484     1.0  0.30913  0.71676  0.27095  1.0000
  H   H1485     1.0  0.28969  0.71856  0.23575  1.0000
  H   H1486     1.0  0.28897  0.69268  0.24452  1.0000
  C   C1512     1.0  0.23649  0.69462  0.21850  1.0000
  C   C1513     1.0  0.22932  0.68373  0.22712  1.0000
  C   C1514     1.0  0.21906  0.67986  0.22206  1.0000
  C   C1515     1.0  0.21607  0.68689  0.20840  1.0000
  C   C1516     1.0  0.22323  0.69777  0.19986  1.0000
  C   C1517     1.0  0.23344  0.70161  0.20489  1.0000
  H   H1487     1.0  0.23182  0.67813  0.23756  1.0000
  H   H1488     1.0  0.21368  0.67129  0.22860  1.0000
  H   H1489     1.0  0.27304  0.66545  0.20091  1.0000
  H   H1490     1.0  0.23910  0.70984  0.19808  1.0000
  H   H1491     1.0  0.12323  0.98024  0.19297  1.0000
  H   H1492     1.0  0.29149  0.55988  0.35488  1.0000
  H   H1493     1.0  0.25653  0.54399  0.34212  1.0000
  C   C1518     1.0  0.15850  0.98334  0.20120  1.0000
  C   C1519     1.0  0.12292  0.81836  0.19560  1.0000
  H   H1494     1.0  0.38425  0.70787  0.35147  1.0000
  C   C1520     1.0  0.31689  0.72533  0.21005  1.0000
  H   H1495     1.0  0.36354  0.67947  0.22052  1.0000
  H   H1496     1.0  0.37197  0.64473  0.19287  1.0000
  C   C1521     1.0  0.46480  0.63848  0.26859  1.0000
  C   C1522     1.0  0.24045  0.77479  0.19729  1.0000
  H   H1497     1.0  0.28817  0.52142  0.21950  1.0000
  C   C1523     1.0  0.26104  0.77292  0.20740  1.0000
  C   C1524     1.0  0.25502  0.78651  0.21089  1.0000
  C   C1525     1.0  0.24207  0.79443  0.20706  1.0000
  C   C1526     1.0  0.23477  0.78852  0.20036  1.0000
  H   H1498     1.0  0.27958  0.69890  0.33681  1.0000
  C   C1527     1.0  0.27224  0.56961  0.36837  1.0000
  H   H1499     1.0  0.23751  0.80503  0.20948  1.0000
  H   H1500     1.0  0.22469  0.79461  0.19763  1.0000
  C   C1528     1.0  0.20334  0.75325  0.26660  1.0000
  C   C1529     1.0  0.20220  0.75097  0.28158  1.0000
  C   C1530     1.0  0.20970  0.73817  0.28903  1.0000
  C   C1531     1.0  0.21847  0.72758  0.28155  1.0000
  C   C1532     1.0  0.21980  0.72987  0.26652  1.0000
  C   C1533     1.0  0.21224  0.74272  0.25904  1.0000
  H   H1501     1.0  0.19542  0.75909  0.28748  1.0000
  H   H1502     1.0  0.20871  0.73650  0.30063  1.0000
  H   H1503     1.0  0.22677  0.72182  0.26064  1.0000
  H   H1504     1.0  0.21351  0.74453  0.24745  1.0000
  C   C1534     1.0  0.15121  0.81590  0.19860  1.0000
  H   H1505     1.0  0.19461  0.98044  0.19758  1.0000
  S   S542      1.0  0.26879  0.63774  0.36907  1.0000
  C   C1535     1.0  0.26435  0.66139  0.19953  1.0000
  Fe  Fe276     1.0  0.37681  0.76105  0.18760  1.0000
  C   C1536     1.0  0.14347  0.80525  0.20656  1.0000
  C   C1537     1.0  0.19492  0.96900  0.19906  1.0000
  C   C1538     1.0  0.29154  0.72093  0.35934  1.0000
  S   S543      1.0  0.26093  0.60864  0.36463  1.0000
  H   H1506     1.0  0.14826  0.79618  0.21404  1.0000
  H   H1507     1.0  0.32380  0.66590  0.34458  1.0000
  H   H1508     1.0  0.32151  0.69531  0.33754  1.0000
  C   C1539     1.0  0.24922  0.58292  0.33166  1.0000
  H   H1509     1.0  0.22385  0.62589  0.26489  1.0000
  H   H1510     1.0  0.09619  0.70175  0.20667  1.0000
  H   H1511     1.0  0.13733  0.78136  0.18994  1.0000
  N   N119      1.0  0.39202  0.71668  0.24889  1.0000
  C   C1540     1.0  0.40526  0.71164  0.25245  1.0000
  C   C1541     1.0  0.38083  0.72382  0.25780  1.0000
  C   C1542     1.0  0.40761  0.71386  0.26513  1.0000
  C   C1543     1.0  0.38283  0.72630  0.27053  1.0000
  C   C1544     1.0  0.39632  0.72125  0.27421  1.0000
  C   C1545     1.0  0.38977  0.71377  0.23576  1.0000
  H   H1512     1.0  0.41408  0.70584  0.24550  1.0000
  H   H1513     1.0  0.37029  0.72771  0.25505  1.0000
  H   H1514     1.0  0.41813  0.70989  0.26792  1.0000
  H   H1515     1.0  0.37402  0.73219  0.27744  1.0000
  H   H1516     1.0  0.39814  0.72321  0.28395  1.0000
  H   H1517     1.0  0.39863  0.71635  0.22640  1.0000
  H   H1518     1.0  0.38939  0.70224  0.23754  1.0000
  H   H1519     1.0  0.37954  0.72042  0.23275  1.0000
  S   S544      1.0  0.16234  0.92645  0.20168  1.0000
  H   H1520     1.0  0.14181  0.75550  0.23637  1.0000
  C   C1546     1.0  0.22368  0.48774  0.27786  1.0000
  N   N120      1.0  0.35648  0.66808  0.26460  1.0000
  C   C1547     1.0  0.34798  0.66342  0.25848  1.0000
  C   C1548     1.0  0.35559  0.68256  0.26306  1.0000
  C   C1549     1.0  0.33791  0.67334  0.25102  1.0000
  C   C1550     1.0  0.34580  0.69279  0.25545  1.0000
  C   C1551     1.0  0.33686  0.68811  0.24950  1.0000
  C   C1552     1.0  0.36678  0.65736  0.27251  1.0000
  H   H1521     1.0  0.34898  0.65193  0.25939  1.0000
  H   H1522     1.0  0.36249  0.68629  0.26770  1.0000
  H   H1523     1.0  0.33088  0.66961  0.24656  1.0000
  H   H1524     1.0  0.34506  0.70429  0.25421  1.0000
  H   H1525     1.0  0.32902  0.69593  0.24385  1.0000
  H   H1526     1.0  0.36139  0.64901  0.28047  1.0000
  H   H1527     1.0  0.37567  0.65197  0.26479  1.0000
  H   H1528     1.0  0.37155  0.66234  0.27862  1.0000
  H   H1529     1.0  0.18212  0.75449  0.18557  1.0000
  C   C1553     1.0  0.23557  0.59830  0.29120  1.0000
  H   H1530     1.0  0.12877  0.85985  0.19788  1.0000
  C   C1554     1.0  0.25374  0.76704  0.20055  1.0000
  N   N121      1.0  0.48884  0.62717  0.25839  1.0000
  H   H1531     1.0  0.29368  0.67982  0.36968  1.0000
  H   H1532     1.0  0.20725  0.64550  0.29317  1.0000
  C   C1555     1.0  0.40408  0.71165  0.36995  1.0000
  C   C1556     1.0  0.25961  0.58864  0.33454  1.0000
  H   H1533     1.0  0.47390  0.67132  0.29946  1.0000
  C   C1557     1.0  0.13065  0.82902  0.18765  1.0000
  C   C1558     1.0  0.11397  0.76154  0.21285  1.0000
  C   C1559     1.0  0.25998  0.69549  0.30805  1.0000
  C   C1560     1.0  0.10904  0.68659  0.22116  1.0000
  H   H1534     1.0  0.11802  0.78673  0.19254  1.0000
  H   H1535     1.0  0.18205  0.86979  0.19837  1.0000
  H   H1536     1.0  0.13627  0.86960  0.20607  1.0000
  S   S545      1.0  0.18805  0.77619  0.19526  1.0000
  H   H1537     1.0  0.22151  0.66441  0.32699  1.0000
  Fe  Fe277     1.0  0.28095  0.60698  0.34718  1.0000
  H   H1538     1.0  0.24668  0.73580  0.28692  1.0000
  C   C1561     1.0  0.33869  0.68523  0.20015  1.0000
  C   C1562     1.0  0.34593  0.68774  0.20944  1.0000
  H   H1539     1.0  0.29495  0.64073  0.37520  1.0000
  C   C1563     1.0  0.31897  0.66162  0.35568  1.0000
  H   H1540     1.0  0.18086  0.96766  0.22007  1.0000
  S   S546      1.0  0.23018  0.76694  0.19066  1.0000
  C   C1564     1.0  0.28695  0.69173  0.34387  1.0000
  C   C1565     1.0  0.19477  0.94001  0.20289  1.0000
  S   S547      1.0  0.45001  0.64537  0.22888  1.0000
  H   H1541     1.0  0.16839  0.69581  0.22769  1.0000
  C   C1566     1.0  0.24455  0.63087  0.31175  1.0000
  S   S548      1.0  0.27685  0.63044  0.33648  1.0000
  C   C1567     1.0  0.17763  0.70327  0.24715  1.0000
  H   H1542     1.0  0.24958  0.53605  0.36078  1.0000
  N   N122      1.0  0.25397  0.68524  0.31864  1.0000
  H   H1543     1.0  0.12100  0.74325  0.24585  1.0000
  C   C1568     1.0  0.39552  0.70180  0.37841  1.0000
  C   C1569     1.0  0.12213  0.75045  0.23525  1.0000
  C   C1570     1.0  0.32609  0.72371  0.21939  1.0000
  H   H1544     1.0  0.19369  0.49554  0.26813  1.0000
  C   C1571     1.0  0.32622  0.53568  0.20853  1.0000
  C   C1572     1.0  0.45412  0.66620  0.24071  1.0000
  H   H1545     1.0  0.26667  0.72663  0.26765  1.0000
  H   H1546     1.0  0.35413  0.73578  0.19477  1.0000
  C   C1573     1.0  0.22800  0.65509  0.32274  1.0000
  H   H1547     1.0  0.30647  0.72253  0.21430  1.0000
  H   H1548     1.0  0.25635  0.59607  0.34181  1.0000
  H   H1549     1.0  0.18640  0.65782  0.19257  1.0000
  C   C1574     1.0  0.28802  0.71388  0.35043  1.0000
  H   H1550     1.0  0.22281  0.89301  0.19263  1.0000
  H   H1551     1.0  0.14446  0.77133  0.21203  1.0000
  H   H1552     1.0  0.32961  0.69329  0.19677  1.0000
  H   H1553     1.0  0.21198  0.71859  0.22978  1.0000
  C   C1575     1.0  0.37402  0.56929  0.18582  1.0000
  C   C1576     1.0  0.37562  0.56260  0.19996  1.0000
  H   H1554     1.0  0.27456  0.70984  0.20217  1.0000
  C   C1577     1.0  0.23053  0.64543  0.19377  1.0000
  C   C1578     1.0  0.10569  0.69317  0.20759  1.0000
  H   H1555     1.0  0.29753  0.68823  0.33680  1.0000
  N   N123      1.0  0.12546  0.76815  0.20770  1.0000
  H   H1556     1.0  0.22066  0.65405  0.19288  1.0000
  H   H1557     1.0  0.46083  0.66742  0.20180  1.0000
  H   H1558     1.0  0.47825  0.66360  0.32441  1.0000
  H   H1559     1.0  0.39259  0.61293  0.19937  1.0000
  C   C1579     1.0  0.32533  0.51204  0.20516  1.0000
  H   H1560     1.0  0.28137  0.57367  0.21721  1.0000
  C   C1580     1.0  0.25272  0.64170  0.20242  1.0000
  H   H1561     1.0  0.18014  0.89600  0.18730  1.0000
  Fe  Fe278     1.0  0.28855  0.63374  0.35178  1.0000
  H   H1562     1.0  0.10295  0.74745  0.23072  1.0000
  H   H1563     1.0  0.29275  0.78461  0.19348  1.0000
  C   C1581     1.0  0.33971  0.82449  0.18878  1.0000
  C   C1582     1.0  0.30153  0.54749  0.24846  1.0000
  H   H1564     1.0  0.32139  0.51771  0.22596  1.0000
  Fe  Fe279     1.0  0.14674  0.92494  0.18915  1.0000
  C   C1583     1.0  0.29639  0.78757  0.20166  1.0000
  C   C1584     1.0  0.22490  0.61980  0.27571  1.0000
  H   H1565     1.0  0.18921  0.49463  0.29347  1.0000
  H   H1566     1.0  0.23360  0.68540  0.31512  1.0000
  N   N124      1.0  0.28896  0.69924  0.35410  1.0000
  H   H1567     1.0  0.22358  0.77519  0.24689  1.0000
  H   H1568     1.0  0.24535  0.73256  0.19766  1.0000
  N   N125      1.0  0.26754  0.72873  0.18715  1.0000
  C   C1585     1.0  0.39338  0.67940  0.18581  1.0000
  C   C1586     1.0  0.25083  0.75774  0.24756  1.0000
  S   S549      1.0  0.32153  0.49461  0.21305  1.0000
  C   C1587     1.0  0.19097  0.87483  0.19704  1.0000
  H   H1569     1.0  0.25109  0.62157  0.30749  1.0000
  H   H1570     1.0  0.37273  0.52011  0.20782  1.0000
  H   H1571     1.0  0.33158  0.70033  0.35593  1.0000
  H   H1572     1.0  0.25210  0.76399  0.23655  1.0000
  H   H1573     1.0  0.18286  0.70149  0.26780  1.0000
  H   H1574     1.0  0.32502  0.54285  0.21571  1.0000
  S   S550      1.0  0.28761  0.59031  0.33301  1.0000
  C   C1588     1.0  0.33090  0.53124  0.18436  1.0000
  C   C1589     1.0  0.13054  0.67202  0.20953  1.0000
  H   H1575     1.0  0.27964  0.70131  0.29439  1.0000
  H   H1576     1.0  0.27098  0.56145  0.30888  1.0000
  C   C1590     1.0  0.30300  0.76187  0.21298  1.0000
  C   C1591     1.0  0.20038  0.53131  0.28525  1.0000
  C   C1592     1.0  0.39788  0.68818  0.37519  1.0000
  H   H1577     1.0  0.37267  0.71203  0.19119  1.0000
  H   H1578     1.0  0.22310  0.66354  0.30148  1.0000
  H   H1579     1.0  0.23494  0.68033  0.33396  1.0000
  C   C1593     1.0  0.29871  0.80627  0.21222  1.0000
  C   C1594     1.0  0.30636  0.56051  0.24387  1.0000
  S   S551      1.0  0.39912  0.69693  0.20021  1.0000
  C   C1595     1.0  0.48413  0.65957  0.23190  1.0000
  C   C1596     1.0  0.12720  0.77727  0.19306  1.0000
  C   C1597     1.0  0.19365  0.71285  0.22616  1.0000
  C   C1598     1.0  0.25042  0.56324  0.36760  1.0000
  C   C1599     1.0  0.17250  0.70590  0.22330  1.0000
  H   H1580     1.0  0.19659  0.71628  0.21447  1.0000
  H   H1581     1.0  0.48382  0.70255  0.27436  1.0000
  C   C1600     1.0  0.32942  0.54071  0.19350  1.0000
  H   H1582     1.0  0.48065  0.64345  0.22253  1.0000
  C   C1601     1.0  0.30553  0.78105  0.22325  1.0000
  C   C1602     1.0  0.26055  0.74469  0.25079  1.0000
  C   C1603     1.0  0.24795  0.74183  0.27579  1.0000
  C   C1604     1.0  0.36228  0.66477  0.20810  1.0000
  C   C1605     1.0  0.23826  0.68755  0.32335  1.0000
  N   N126      1.0  0.25809  0.55458  0.35803  1.0000
  H   H1583     1.0  0.12450  0.67111  0.23264  1.0000
  C   C1606     1.0  0.20149  0.89614  0.18893  1.0000
  H   H1584     1.0  0.24075  0.60216  0.26784  1.0000
  C   C1607     1.0  0.23728  0.64255  0.30278  1.0000
  H   H1585     1.0  0.25029  0.62295  0.33272  1.0000
  N   N127      1.0  0.44829  0.68872  0.20333  1.0000
  C   C1608     1.0  0.45783  0.69136  0.20980  1.0000
  C   C1609     1.0  0.43615  0.69889  0.20098  1.0000
  C   C1610     1.0  0.45522  0.70440  0.21429  1.0000
  C   C1611     1.0  0.43323  0.71208  0.20524  1.0000
  C   C1612     1.0  0.44287  0.71485  0.21189  1.0000
  H   H1586     1.0  0.14573  0.73550  0.20861  1.0000
  H   H1587     1.0  0.46750  0.68335  0.21165  1.0000
  C   C1613     1.0  0.29299  0.69138  0.36675  1.0000
  C   C1614     1.0  0.34375  0.73286  0.19906  1.0000
  H   H1588     1.0  0.16312  0.71511  0.22314  1.0000
  H   H1589     1.0  0.44076  0.72511  0.21510  1.0000
  C   C1615     1.0  0.19418  0.51006  0.30242  1.0000
  H   H1590     1.0  0.27110  0.76679  0.21031  1.0000
  C   C1616     1.0  0.12157  0.67600  0.22217  1.0000
  H   H1591     1.0  0.45749  0.68255  0.24976  1.0000
  H   H1592     1.0  0.20034  0.51017  0.25530  1.0000
  C   C1617     1.0  0.28641  0.53296  0.21881  1.0000
  Fe  Fe280     1.0  0.34058  0.70814  0.37821  1.0000
  H   H1593     1.0  0.00953  0.82696  0.18633  1.0000
  N   N128      1.0  0.18491  0.82187  0.24160  1.0000
  C   C1618     1.0  0.18554  0.80830  0.25018  1.0000
  C   C1619     1.0  0.18851  0.83243  0.24587  1.0000
  C   C1620     1.0  0.18960  0.80510  0.26357  1.0000
  C   C1621     1.0  0.19259  0.82961  0.25920  1.0000
  C   C1622     1.0  0.19313  0.81584  0.26808  1.0000
  C   C1623     1.0  0.18114  0.82479  0.22740  1.0000
  H   H1594     1.0  0.18294  0.79984  0.24670  1.0000
  H   H1595     1.0  0.18840  0.84309  0.23892  1.0000
  H   H1596     1.0  0.19010  0.79432  0.27034  1.0000
  H   H1597     1.0  0.19563  0.83793  0.26250  1.0000
  H   H1598     1.0  0.19649  0.81347  0.27835  1.0000
  H   H1599     1.0  0.19083  0.82125  0.21928  1.0000
  H   H1600     1.0  0.17266  0.81901  0.22786  1.0000
  N   N129      1.0  0.28381  0.62591  0.28956  1.0000
  C   C1624     1.0  0.28396  0.62462  0.27590  1.0000
  C   C1625     1.0  0.29065  0.61471  0.29874  1.0000
  C   C1626     1.0  0.29107  0.61182  0.27114  1.0000
  C   C1627     1.0  0.29784  0.60175  0.29434  1.0000
  C   C1628     1.0  0.29810  0.60035  0.28042  1.0000
  C   C1629     1.0  0.27706  0.63969  0.29402  1.0000
  H   H1601     1.0  0.27858  0.63354  0.26860  1.0000
  H   H1602     1.0  0.29060  0.61573  0.30954  1.0000
  H   H1603     1.0  0.29125  0.61083  0.26029  1.0000
  H   H1604     1.0  0.30381  0.59043  0.27677  1.0000
  H   H1605     1.0  0.28502  0.64674  0.29095  1.0000
  H   H1606     1.0  0.26785  0.64533  0.28870  1.0000
  H   H1607     1.0  0.27269  0.63804  0.30589  1.0000
  N   N130      1.0  0.26844  0.81616  0.27797  1.0000
  C   C1630     1.0  0.25561  0.82591  0.27953  1.0000
  C   C1631     1.0  0.27995  0.81968  0.26741  1.0000
  C   C1632     1.0  0.25398  0.83951  0.27020  1.0000
  C   C1633     1.0  0.27874  0.83323  0.25794  1.0000
  C   C1634     1.0  0.26565  0.84318  0.25937  1.0000
  C   C1635     1.0  0.27006  0.80189  0.28770  1.0000
  H   H1608     1.0  0.24644  0.82315  0.28786  1.0000
  H   H1609     1.0  0.29013  0.81195  0.26622  1.0000
  H   H1610     1.0  0.24363  0.84700  0.27120  1.0000
  H   H1611     1.0  0.28781  0.83594  0.24944  1.0000
  H   H1612     1.0  0.26448  0.85362  0.25192  1.0000
  H   H1613     1.0  0.25966  0.79979  0.29484  1.0000
  H   H1614     1.0  0.27430  0.79335  0.28125  1.0000
  H   H1615     1.0  0.27781  0.80086  0.29459  1.0000
  H   H1616     1.0  0.23976  0.55271  0.35140  1.0000
  C   C1636     1.0  0.28367  0.68054  0.30875  1.0000
  C   C1637     1.0  0.47430  0.62990  0.25924  1.0000
  C   C1638     1.0  0.30265  0.64752  0.37287  1.0000
  C   C1639     1.0  0.17868  0.94008  0.22682  1.0000
  H   H1617     1.0  0.32274  0.71989  0.23089  1.0000
  H   H1618     1.0  0.16794  0.69898  0.25206  1.0000
  H   H1619     1.0  0.33101  0.67113  0.36496  1.0000
  C   C1640     1.0  0.00474  0.83331  0.19498  1.0000
  C   C1641     1.0  0.27417  0.58441  0.32840  1.0000
  Fe  Fe281     1.0  0.10704  0.73427  0.18698  1.0000
  S   S552      1.0  0.24041  0.64323  0.28414  1.0000
  H   H1620     1.0  0.29969  0.53692  0.19740  1.0000
  C   C1642     1.0  0.26775  0.56907  0.31597  1.0000
  C   C1643     1.0  0.15204  0.74044  0.19856  1.0000
  N   N131      1.0  0.27588  0.55372  0.22961  1.0000
  C   C1644     1.0  0.28264  0.56224  0.21767  1.0000
  C   C1645     1.0  0.27778  0.53922  0.23036  1.0000
  C   C1646     1.0  0.24266  0.66527  0.19068  1.0000
  H   H1621     1.0  0.35480  0.52925  0.21530  1.0000
  H   H1622     1.0  0.29526  0.67865  0.30481  1.0000
  C   C1647     1.0  0.26623  0.56037  0.24140  1.0000
  H   H1623     1.0  0.18510  0.93641  0.23541  1.0000
  H   H1624     1.0  0.27276  0.53238  0.23999  1.0000
  H   H1625     1.0  0.35410  0.64105  0.19949  1.0000
  H   H1626     1.0  0.42862  0.69681  0.19583  1.0000
  C   C1648     1.0  0.25065  0.54638  0.35291  1.0000
  H   H1627     1.0  0.26314  0.55208  0.25117  1.0000
  H   H1628     1.0  0.27165  0.56723  0.24471  1.0000
  H   H1629     1.0  0.25619  0.56700  0.23792  1.0000
  H   H1630     1.0  0.37161  0.65692  0.21117  1.0000
  S   S553      1.0  0.35130  0.68600  0.37409  1.0000
  N   N132      1.0  0.12711  0.67840  0.19628  1.0000
  H   H1631     1.0  0.23355  0.69891  0.32452  1.0000
  H   H1632     1.0  0.29009  0.81040  0.19301  1.0000
  H   H1633     1.0  0.22106  0.70308  0.18923  1.0000
  C   C1649     1.0  0.12496  0.90396  0.18561  1.0000
  C   C1650     1.0  0.27271  0.55309  0.35371  1.0000
  H   H1634     1.0  0.42354  0.72012  0.20343  1.0000
  H   H1635     1.0  0.25320  0.70536  0.30337  1.0000
  H   H1636     1.0  0.29689  0.56303  0.19652  1.0000
  C   C1651     1.0  0.18716  0.96171  0.21176  1.0000
  C   C1652     1.0  0.37446  0.71655  0.35042  1.0000
  N   N133      1.0  0.37713  0.72745  0.33706  1.0000
  C   C1653     1.0  0.39005  0.73168  0.33276  1.0000
  C   C1654     1.0  0.36655  0.73379  0.32928  1.0000
  C   C1655     1.0  0.39284  0.74214  0.32012  1.0000
  C   C1656     1.0  0.36895  0.74433  0.31658  1.0000
  C   C1657     1.0  0.38223  0.74843  0.31194  1.0000
  H   H1637     1.0  0.36571  0.71126  0.35057  1.0000
  H   H1638     1.0  0.39832  0.72691  0.33907  1.0000
  H   H1639     1.0  0.35617  0.73073  0.33288  1.0000
  H   H1640     1.0  0.40321  0.74529  0.31662  1.0000
  H   H1641     1.0  0.36053  0.74930  0.31044  1.0000
  H   H1642     1.0  0.38436  0.75650  0.30205  1.0000
  H   H1643     1.0  0.47578  0.68749  0.27677  1.0000
  H   H1644     1.0  0.30482  0.53974  0.24151  1.0000
  H   H1645     1.0  0.44184  0.66947  0.20412  1.0000
  N   N134      1.0  0.18693  0.94747  0.21342  1.0000
  H   H1646     1.0  0.10214  0.69000  0.23085  1.0000
  H   H1647     1.0  0.25126  0.57800  0.38025  1.0000
  H   H1648     1.0  0.30946  0.77282  0.23202  1.0000
  C   C1658     1.0  0.26393  0.64677  0.20447  1.0000
  Fe  Fe282     1.0  0.25757  0.63231  0.35461  1.0000
  C   C1659     1.0  0.29665  0.69806  0.37589  1.0000
  C   C1660     1.0  0.20638  0.63888  0.28593  1.0000
  C   C1661     1.0  0.21399  0.88791  0.19369  1.0000
  H   H1649     1.0  0.31269  0.75511  0.21711  1.0000
  C   C1662     1.0  0.23448  0.60638  0.27731  1.0000
  C   C1663     1.0  0.11490  0.68890  0.19517  1.0000
  H   H1650     1.0  0.31348  0.56273  0.23342  1.0000
  S   S554      1.0  0.30376  0.64916  0.34417  1.0000
  H   H1651     1.0  0.28523  0.72009  0.34021  1.0000
  H   H1652     1.0  0.36388  0.80439  0.18897  1.0000
  C   C1664     1.0  0.19844  0.52320  0.29943  1.0000
  C   C1665     1.0  0.29296  0.84753  0.18624  1.0000
  C   C1666     1.0  0.27490  0.69329  0.30294  1.0000
  C   C1667     1.0  0.32417  0.52142  0.21431  1.0000
  C   C1668     1.0  0.36311  0.52837  0.20518  1.0000
  H   H1653     1.0  0.17853  0.70563  0.21199  1.0000
  C   C1669     1.0  0.29944  0.86842  0.18958  1.0000
  C   C1670     1.0  0.33462  0.73432  0.18968  1.0000
  H   H1654     1.0  0.19995  0.83026  0.19030  1.0000
  C   C1671     1.0  0.23616  0.64396  0.33137  1.0000
  C   C1672     1.0  0.29298  0.54166  0.20643  1.0000
  H   H1655     1.0  0.29144  0.73242  0.35604  1.0000
  C   C1673     1.0  0.28188  0.84809  0.19862  1.0000
  H   H1656     1.0  0.25266  0.63027  0.20593  1.0000
  C   C1674     1.0  0.29602  0.71293  0.37207  1.0000
  C   C1675     1.0  0.24419  0.63170  0.32599  1.0000
  C   C1676     1.0  0.16429  0.74502  0.19866  1.0000
  C   C1677     1.0  0.22879  0.65452  0.30837  1.0000
  N   N135      1.0  0.30186  0.77720  0.21243  1.0000
  C   C1678     1.0  0.27819  0.57467  0.31903  1.0000
  N   N136      1.0  0.21670  0.62502  0.28764  1.0000
  H   H1657     1.0  0.44263  0.66863  0.24445  1.0000
  H   H1658     1.0  0.46303  0.65123  0.28416  1.0000
  C   C1679     1.0  0.46053  0.65521  0.23298  1.0000
  C   C1680     1.0  0.19225  0.50753  0.26540  1.0000
  S   S555      1.0  0.13893  0.94900  0.18424  1.0000
  N   N137      1.0  0.24210  0.65100  0.19589  1.0000
  N   N138      1.0  0.48847  0.68565  0.29229  1.0000
  C   C1681     1.0  0.35773  0.67745  0.21352  1.0000
  N   N139      1.0  0.19437  0.51293  0.27717  1.0000
  H   H1659     1.0  0.26928  0.74089  0.24237  1.0000
  H   H1660     1.0  0.20052  0.52691  0.30806  1.0000
  H   H1661     1.0  0.22983  0.75881  0.28066  1.0000
  S   S556      1.0  0.38452  0.73963  0.20142  1.0000
  S   S557      1.0  0.35051  0.72624  0.22580  1.0000
  H   H1662     1.0  0.22220  0.77969  0.26398  1.0000
  N   N140      1.0  0.18161  0.70720  0.23239  1.0000
  H   H1663     1.0  0.17695  0.83650  0.22354  1.0000
  C   C1682     1.0  0.47761  0.67071  0.23947  1.0000
  C   C1683     1.0  0.47559  0.65192  0.22855  1.0000
  C   C1684     1.0  0.34354  0.67244  0.19488  1.0000
  H   H1664     1.0  0.10626  0.76289  0.20617  1.0000
  C   C1685     1.0  0.25322  0.57308  0.32242  1.0000
  C   C1686     1.0  0.29133  0.55634  0.20591  1.0000
  H   H1665     1.0  0.19527  0.63695  0.28845  1.0000
  H   H1666     1.0  0.28423  0.66018  0.32403  1.0000
  H   H1667     1.0  0.46995  0.62583  0.25234  1.0000
  C   C1687     1.0  0.19842  0.71022  0.24983  1.0000
  H   H1668     1.0  0.28267  0.72492  0.20056  1.0000
  C   C1688     1.0  0.13903  0.86244  0.19816  1.0000
  H   H1669     1.0  0.28944  0.57125  0.31428  1.0000
  H   H1670     1.0  0.23597  0.78505  0.24870  1.0000
  C   C1689     1.0  0.19207  0.50509  0.29111  1.0000
  C   C1690     1.0  0.19825  0.52599  0.27418  1.0000
  H   H1671     1.0  0.19311  0.50348  0.31334  1.0000
  C   C1691     1.0  0.22989  0.77634  0.25428  1.0000
  H   H1672     1.0  0.27247  0.63935  0.20946  1.0000
  S   S558      1.0  0.29486  0.60997  0.36079  1.0000
  C   C1692     1.0  0.30882  0.65298  0.35852  1.0000
  H   H1673     1.0  0.21123  0.62131  0.31073  1.0000
  H   H1674     1.0  0.20846  0.64527  0.27463  1.0000
  H   H1675     1.0  0.28244  0.68198  0.34965  1.0000
  H   H1676     1.0  0.22781  0.59742  0.31411  1.0000
  H   H1677     1.0  0.29337  0.75825  0.22044  1.0000
  H   H1678     1.0  0.26451  0.72495  0.21027  1.0000
  C   C1693     1.0  0.21771  0.61715  0.30129  1.0000
  C   C1694     1.0  0.22713  0.60370  0.30328  1.0000
  C   C1695     1.0  0.25737  0.57092  0.37287  1.0000
  C   C1696     1.0  0.32114  0.73062  0.19520  1.0000
  N   N141      1.0  0.23993  0.76268  0.25817  1.0000
  H   H1679     1.0  0.00579  0.82609  0.20568  1.0000
  H   H1680     1.0  0.37290  0.54414  0.21725  1.0000
  C   C1697     1.0  0.13375  0.75735  0.22997  1.0000
  N   N142      1.0  0.35536  0.66254  0.19868  1.0000
  S   S559      1.0  0.13235  0.90862  0.19800  1.0000
  C   C1698     1.0  0.11206  0.75272  0.22673  1.0000
  H   H1681     1.0  0.27878  0.54637  0.34600  1.0000
  C   C1699     1.0  0.37199  0.54910  0.20612  1.0000
  H   H1682     1.0  0.30702  0.79862  0.23187  1.0000
  H   H1683     1.0  0.14644  0.85226  0.20202  1.0000
  C   C1700     1.0  0.32887  0.51698  0.19014  1.0000
  H   H1684     1.0  0.29932  0.71821  0.37876  1.0000
  S   S560      1.0  0.33142  0.55872  0.18557  1.0000
  H   H1685     1.0  0.14029  0.66381  0.21038  1.0000
  S   S561      1.0  0.48340  0.72625  0.29128  1.0000
  N   N143      1.0  0.36704  0.54241  0.19834  1.0000
  H   H1686     1.0  0.40240  0.72207  0.37264  1.0000
  H   H1687     1.0  0.16840  0.94741  0.23061  1.0000
  C   C1701     1.0  0.27999  0.56060  0.35878  1.0000
  C   C1702     1.0  0.48509  0.64142  0.27617  1.0000
  H   H1688     1.0  0.45225  0.67694  0.18680  1.0000
  H   H1689     1.0  0.25407  0.68202  0.18826  1.0000
  Fe  Fe283     1.0  0.27434  0.61374  0.37744  1.0000
  H   H1690     1.0  0.23884  0.56440  0.37105  1.0000
  C   C1703     1.0  0.31686  0.65903  0.38156  1.0000
  H   H1691     1.0  0.40307  0.67192  0.18835  1.0000
  H   H1692     1.0  0.34522  0.82533  0.19703  1.0000
  H   H1693     1.0  0.34069  0.62673  0.37237  1.0000
  H   H1694     1.0  0.30614  0.87637  0.18604  1.0000
  C   C1704     1.0  0.36574  0.54876  0.18434  1.0000
  C   C1705     1.0  0.17237  0.75140  0.18562  1.0000
  H   H1695     1.0  0.12761  0.77095  0.18500  1.0000
  H   H1696     1.0  0.33307  0.81619  0.19385  1.0000
  H   H1697     1.0  0.10474  0.88069  0.18495  1.0000
  C   C1706     1.0  0.14755  0.74276  0.18554  1.0000
  C   C1707     1.0  0.25311  0.73341  0.18743  1.0000
  H   H1698     1.0  0.13774  0.73976  0.18574  1.0000
  H   H1699     1.0  0.33812  0.67068  0.18734  1.0000
  H   H1700     1.0  0.32414  0.61254  0.37008  1.0000
  C   C1708     1.0  0.33332  0.62232  0.38188  1.0000
  C   C1709     1.0  0.32399  0.61441  0.38059  1.0000
  H   H1701     1.0  0.48946  0.64602  0.28260  1.0000
  H   H1702     1.0  0.33248  0.83516  0.18585  1.0000
  H   H1703     1.0  0.11222  0.69409  0.18466  1.0000
  H   H1704     1.0  0.13853  0.66211  0.18449  1.0000
  N   N144      1.0  0.14577  0.86971  0.18380  1.0000
  C   C1710     1.0  0.20932  0.82443  0.18388  1.0000
  S   S562      1.0  0.33879  0.59605  0.18409  1.0000
  H   H1705     1.0  0.32978  0.50989  0.18297  1.0000
  H   H1706     1.0  0.15078  0.83595  0.18288  1.0000
  S   S563      1.0  0.30707  0.63094  0.18368  1.0000
  C   C1711     1.0  0.17218  0.65098  0.18359  1.0000
  C   C1712     1.0  0.13680  0.67400  0.18327  1.0000
  H   H1707     1.0  0.23412  0.64106  0.18370  1.0000
  S   S564      1.0  0.30944  0.73267  0.18372  1.0000
  C   C1713     1.0  0.18293  0.65815  0.18291  1.0000
  H   H1708     1.0  0.49144  0.75222  0.32138  1.0000
  C   C1714     1.0  0.15509  0.87830  0.18272  1.0000
  C   C1715     1.0  0.33682  0.75315  0.55255  1.0000
  H   H1709     1.0  0.38308  0.68612  0.45984  1.0000
  C   C1716     1.0  0.31417  0.60930  0.39282  1.0000
  H   H1710     1.0  0.26649  0.73099  0.56543  1.0000
  C   C1717     1.0  0.29974  0.59988  0.53683  1.0000
  N   N145      1.0  0.23776  0.63815  0.58091  1.0000
  C   C1718     1.0  0.32639  0.76449  0.54702  1.0000
  C   C1719     1.0  0.28859  0.68986  0.55956  1.0000
  Fe  Fe284     1.0  0.28840  0.53966  0.56906  1.0000
  S   S565      1.0  0.28072  0.54913  0.54811  1.0000
  H   H1711     1.0  0.22412  0.65266  0.56716  1.0000
  H   H1712     1.0  0.25108  0.73676  0.53554  1.0000
  Fe  Fe285     1.0  0.41090  0.74724  0.57460  1.0000
  H   H1713     1.0  0.29573  0.73858  0.51833  1.0000
  C   C1720     1.0  0.27566  0.60439  0.53180  1.0000
  H   H1714     1.0  0.34603  0.74850  0.54503  1.0000
  C   C1721     1.0  0.17662  0.72130  0.55020  1.0000
  S   S566      1.0  0.25811  0.68319  0.54904  1.0000
  Fe  Fe286     1.0  0.21310  0.72093  0.55795  1.0000
  H   H1715     1.0  0.30666  0.60334  0.39196  1.0000
  C   C1722     1.0  0.19928  0.75540  0.55838  1.0000
  Fe  Fe287     1.0  0.30374  0.61113  0.48879  1.0000
  S   S567      1.0  0.28135  0.61573  0.48472  1.0000
  S   S568      1.0  0.31657  0.58968  0.49835  1.0000
  Fe  Fe288     1.0  0.30568  0.64282  0.48067  1.0000
  S   S569      1.0  0.28346  0.65003  0.47612  1.0000
  S   S570      1.0  0.31944  0.65918  0.47670  1.0000
  Fe  Fe289     1.0  0.27739  0.63382  0.49634  1.0000
  S   S571      1.0  0.25722  0.63836  0.51330  1.0000
  Fe  Fe290     1.0  0.28948  0.63144  0.46470  1.0000
  S   S572      1.0  0.28493  0.63811  0.44196  1.0000
  S   S573      1.0  0.29918  0.62808  0.50183  1.0000
  S   S574      1.0  0.31231  0.62540  0.46782  1.0000
  S   S575      1.0  0.18724  0.68057  0.57009  1.0000
  C   C1723     1.0  0.25807  0.59056  0.54658  1.0000
  N   N146      1.0  0.36583  0.67511  0.46469  1.0000
  C   C1724     1.0  0.31232  0.67519  0.44235  1.0000
  H   H1716     1.0  0.41348  0.68203  0.55453  1.0000
  C   C1725     1.0  0.31305  0.76510  0.57146  1.0000
  C   C1726     1.0  0.25061  0.64356  0.57227  1.0000
  H   H1717     1.0  0.28719  0.68282  0.55335  1.0000
  H   H1718     1.0  0.35656  0.66704  0.48686  1.0000
  S   S576      1.0  0.26156  0.76503  0.56520  1.0000
  C   C1727     1.0  0.19698  0.74981  0.57333  1.0000
  S   S577      1.0  0.38755  0.67560  0.38604  1.0000
  Fe  Fe291     1.0  0.33169  0.70403  0.52149  1.0000
  S   S578      1.0  0.32843  0.72241  0.50266  1.0000
  S   S579      1.0  0.31728  0.68794  0.52842  1.0000
  Fe  Fe292     1.0  0.35664  0.71375  0.52672  1.0000
  S   S580      1.0  0.35575  0.73254  0.50774  1.0000
  S   S581      1.0  0.37133  0.70826  0.54274  1.0000
  Fe  Fe293     1.0  0.33183  0.73580  0.51623  1.0000
  S   S582      1.0  0.31772  0.75785  0.51625  1.0000
  Fe  Fe294     1.0  0.35247  0.71721  0.49581  1.0000
  S   S583      1.0  0.36381  0.71519  0.47272  1.0000
  S   S584      1.0  0.33285  0.71794  0.53591  1.0000
  S   S585      1.0  0.35561  0.69794  0.51409  1.0000
  H   H1719     1.0  0.26522  0.57412  0.56427  1.0000
  C   C1728     1.0  0.42271  0.73544  0.53268  1.0000
  H   H1720     1.0  0.17037  0.65869  0.58195  1.0000
  S   S586      1.0  0.39627  0.75449  0.55834  1.0000
  H   H1721     1.0  0.16426  0.70654  0.57563  1.0000
  S   S587      1.0  0.35465  0.70833  0.39292  1.0000
  H   H1722     1.0  0.35505  0.68636  0.48155  1.0000
  H   H1723     1.0  0.27857  0.61275  0.52253  1.0000
  H   H1724     1.0  0.19632  0.77460  0.54165  1.0000
  S   S588      1.0  0.19834  0.71163  0.57778  1.0000
  S   S589      1.0  0.43485  0.74104  0.56709  1.0000
  H   H1725     1.0  0.37460  0.67491  0.42370  1.0000
  C   C1729     1.0  0.36218  0.67578  0.48009  1.0000
  H   H1726     1.0  0.17385  0.74779  0.55411  1.0000
  H   H1727     1.0  0.28590  0.68972  0.52629  1.0000
  S   S590      1.0  0.30804  0.52266  0.57365  1.0000
  H   H1728     1.0  0.29595  0.70205  0.45620  1.0000
  H   H1729     1.0  0.25159  0.50011  0.56148  1.0000
  S   S591      1.0  0.44551  0.70124  0.58039  1.0000
  S   S592      1.0  0.27482  0.60269  0.40089  1.0000
  N   N147      1.0  0.28539  0.59659  0.54020  1.0000
  H   H1730     1.0  0.40389  0.69700  0.53290  1.0000
  H   H1731     1.0  0.28935  0.57980  0.55855  1.0000
  H   H1732     1.0  0.33167  0.62473  0.42295  1.0000
  C   C1730     1.0  0.30006  0.69038  0.46025  1.0000
  Fe  Fe295     1.0  0.33813  0.69876  0.41088  1.0000
  S   S593      1.0  0.34856  0.67578  0.40946  1.0000
  S   S594      1.0  0.32786  0.70443  0.43277  1.0000
  Fe  Fe296     1.0  0.33489  0.67852  0.39343  1.0000
  S   S595      1.0  0.32194  0.66174  0.39644  1.0000
  S   S596      1.0  0.32310  0.70074  0.39636  1.0000
  H   H1733     1.0  0.39467  0.72456  0.57212  1.0000
  H   H1734     1.0  0.31120  0.68912  0.46163  1.0000
  C   C1731     1.0  0.19452  0.77018  0.55321  1.0000
  C   C1732     1.0  0.28677  0.68143  0.44778  1.0000
  H   H1735     1.0  0.25249  0.51235  0.58027  1.0000
  C   C1733     1.0  0.38045  0.68078  0.44084  1.0000
  N   N148      1.0  0.16973  0.72665  0.56357  1.0000
  C   C1734     1.0  0.33251  0.62521  0.39541  1.0000
  N   N149      1.0  0.33540  0.74794  0.56719  1.0000
  C   C1735     1.0  0.22167  0.76957  0.57972  1.0000
  H   H1736     1.0  0.20229  0.64372  0.58127  1.0000
  C   C1736     1.0  0.31375  0.61230  0.40617  1.0000
  H   H1737     1.0  0.18010  0.70932  0.55247  1.0000
  H   H1738     1.0  0.20109  0.73859  0.57749  1.0000
  C   C1737     1.0  0.27310  0.73928  0.52738  1.0000
  H   H1739     1.0  0.35400  0.66474  0.44027  1.0000
  H   H1740     1.0  0.29923  0.60967  0.54076  1.0000
  H   H1741     1.0  0.27144  0.69500  0.51660  1.0000
  C   C1738     1.0  0.26478  0.71827  0.52722  1.0000
  C   C1739     1.0  0.37218  0.67487  0.43524  1.0000
  C   C1740     1.0  0.27734  0.70114  0.56356  1.0000
  H   H1742     1.0  0.24759  0.58789  0.54880  1.0000
  H   H1743     1.0  0.18644  0.72573  0.54467  1.0000
  H   H1744     1.0  0.18366  0.79072  0.55896  1.0000
  C   C1741     1.0  0.22488  0.64401  0.57670  1.0000
  C   C1742     1.0  0.35758  0.66941  0.45927  1.0000
  H   H1745     1.0  0.27587  0.67294  0.43634  1.0000
  H   H1746     1.0  0.31414  0.63560  0.42068  1.0000
  H   H1747     1.0  0.28903  0.49497  0.57168  1.0000
  H   H1748     1.0  0.29361  0.68644  0.47108  1.0000
  H   H1749     1.0  0.31589  0.61716  0.43046  1.0000
  C   C1743     1.0  0.18733  0.77929  0.56299  1.0000
  H   H1750     1.0  0.30597  0.77887  0.55232  1.0000
  N   N150      1.0  0.29976  0.68207  0.44991  1.0000
  H   H1751     1.0  0.25606  0.71255  0.52979  1.0000
  H   H1752     1.0  0.37199  0.67465  0.48424  1.0000
  C   C1744     1.0  0.35345  0.71376  0.46104  1.0000
  C   C1745     1.0  0.33907  0.71264  0.46623  1.0000
  C   C1746     1.0  0.33129  0.71026  0.45726  1.0000
  C   C1747     1.0  0.33787  0.70863  0.44306  1.0000
  C   C1748     1.0  0.35218  0.71008  0.43763  1.0000
  C   C1749     1.0  0.35989  0.71281  0.44657  1.0000
  H   H1753     1.0  0.33392  0.71345  0.47720  1.0000
  H   H1754     1.0  0.32014  0.70952  0.46146  1.0000
  H   H1755     1.0  0.35729  0.70910  0.42659  1.0000
  H   H1756     1.0  0.37096  0.71390  0.44236  1.0000
  C   C1750     1.0  0.37721  0.72162  0.54742  1.0000
  C   C1751     1.0  0.37609  0.73573  0.53916  1.0000
  C   C1752     1.0  0.38167  0.74582  0.54281  1.0000
  C   C1753     1.0  0.38856  0.74183  0.55463  1.0000
  C   C1754     1.0  0.38946  0.72779  0.56299  1.0000
  C   C1755     1.0  0.38372  0.71777  0.55946  1.0000
  H   H1757     1.0  0.37122  0.73878  0.52976  1.0000
  H   H1758     1.0  0.38094  0.75667  0.53627  1.0000
  C   C1756     1.0  0.26190  0.60147  0.53480  1.0000
  H   H1759     1.0  0.38461  0.70688  0.56593  1.0000
  C   C1757     1.0  0.26192  0.73190  0.53060  1.0000
  H   H1760     1.0  0.38919  0.68559  0.43366  1.0000
  C   C1758     1.0  0.28161  0.58611  0.55198  1.0000
  C   C1759     1.0  0.37703  0.68092  0.45567  1.0000
  H   H1761     1.0  0.27104  0.74992  0.52979  1.0000
  C   C1760     1.0  0.30172  0.68776  0.56354  1.0000
  H   H1762     1.0  0.42352  0.74048  0.54131  1.0000
  H   H1763     1.0  0.31366  0.69534  0.57456  1.0000
  H   H1764     1.0  0.40827  0.72173  0.52295  1.0000
  C   C1761     1.0  0.28941  0.71928  0.51778  1.0000
  N   N151      1.0  0.27835  0.71225  0.52070  1.0000
  C   C1762     1.0  0.28134  0.69786  0.51749  1.0000
  H   H1765     1.0  0.43281  0.73521  0.52428  1.0000
  H   H1766     1.0  0.34854  0.66502  0.46634  1.0000
  H   H1767     1.0  0.25437  0.60755  0.52786  1.0000
  H   H1768     1.0  0.28925  0.69719  0.50708  1.0000
  N   N152      1.0  0.27912  0.71002  0.57136  1.0000
  H   H1769     1.0  0.30376  0.76963  0.57899  1.0000
  C   C1763     1.0  0.36064  0.66918  0.44450  1.0000
  H   H1770     1.0  0.25692  0.71832  0.57912  1.0000
  C   C1764     1.0  0.27726  0.76275  0.55181  1.0000
  C   C1765     1.0  0.27842  0.77294  0.53875  1.0000
  C   C1766     1.0  0.29094  0.77135  0.52794  1.0000
  C   C1767     1.0  0.30217  0.75935  0.52997  1.0000
  C   C1768     1.0  0.30090  0.74896  0.54293  1.0000
  C   C1769     1.0  0.28851  0.75074  0.55391  1.0000
  H   H1771     1.0  0.26972  0.78222  0.53707  1.0000
  H   H1772     1.0  0.29188  0.77941  0.51793  1.0000
  H   H1773     1.0  0.30957  0.73975  0.54464  1.0000
  H   H1774     1.0  0.28761  0.74273  0.56389  1.0000
  C   C1770     1.0  0.28109  0.62803  0.43141  1.0000
  C   C1771     1.0  0.27934  0.63492  0.41726  1.0000
  C   C1772     1.0  0.27718  0.62731  0.40796  1.0000
  C   C1773     1.0  0.27652  0.61272  0.41277  1.0000
  C   C1774     1.0  0.27791  0.60585  0.42708  1.0000
  C   C1775     1.0  0.28028  0.61346  0.43638  1.0000
  H   H1775     1.0  0.27974  0.64624  0.41343  1.0000
  H   H1776     1.0  0.27606  0.63276  0.39706  1.0000
  H   H1777     1.0  0.27737  0.59456  0.43093  1.0000
  H   H1778     1.0  0.28154  0.60805  0.44730  1.0000
  C   C1776     1.0  0.31842  0.66708  0.49128  1.0000
  C   C1777     1.0  0.32496  0.67884  0.48864  1.0000
  C   C1778     1.0  0.32484  0.68507  0.50006  1.0000
  C   C1779     1.0  0.31800  0.67971  0.51419  1.0000
  C   C1780     1.0  0.31132  0.66803  0.51686  1.0000
  C   C1781     1.0  0.31148  0.66175  0.50541  1.0000
  H   H1779     1.0  0.33016  0.68316  0.47773  1.0000
  H   H1780     1.0  0.33008  0.69400  0.49792  1.0000
  H   H1781     1.0  0.30619  0.66371  0.52781  1.0000
  H   H1782     1.0  0.30646  0.65265  0.50759  1.0000
  H   H1783     1.0  0.27683  0.68661  0.45400  1.0000
  C   C1782     1.0  0.31434  0.77036  0.55654  1.0000
  H   H1784     1.0  0.30410  0.60177  0.52493  1.0000
  S   S597      1.0  0.20747  0.74386  0.54616  1.0000
  C   C1783     1.0  0.30658  0.65062  0.38431  1.0000
  C   C1784     1.0  0.16250  0.74614  0.57629  1.0000
  H   H1785     1.0  0.30021  0.71432  0.51291  1.0000
  H   H1786     1.0  0.29342  0.71503  0.58152  1.0000
  Fe  Fe297     1.0  0.36396  0.68545  0.39031  1.0000
  H   H1787     1.0  0.32753  0.76854  0.53539  1.0000
  C   C1785     1.0  0.25774  0.67061  0.53932  1.0000
  C   C1786     1.0  0.27058  0.66395  0.53128  1.0000
  C   C1787     1.0  0.27044  0.65424  0.52308  1.0000
  C   C1788     1.0  0.25750  0.65077  0.52325  1.0000
  C   C1789     1.0  0.24467  0.65712  0.53164  1.0000
  C   C1790     1.0  0.24476  0.66716  0.53953  1.0000
  H   H1788     1.0  0.28067  0.66632  0.53129  1.0000
  H   H1789     1.0  0.28037  0.64941  0.51668  1.0000
  H   H1790     1.0  0.23462  0.65449  0.53177  1.0000
  H   H1791     1.0  0.23478  0.67220  0.54575  1.0000
  S   S598      1.0  0.45256  0.76775  0.57799  1.0000
  N   N153      1.0  0.32274  0.62027  0.40731  1.0000
  H   H1792     1.0  0.29852  0.66110  0.42205  1.0000
  S   S599      1.0  0.21766  0.70185  0.54768  1.0000
  C   C1791     1.0  0.29103  0.55995  0.53415  1.0000
  C   C1792     1.0  0.28464  0.56933  0.52294  1.0000
  C   C1793     1.0  0.29238  0.57856  0.51197  1.0000
  C   C1794     1.0  0.30670  0.57813  0.51192  1.0000
  C   C1795     1.0  0.31317  0.56858  0.52302  1.0000
  C   C1796     1.0  0.30528  0.55967  0.53426  1.0000
  H   H1793     1.0  0.27363  0.56955  0.52281  1.0000
  H   H1794     1.0  0.28735  0.58578  0.50340  1.0000
  H   H1795     1.0  0.32426  0.56820  0.52299  1.0000
  H   H1796     1.0  0.31028  0.55244  0.54286  1.0000
  C   C1797     1.0  0.28614  0.67387  0.43774  1.0000
  S   S600      1.0  0.23258  0.71354  0.56775  1.0000
  H   H1797     1.0  0.30599  0.60843  0.41557  1.0000
  C   C1798     1.0  0.31207  0.66761  0.43219  1.0000
  C   C1799     1.0  0.26793  0.58290  0.55531  1.0000
  H   H1798     1.0  0.31058  0.67914  0.56033  1.0000
  C   C1800     1.0  0.26729  0.72198  0.57505  1.0000
  C   C1801     1.0  0.22534  0.75453  0.58238  1.0000
  C   C1802     1.0  0.29889  0.66708  0.42980  1.0000
  C   C1803     1.0  0.18456  0.77355  0.57793  1.0000
  H   H1799     1.0  0.30758  0.59069  0.54174  1.0000
  C   C1804     1.0  0.28694  0.73293  0.52095  1.0000
  C   C1805     1.0  0.16906  0.74073  0.56371  1.0000
  H   H1800     1.0  0.22501  0.77584  0.56895  1.0000
  S   S601      1.0  0.22342  0.68170  0.57970  1.0000
  Fe  Fe298     1.0  0.23593  0.69341  0.55943  1.0000
  H   H1801     1.0  0.32202  0.66213  0.42624  1.0000
  H   H1802     1.0  0.32261  0.67552  0.44419  1.0000
  N   N154      1.0  0.42017  0.72076  0.53870  1.0000
  C   C1806     1.0  0.41275  0.71518  0.53220  1.0000
  C   C1807     1.0  0.42569  0.71250  0.55045  1.0000
  C   C1808     1.0  0.41031  0.70115  0.53773  1.0000
  C   C1809     1.0  0.42340  0.69846  0.55632  1.0000
  C   C1810     1.0  0.41559  0.69280  0.54994  1.0000
  H   H1803     1.0  0.33931  0.63195  0.39619  1.0000
  H   H1804     1.0  0.41357  0.74259  0.52787  1.0000
  H   H1805     1.0  0.43178  0.71679  0.55550  1.0000
  C   C1811     1.0  0.32378  0.75386  0.57665  1.0000
  C   C1812     1.0  0.25139  0.49418  0.57258  1.0000
  C   C1813     1.0  0.30348  0.69690  0.57143  1.0000
  H   H1806     1.0  0.26715  0.70270  0.56046  1.0000
  H   H1807     1.0  0.34920  0.72725  0.56676  1.0000
  Fe  Fe299     1.0  0.20472  0.69179  0.56869  1.0000
  H   H1808     1.0  0.16899  0.72453  0.54275  1.0000
  H   H1809     1.0  0.30184  0.64622  0.39538  1.0000
  C   C1814     1.0  0.29200  0.70807  0.57525  1.0000
  H   H1810     1.0  0.42756  0.69210  0.56583  1.0000
  C   C1815     1.0  0.32108  0.62461  0.42103  1.0000
  C   C1816     1.0  0.16372  0.71772  0.57569  1.0000
  H   H1811     1.0  0.47490  0.78257  0.57608  1.0000
  H   H1812     1.0  0.35667  0.74032  0.57085  1.0000
  C   C1817     1.0  0.34670  0.73623  0.57261  1.0000
  H   H1813     1.0  0.23150  0.74909  0.57367  1.0000
  H   H1814     1.0  0.24852  0.65551  0.57076  1.0000
  H   H1815     1.0  0.25354  0.64072  0.56141  1.0000
  H   H1816     1.0  0.34010  0.49232  0.57480  1.0000
  H   H1817     1.0  0.16218  0.75726  0.57643  1.0000
  H   H1818     1.0  0.26000  0.63898  0.57757  1.0000
  H   H1819     1.0  0.38736  0.70460  0.38764  1.0000
  H   H1820     1.0  0.45330  0.67137  0.57964  1.0000
  H   H1821     1.0  0.30030  0.69164  0.38565  1.0000
  Fe  Fe300     1.0  0.15794  0.71049  0.70966  1.0000
  S   S602      1.0  0.15773  0.69930  0.73280  1.0000
  Fe  Fe301     1.0  0.14168  0.69076  0.70508  1.0000
  S   S603      1.0  0.13941  0.67818  0.72808  1.0000
  S   S604      1.0  0.13515  0.68415  0.68792  1.0000
  Fe  Fe302     1.0  0.13456  0.69994  0.73387  1.0000
  Fe  Fe303     1.0  0.16261  0.67878  0.72499  1.0000
  S   S605      1.0  0.17785  0.65898  0.73406  1.0000
  S   S606      1.0  0.13447  0.71252  0.71106  1.0000
  S   S607      1.0  0.16524  0.68992  0.70162  1.0000
  Fe  Fe304     1.0  0.21124  0.62636  0.66715  1.0000
  S   S608      1.0  0.19758  0.64675  0.65702  1.0000
  S   S609      1.0  0.20619  0.61634  0.69094  1.0000
  Fe  Fe305     1.0  0.23224  0.62283  0.63857  1.0000
  S   S610      1.0  0.22041  0.64300  0.62613  1.0000
  S   S611      1.0  0.25307  0.61239  0.62558  1.0000
  Fe  Fe306     1.0  0.21871  0.65248  0.64506  1.0000
  S   S612      1.0  0.22275  0.67452  0.64177  1.0000
  Fe  Fe307     1.0  0.20049  0.63525  0.63920  1.0000
  S   S613      1.0  0.18200  0.63600  0.62949  1.0000
  S   S614      1.0  0.23229  0.63307  0.65656  1.0000
  S   S615      1.0  0.21236  0.61416  0.65022  1.0000
  H   H1822     1.0  0.26834  0.68981  0.59879  1.0000
  H   H1823     1.0  0.23555  0.62700  0.71961  1.0000
  H   H1824     1.0  0.30185  0.56256  0.65964  1.0000
  C   C1818     1.0  0.32804  0.48967  0.61612  1.0000
  N   N155      1.0  0.16463  0.69761  0.76845  1.0000
  S   S616      1.0  0.29446  0.52411  0.60796  1.0000
  Fe  Fe308     1.0  0.15448  0.74562  0.62914  1.0000
  S   S617      1.0  0.14431  0.76575  0.61507  1.0000
  S   S618      1.0  0.15424  0.72351  0.62684  1.0000
  Fe  Fe309     1.0  0.16694  0.76186  0.64307  1.0000
  S   S619      1.0  0.15803  0.78347  0.63049  1.0000
  S   S620      1.0  0.18180  0.75973  0.65754  1.0000
  Fe  Fe310     1.0  0.13794  0.77494  0.63516  1.0000
  S   S621      1.0  0.11630  0.78987  0.63941  1.0000
  Fe  Fe311     1.0  0.16508  0.77266  0.61157  1.0000
  C   C1819     1.0  0.12921  0.86516  0.69183  1.0000
  S   S622      1.0  0.14619  0.75415  0.64968  1.0000
  S   S623      1.0  0.17587  0.75174  0.62381  1.0000
  Fe  Fe312     1.0  0.05323  0.84108  0.72460  1.0000
  S   S624      1.0  0.04419  0.84457  0.74724  1.0000
  Fe  Fe313     1.0  0.07522  0.82418  0.70331  1.0000
  S   S625      1.0  0.06902  0.84092  0.68414  1.0000
  S   S626      1.0  0.09315  0.80438  0.70187  1.0000
  Fe  Fe314     1.0  0.06842  0.85720  0.69700  1.0000
  S   S627      1.0  0.07825  0.87716  0.68903  1.0000
  S   S628      1.0  0.07657  0.84033  0.71507  1.0000
  S   S629      1.0  0.05261  0.82297  0.71505  1.0000
  H   H1825     1.0  0.16659  0.94127  0.73207  1.0000
  H   H1826     1.0  0.35184  0.51744  0.63590  1.0000
  Fe  Fe315     1.0  0.13896  0.92462  0.70439  1.0000
  S   S630      1.0  0.14071  0.90398  0.72106  1.0000
  S   S631      1.0  0.14995  0.92671  0.68096  1.0000
  S   S632      1.0  0.11920  0.92307  0.74434  1.0000
  Fe  Fe316     1.0  0.14295  0.91744  0.73535  1.0000
  S   S633      1.0  0.16058  0.91103  0.74802  1.0000
  Fe  Fe317     1.0  0.11688  0.91151  0.72821  1.0000
  S   S634      1.0  0.10252  0.89532  0.73429  1.0000
  Fe  Fe318     1.0  0.17460  0.84844  0.67460  1.0000
  S   S635      1.0  0.16255  0.84119  0.69710  1.0000
  S   S636      1.0  0.16542  0.86804  0.65938  1.0000
  Fe  Fe319     1.0  0.19939  0.82240  0.67685  1.0000
  S   S637      1.0  0.18952  0.81257  0.69961  1.0000
  Fe  Fe320     1.0  0.16892  0.81940  0.69149  1.0000
  S   S638      1.0  0.15220  0.80645  0.69545  1.0000
  Fe  Fe321     1.0  0.18408  0.83524  0.70316  1.0000
  S   S639      1.0  0.18725  0.84130  0.72250  1.0000
  S   S640      1.0  0.17928  0.82704  0.66835  1.0000
  S   S641      1.0  0.19569  0.84464  0.68107  1.0000
  Fe  Fe322     1.0  0.26902  0.88540  0.69869  1.0000
  S   S642      1.0  0.27960  0.86281  0.70765  1.0000
  S   S643      1.0  0.27804  0.89715  0.67644  1.0000
  Fe  Fe323     1.0  0.24472  0.88637  0.72532  1.0000
  S   S644      1.0  0.25338  0.86376  0.73634  1.0000
  S   S645      1.0  0.22346  0.89749  0.73693  1.0000
  Fe  Fe324     1.0  0.27479  0.87025  0.72838  1.0000
  S   S646      1.0  0.29218  0.86539  0.74085  1.0000
  Fe  Fe325     1.0  0.25734  0.85876  0.71440  1.0000
  S   S647      1.0  0.25365  0.83949  0.70907  1.0000
  S   S648      1.0  0.26591  0.89332  0.71907  1.0000
  S   S649      1.0  0.24688  0.88079  0.70393  1.0000
  Fe  Fe326     1.0  0.17771  0.74600  0.76399  1.0000
  H   H1827     1.0  0.17766  0.93490  0.77652  1.0000
  H   H1828     1.0  0.46545  0.64851  0.62716  1.0000
  C   C1820     1.0  0.14902  0.68243  0.76849  1.0000
  C   C1821     1.0  0.22644  0.62198  0.60114  1.0000
  C   C1822     1.0  0.16883  0.93484  0.77192  1.0000
  Fe  Fe327     1.0  0.30307  0.80122  0.66541  1.0000
  S   S650      1.0  0.31113  0.81105  0.64239  1.0000
  S   S651      1.0  0.28481  0.79038  0.66835  1.0000
  Fe  Fe328     1.0  0.32339  0.81244  0.67577  1.0000
  S   S652      1.0  0.33335  0.82317  0.65333  1.0000
  S   S653      1.0  0.32841  0.81692  0.69516  1.0000
  Fe  Fe329     1.0  0.31071  0.83047  0.65014  1.0000
  S   S654      1.0  0.30259  0.85177  0.63628  1.0000
  Fe  Fe330     1.0  0.33317  0.80276  0.64716  1.0000
  C   C1823     1.0  0.36746  0.77412  0.64147  1.0000
  S   S655      1.0  0.30056  0.82147  0.67303  1.0000
  S   S656      1.0  0.32517  0.79113  0.66988  1.0000
  N   N156      1.0  0.29154  0.55657  0.64615  1.0000
  Fe  Fe331     1.0  0.33033  0.74440  0.74274  1.0000
  S   S657      1.0  0.33146  0.72257  0.75757  1.0000
  S   S658      1.0  0.33229  0.76425  0.74866  1.0000
  Fe  Fe332     1.0  0.32303  0.73499  0.71920  1.0000
  S   S659      1.0  0.32323  0.71216  0.73167  1.0000
  S   S660      1.0  0.31908  0.74565  0.69693  1.0000
  Fe  Fe333     1.0  0.31149  0.72248  0.75069  1.0000
  Fe  Fe334     1.0  0.20712  0.96013  0.77458  1.0000
  Fe  Fe335     1.0  0.34311  0.71404  0.73754  1.0000
  S   S661      1.0  0.36287  0.69629  0.73775  1.0000
  S   S662      1.0  0.30930  0.74509  0.73762  1.0000
  S   S663      1.0  0.34404  0.73591  0.72334  1.0000
  Fe  Fe336     1.0  0.41154  0.66820  0.67293  1.0000
  S   S664      1.0  0.42003  0.65193  0.69134  1.0000
  S   S665      1.0  0.39424  0.68830  0.67432  1.0000
  Fe  Fe337     1.0  0.42884  0.65004  0.65075  1.0000
  S   S666      1.0  0.43841  0.63243  0.66739  1.0000
  S   S667      1.0  0.43552  0.64568  0.62835  1.0000
  Fe  Fe338     1.0  0.41597  0.63571  0.68091  1.0000
  S   S668      1.0  0.40378  0.61775  0.69234  1.0000
  Fe  Fe339     1.0  0.44173  0.65039  0.67573  1.0000
  S   S669      1.0  0.40634  0.65219  0.66356  1.0000
  S   S670      1.0  0.43313  0.66790  0.65809  1.0000
  Fe  Fe340     1.0  0.24514  0.68562  0.70118  1.0000
  S   S671      1.0  0.25977  0.66549  0.71019  1.0000
  S   S672      1.0  0.22212  0.68612  0.70217  1.0000
  Fe  Fe341     1.0  0.26807  0.70338  0.69227  1.0000
  S   S673      1.0  0.28482  0.68498  0.70085  1.0000
  S   S674      1.0  0.27070  0.72571  0.68059  1.0000
  Fe  Fe342     1.0  0.27630  0.67200  0.69049  1.0000
  S   S675      1.0  0.29024  0.65794  0.67521  1.0000
  S   S676      1.0  0.26086  0.69080  0.68049  1.0000
  S   S677      1.0  0.25078  0.70001  0.71210  1.0000
  Fe  Fe343     1.0  0.35888  0.58067  0.66120  1.0000
  S   S678      1.0  0.35176  0.56885  0.68396  1.0000
  S   S679      1.0  0.37683  0.59325  0.65366  1.0000
  Fe  Fe344     1.0  0.33351  0.57628  0.65112  1.0000
  S   S680      1.0  0.32448  0.56452  0.67325  1.0000
  S   S681      1.0  0.31960  0.58189  0.63457  1.0000
  Fe  Fe345     1.0  0.32958  0.58141  0.68146  1.0000
  S   S682      1.0  0.31452  0.59226  0.69913  1.0000
  Fe  Fe346     1.0  0.34738  0.55303  0.67334  1.0000
  S   S683      1.0  0.35130  0.52887  0.68205  1.0000
  S   S684      1.0  0.33697  0.59412  0.65929  1.0000
  S   S685      1.0  0.35631  0.56385  0.65057  1.0000
  C   C1824     1.0  0.29486  0.63940  0.68240  1.0000
  C   C1825     1.0  0.30082  0.63002  0.67280  1.0000
  C   C1826     1.0  0.30600  0.61533  0.67803  1.0000
  C   C1827     1.0  0.30569  0.61003  0.69283  1.0000
  C   C1828     1.0  0.29912  0.61929  0.70255  1.0000
  C   C1829     1.0  0.29364  0.63400  0.69735  1.0000
  H   H1829     1.0  0.30170  0.63413  0.66124  1.0000
  H   H1830     1.0  0.31028  0.60815  0.67057  1.0000
  H   H1831     1.0  0.29866  0.61518  0.71406  1.0000
  H   H1832     1.0  0.28901  0.64123  0.70481  1.0000
  H   H1833     1.0  0.35355  0.53336  0.65104  1.0000
  C   C1830     1.0  0.39501  0.61175  0.68200  1.0000
  C   C1831     1.0  0.39534  0.61807  0.66733  1.0000
  C   C1832     1.0  0.38910  0.61269  0.65905  1.0000
  C   C1833     1.0  0.38265  0.60073  0.66520  1.0000
  C   C1834     1.0  0.38199  0.59451  0.67996  1.0000
  C   C1835     1.0  0.38811  0.60005  0.68833  1.0000
  H   H1834     1.0  0.40081  0.62683  0.66215  1.0000
  H   H1835     1.0  0.38966  0.61758  0.64765  1.0000
  H   H1836     1.0  0.37718  0.58516  0.68481  1.0000
  H   H1837     1.0  0.38785  0.59499  0.69965  1.0000
  C   C1836     1.0  0.30588  0.73972  0.69244  1.0000
  C   C1837     1.0  0.30030  0.74745  0.68019  1.0000
  C   C1838     1.0  0.28964  0.74297  0.67645  1.0000
  C   C1839     1.0  0.28468  0.73063  0.68485  1.0000
  C   C1840     1.0  0.29025  0.72288  0.69710  1.0000
  C   C1841     1.0  0.30082  0.72747  0.70094  1.0000
  H   H1838     1.0  0.30413  0.75699  0.67368  1.0000
  H   H1839     1.0  0.28528  0.74904  0.66700  1.0000
  H   H1840     1.0  0.28627  0.71348  0.70373  1.0000
  H   H1841     1.0  0.30509  0.72149  0.71042  1.0000
  C   C1842     1.0  0.37178  0.69449  0.72008  1.0000
  C   C1843     1.0  0.38575  0.68610  0.71761  1.0000
  C   C1844     1.0  0.39270  0.68404  0.70358  1.0000
  C   C1845     1.0  0.38565  0.69032  0.69203  1.0000
  C   C1846     1.0  0.37160  0.69853  0.69455  1.0000
  C   C1847     1.0  0.36470  0.70073  0.70853  1.0000
  H   H1842     1.0  0.39123  0.68128  0.72655  1.0000
  H   H1843     1.0  0.40362  0.67791  0.70168  1.0000
  H   H1844     1.0  0.36602  0.70322  0.68567  1.0000
  H   H1845     1.0  0.35385  0.70707  0.71040  1.0000
  H   H1846     1.0  0.99918  0.74174  0.77406  1.0000
  H   H1847     1.0  0.24355  0.69007  0.59689  1.0000
  H   H1848     1.0  0.09773  0.85554  0.66984  1.0000
  C   C1848     1.0  0.24954  0.88290  0.76258  1.0000
  H   H1849     1.0  0.11964  0.82000  0.69807  1.0000
  C   C1849     1.0  0.34892  0.51824  0.67121  1.0000
  C   C1850     1.0  0.43722  0.66138  0.61503  1.0000
  H   H1850     1.0  0.41251  0.60647  0.61735  1.0000
  C   C1851     1.0  0.24419  0.84647  0.67495  1.0000
  C   C1852     1.0  0.28490  0.82751  0.77823  1.0000
  C   C1853     1.0  0.30390  0.77815  0.64684  1.0000
  C   C1854     1.0  0.33016  0.80209  0.70976  1.0000
  C   C1855     1.0  0.32976  0.80439  0.72343  1.0000
  C   C1856     1.0  0.33072  0.79270  0.73531  1.0000
  C   C1857     1.0  0.33210  0.77868  0.73356  1.0000
  C   C1858     1.0  0.33263  0.77638  0.71986  1.0000
  C   C1859     1.0  0.33170  0.78806  0.70797  1.0000
  H   H1851     1.0  0.32860  0.81519  0.72493  1.0000
  H   H1852     1.0  0.33029  0.79456  0.74588  1.0000
  H   H1853     1.0  0.33358  0.76565  0.71839  1.0000
  H   H1854     1.0  0.33217  0.78616  0.69746  1.0000
  H   H1855     1.0  0.36250  0.77858  0.65106  1.0000
  C   C1860     1.0  0.29064  0.84992  0.75446  1.0000
  C   C1861     1.0  0.28204  0.84078  0.75410  1.0000
  S   S686      1.0  0.21513  0.73528  0.77447  1.0000
  C   C1862     1.0  0.23563  0.77995  0.72596  1.0000
  H   H1856     1.0  0.42193  0.80256  0.59709  1.0000
  C   C1863     1.0  0.19310  0.92587  0.72547  1.0000
  H   H1857     1.0  0.27747  0.84244  0.74473  1.0000
  H   H1858     1.0  0.12237  0.87622  0.69130  1.0000
  C   C1864     1.0  0.10547  0.85123  0.67685  1.0000
  Fe  Fe347     1.0  0.24667  0.80164  0.77017  1.0000
  C   C1865     1.0  0.28612  0.88513  0.66470  1.0000
  C   C1866     1.0  0.29344  0.87123  0.66996  1.0000
  C   C1867     1.0  0.29907  0.86123  0.66100  1.0000
  C   C1868     1.0  0.29720  0.86500  0.64671  1.0000
  C   C1869     1.0  0.29030  0.87906  0.64117  1.0000
  C   C1870     1.0  0.28488  0.88918  0.65015  1.0000
  H   H1859     1.0  0.29510  0.86821  0.68086  1.0000
  H   H1860     1.0  0.30480  0.85057  0.66521  1.0000
  H   H1861     1.0  0.28891  0.88203  0.63006  1.0000
  H   H1862     1.0  0.27931  0.89998  0.64597  1.0000
  C   C1871     1.0  0.22443  0.91248  0.74291  1.0000
  C   C1872     1.0  0.21354  0.91744  0.75402  1.0000
  C   C1873     1.0  0.21389  0.92969  0.75864  1.0000
  C   C1874     1.0  0.22522  0.93693  0.75225  1.0000
  C   C1875     1.0  0.23616  0.93189  0.74120  1.0000
  C   C1876     1.0  0.23572  0.91973  0.73649  1.0000
  H   H1863     1.0  0.20480  0.91184  0.75903  1.0000
  H   H1864     1.0  0.15162  0.74106  0.59866  1.0000
  H   H1865     1.0  0.24487  0.93755  0.73612  1.0000
  H   H1866     1.0  0.24396  0.91624  0.72764  1.0000
  C   C1877     1.0  0.20575  0.84002  0.71992  1.0000
  C   C1878     1.0  0.21537  0.83064  0.71147  1.0000
  C   C1879     1.0  0.23017  0.82997  0.70886  1.0000
  C   C1880     1.0  0.23534  0.83911  0.71414  1.0000
  C   C1881     1.0  0.22574  0.84842  0.72271  1.0000
  C   C1882     1.0  0.21094  0.84867  0.72583  1.0000
  H   H1867     1.0  0.21144  0.82378  0.70706  1.0000
  H   H1868     1.0  0.23761  0.82259  0.70247  1.0000
  H   H1869     1.0  0.22971  0.85545  0.72688  1.0000
  H   H1870     1.0  0.20353  0.85580  0.73249  1.0000
  C   C1883     1.0  0.15854  0.92379  0.75853  1.0000
  C   C1884     1.0  0.16981  0.92375  0.76483  1.0000
  C   C1885     1.0  0.32452  0.81709  0.60508  1.0000
  Fe  Fe348     1.0  0.27620  0.54097  0.60060  1.0000
  H   H1871     1.0  0.33763  0.79413  0.59343  1.0000
  C   C1886     1.0  0.14616  0.93476  0.75964  1.0000
  C   C1887     1.0  0.29714  0.84728  0.76630  1.0000
  H   H1872     1.0  0.21040  0.78816  0.58879  1.0000
  H   H1873     1.0  0.45999  0.64259  0.70588  1.0000
  H   H1874     1.0  0.13746  0.93500  0.75473  1.0000
  C   C1888     1.0  0.15456  0.91026  0.67514  1.0000
  C   C1889     1.0  0.15487  0.91040  0.66071  1.0000
  C   C1890     1.0  0.15818  0.89738  0.65596  1.0000
  C   C1891     1.0  0.16152  0.88418  0.66554  1.0000
  C   C1892     1.0  0.16152  0.88400  0.67991  1.0000
  C   C1893     1.0  0.15798  0.89705  0.68471  1.0000
  H   H1875     1.0  0.15233  0.92056  0.65324  1.0000
  H   H1876     1.0  0.15822  0.89754  0.64483  1.0000
  H   H1877     1.0  0.16415  0.87383  0.68731  1.0000
  H   H1878     1.0  0.15818  0.89691  0.69569  1.0000
  C   C1894     1.0  0.08622  0.88154  0.70119  1.0000
  C   C1895     1.0  0.08543  0.87369  0.71547  1.0000
  C   C1896     1.0  0.09121  0.87759  0.72519  1.0000
  C   C1897     1.0  0.09760  0.88964  0.72090  1.0000
  C   C1898     1.0  0.09876  0.89740  0.70652  1.0000
  C   C1899     1.0  0.09308  0.89334  0.69669  1.0000
  H   H1879     1.0  0.07979  0.86498  0.71932  1.0000
  H   H1880     1.0  0.09023  0.87157  0.73630  1.0000
  H   H1881     1.0  0.10365  0.90674  0.70308  1.0000
  H   H1882     1.0  0.09373  0.89955  0.68567  1.0000
  C   C1900     1.0  0.17344  0.77196  0.66889  1.0000
  C   C1901     1.0  0.15892  0.77857  0.66951  1.0000
  C   C1902     1.0  0.15223  0.78869  0.67826  1.0000
  C   C1903     1.0  0.16020  0.79259  0.68597  1.0000
  C   C1904     1.0  0.17473  0.78599  0.68537  1.0000
  C   C1905     1.0  0.18130  0.77548  0.67700  1.0000
  H   H1883     1.0  0.15283  0.77582  0.66329  1.0000
  H   H1884     1.0  0.14104  0.79386  0.67866  1.0000
  H   H1885     1.0  0.18091  0.78900  0.69133  1.0000
  H   H1886     1.0  0.19254  0.77044  0.67643  1.0000
  C   C1906     1.0  0.23844  0.78369  0.64009  1.0000
  C   C1907     1.0  0.46784  0.68939  0.60753  1.0000
  C   C1908     1.0  0.34557  0.50462  0.67769  1.0000
  C   C1909     1.0  0.26897  0.74986  0.78133  1.0000
  C   C1910     1.0  0.46458  0.69903  0.61674  1.0000
  H   H1887     1.0  0.20893  0.75889  0.69265  1.0000
  C   C1911     1.0  0.10958  0.79312  0.65704  1.0000
  C   C1912     1.0  0.09636  0.80271  0.66005  1.0000
  C   C1913     1.0  0.09113  0.80611  0.67383  1.0000
  C   C1914     1.0  0.09916  0.79999  0.68464  1.0000
  C   C1915     1.0  0.11233  0.79036  0.68164  1.0000
  C   C1916     1.0  0.11753  0.78689  0.66789  1.0000
  H   H1888     1.0  0.09013  0.80753  0.65169  1.0000
  H   H1889     1.0  0.08082  0.81333  0.67609  1.0000
  H   H1890     1.0  0.11863  0.78579  0.68989  1.0000
  H   H1891     1.0  0.12771  0.77947  0.66565  1.0000
  C   C1917     1.0  0.32597  0.54999  0.60559  1.0000
  C   C1918     1.0  0.31416  0.56162  0.60593  1.0000
  C   C1919     1.0  0.31246  0.57146  0.61468  1.0000
  C   C1920     1.0  0.32229  0.56948  0.62350  1.0000
  C   C1921     1.0  0.33391  0.55763  0.62346  1.0000
  C   C1922     1.0  0.33584  0.54800  0.61436  1.0000
  H   H1892     1.0  0.03453  0.79584  0.76140  1.0000
  C   C1923     1.0  0.46902  0.67459  0.61343  1.0000
  H   H1893     1.0  0.34152  0.55601  0.63025  1.0000
  H   H1894     1.0  0.34500  0.53902  0.61412  1.0000
  C   C1924     1.0  0.22183  0.67808  0.65861  1.0000
  C   C1925     1.0  0.21850  0.66787  0.67128  1.0000
  C   C1926     1.0  0.21803  0.67060  0.68477  1.0000
  C   C1927     1.0  0.22123  0.68340  0.68553  1.0000
  C   C1928     1.0  0.22453  0.69364  0.67286  1.0000
  C   C1929     1.0  0.22457  0.69109  0.65942  1.0000
  H   H1895     1.0  0.21641  0.65780  0.67070  1.0000
  H   H1896     1.0  0.21557  0.66263  0.69452  1.0000
  H   H1897     1.0  0.22709  0.70350  0.67340  1.0000
  H   H1898     1.0  0.22698  0.69906  0.64966  1.0000
  C   C1930     1.0  0.18134  0.64992  0.61405  1.0000
  C   C1931     1.0  0.18873  0.66098  0.61167  1.0000
  C   C1932     1.0  0.15721  0.72275  0.58852  1.0000
  H   H1899     1.0  0.19559  0.67946  0.59665  1.0000
  H   H1900     1.0  0.25685  0.74602  0.74049  1.0000
  C   C1933     1.0  0.17424  0.64944  0.60357  1.0000
  H   H1901     1.0  0.19380  0.66170  0.61994  1.0000
  H   H1902     1.0  0.13532  0.95391  0.76795  1.0000
  H   H1903     1.0  0.31522  0.77266  0.77448  1.0000
  H   H1904     1.0  0.16840  0.64097  0.60545  1.0000
  C   C1934     1.0  0.25415  0.59499  0.62319  1.0000
  C   C1935     1.0  0.26639  0.58843  0.61425  1.0000
  C   C1936     1.0  0.26751  0.57449  0.61225  1.0000
  C   C1937     1.0  0.25634  0.56712  0.61912  1.0000
  C   C1938     1.0  0.24414  0.57369  0.62809  1.0000
  C   C1939     1.0  0.24303  0.58760  0.63010  1.0000
  H   H1905     1.0  0.27510  0.59405  0.60899  1.0000
  H   H1906     1.0  0.27708  0.56941  0.60557  1.0000
  H   H1907     1.0  0.23553  0.56797  0.63352  1.0000
  H   H1908     1.0  0.23363  0.59250  0.63712  1.0000
  C   C1940     1.0  0.03421  0.83150  0.75700  1.0000
  C   C1941     1.0  0.03879  0.81732  0.75482  1.0000
  H   H1909     1.0  0.04862  0.81436  0.74714  1.0000
  C   C1942     1.0  0.14101  0.69478  0.67094  1.0000
  C   C1943     1.0  0.13965  0.69154  0.65830  1.0000
  C   C1944     1.0  0.14408  0.70019  0.64471  1.0000
  C   C1945     1.0  0.14965  0.71221  0.64378  1.0000
  C   C1946     1.0  0.15139  0.71518  0.65638  1.0000
  C   C1947     1.0  0.14709  0.70647  0.66995  1.0000
  H   H1910     1.0  0.13494  0.68252  0.65901  1.0000
  H   H1911     1.0  0.14277  0.69781  0.63498  1.0000
  H   H1912     1.0  0.15611  0.72413  0.65571  1.0000
  H   H1913     1.0  0.14825  0.70900  0.67964  1.0000
  C   C1948     1.0  0.18563  0.64730  0.72191  1.0000
  C   C1949     1.0  0.18823  0.65270  0.70691  1.0000
  C   C1950     1.0  0.19472  0.64329  0.69733  1.0000
  C   C1951     1.0  0.19863  0.62843  0.70270  1.0000
  C   C1952     1.0  0.19611  0.62304  0.71770  1.0000
  C   C1953     1.0  0.18976  0.63247  0.72729  1.0000
  H   H1914     1.0  0.18561  0.66416  0.70265  1.0000
  H   H1915     1.0  0.19667  0.64756  0.68582  1.0000
  H   H1916     1.0  0.19910  0.61154  0.72193  1.0000
  H   H1917     1.0  0.18790  0.62823  0.73889  1.0000
  H   H1918     1.0  0.24555  0.78966  0.67580  1.0000
  C   C1954     1.0  0.35093  0.52290  0.65614  1.0000
  C   C1955     1.0  0.35001  0.51384  0.64759  1.0000
  N   N157      1.0  0.31987  0.85954  0.69919  1.0000
  C   C1956     1.0  0.32687  0.85712  0.68568  1.0000
  C   C1957     1.0  0.31239  0.87308  0.70094  1.0000
  C   C1958     1.0  0.32679  0.86850  0.67352  1.0000
  C   C1959     1.0  0.31194  0.88468  0.68899  1.0000
  C   C1960     1.0  0.31926  0.88236  0.67522  1.0000
  C   C1961     1.0  0.31967  0.84734  0.71166  1.0000
  H   H1919     1.0  0.33241  0.84628  0.68424  1.0000
  H   H1920     1.0  0.30649  0.87494  0.71157  1.0000
  H   H1921     1.0  0.33212  0.86648  0.66279  1.0000
  H   H1922     1.0  0.30556  0.89530  0.69032  1.0000
  H   H1923     1.0  0.31860  0.89119  0.66582  1.0000
  H   H1924     1.0  0.31744  0.85095  0.72207  1.0000
  H   H1925     1.0  0.31125  0.84153  0.71206  1.0000
  H   H1926     1.0  0.33024  0.83961  0.71080  1.0000
  C   C1962     1.0  0.06156  0.90670  0.72239  1.0000
  H   H1927     1.0  0.26667  0.85966  0.68116  1.0000
  H   H1928     1.0  0.27245  0.82260  0.76569  1.0000
  Fe  Fe349     1.0  0.26611  0.75808  0.58757  1.0000
  H   H1929     1.0  0.25163  0.72889  0.66122  1.0000
  Fe  Fe350     1.0  0.29257  0.51223  0.59215  1.0000
  N   N158      1.0  0.35385  0.74336  0.66525  1.0000
  C   C1963     1.0  0.35626  0.74329  0.67845  1.0000
  C   C1964     1.0  0.36391  0.73550  0.65608  1.0000
  C   C1965     1.0  0.36918  0.73551  0.68260  1.0000
  C   C1966     1.0  0.37695  0.72761  0.65987  1.0000
  C   C1967     1.0  0.37962  0.72773  0.67316  1.0000
  C   C1968     1.0  0.34021  0.75139  0.66105  1.0000
  H   H1930     1.0  0.34818  0.74924  0.68590  1.0000
  H   H1931     1.0  0.36202  0.73550  0.64563  1.0000
  H   H1932     1.0  0.37099  0.73532  0.69315  1.0000
  H   H1933     1.0  0.38500  0.72147  0.65254  1.0000
  H   H1934     1.0  0.38964  0.72148  0.67627  1.0000
  H   H1935     1.0  0.33443  0.75951  0.66781  1.0000
  H   H1936     1.0  0.34212  0.75734  0.64956  1.0000
  H   H1937     1.0  0.33303  0.74383  0.66256  1.0000
  C   C1969     1.0  0.20978  0.81064  0.75118  1.0000
  C   C1970     1.0  0.04890  0.89295  0.71481  1.0000
  C   C1971     1.0  0.47167  0.74846  0.59400  1.0000
  C   C1972     1.0  0.26249  0.87857  0.76734  1.0000
  H   H1938     1.0  0.33606  0.50903  0.61242  1.0000
  H   H1939     1.0  0.07422  0.73570  0.77422  1.0000
  H   H1940     1.0  0.24564  0.79961  0.64636  1.0000
  S   S687      1.0  0.41314  0.76119  0.58855  1.0000
  C   C1973     1.0  0.29187  0.54659  0.63849  1.0000
  N   N159      1.0  0.18906  0.94015  0.72917  1.0000
  C   C1974     1.0  0.05548  0.90467  0.71187  1.0000
  C   C1975     1.0  0.20422  0.79815  0.75675  1.0000
  H   H1941     1.0  0.40956  0.79106  0.59967  1.0000
  H   H1942     1.0  0.22833  0.87887  0.76583  1.0000
  C   C1976     1.0  0.27845  0.74059  0.77255  1.0000
  H   H1943     1.0  0.40709  0.58460  0.63574  1.0000
  H   H1944     1.0  0.26599  0.77007  0.68280  1.0000
  C   C1977     1.0  0.41318  0.59136  0.63778  1.0000
  C   C1978     1.0  0.18107  0.96602  0.73866  1.0000
  C   C1979     1.0  0.28942  0.78182  0.65364  1.0000
  H   H1945     1.0  0.23549  0.85304  0.68131  1.0000
  H   H1946     1.0  0.27895  0.84421  0.65849  1.0000
  C   C1980     1.0  0.41749  0.58816  0.65104  1.0000
  H   H1947     1.0  0.26598  0.76122  0.77677  1.0000
  N   N160      1.0  0.42440  0.59711  0.65403  1.0000
  C   C1981     1.0  0.30073  0.83173  0.61087  1.0000
  H   H1948     1.0  0.26422  0.49959  0.60865  1.0000
  H   H1949     1.0  0.28414  0.70585  0.73162  1.0000
  H   H1950     1.0  0.06719  0.91546  0.72003  1.0000
  N   N161      1.0  0.31867  0.80590  0.60501  1.0000
  C   C1982     1.0  0.48965  0.76797  0.58904  1.0000
  C   C1983     1.0  0.30404  0.80724  0.60812  1.0000
  H   H1951     1.0  0.33611  0.81578  0.60330  1.0000
  C   C1984     1.0  0.11566  0.97241  0.69180  1.0000
  C   C1985     1.0  0.32821  0.79220  0.60232  1.0000
  S   S688      1.0  0.29374  0.71380  0.76766  1.0000
  C   C1986     1.0  0.22406  0.69091  0.77067  1.0000
  H   H1952     1.0  0.22718  0.61345  0.61078  1.0000
  C   C1987     1.0  0.18939  0.75880  0.58305  1.0000
  H   H1953     1.0  0.46912  0.69340  0.59588  1.0000
  C   C1988     1.0  0.24355  0.77945  0.68272  1.0000
  H   H1954     1.0  0.46338  0.71055  0.61227  1.0000
  H   H1955     1.0  0.24974  0.87017  0.67691  1.0000
  C   C1989     1.0  0.15639  0.94577  0.77307  1.0000
  H   H1956     1.0  0.44925  0.64949  0.59848  1.0000
  H   H1957     1.0  0.01165  0.86107  0.69176  1.0000
  H   H1958     1.0  0.25137  0.81541  0.66271  1.0000
  C   C1990     1.0  0.25645  0.70559  0.77763  1.0000
  H   H1959     1.0  0.23130  0.83128  0.67644  1.0000
  H   H1960     1.0  0.34220  0.59614  0.70261  1.0000
  H   H1961     1.0  0.15046  0.98349  0.72305  1.0000
  C   C1991     1.0  0.17311  0.74527  0.71840  1.0000
  S   S689      1.0  0.06076  0.75095  0.74981  1.0000
  H   H1962     1.0  0.28403  0.54851  0.63181  1.0000
  C   C1992     1.0  0.24515  0.69593  0.60410  1.0000
  C   C1993     1.0  0.26110  0.70399  0.61394  1.0000
  S   S690      1.0  0.28691  0.74455  0.59294  1.0000
  H   H1963     1.0  0.27418  0.77273  0.63074  1.0000
  C   C1994     1.0  0.23000  0.69988  0.75806  1.0000
  H   H1964     1.0  0.20428  0.77803  0.65009  1.0000
  C   C1995     1.0  0.48388  0.74453  0.60021  1.0000
  C   C1996     1.0  0.21143  0.79396  0.65650  1.0000
  Fe  Fe351     1.0  0.04586  0.75329  0.77135  1.0000
  H   H1965     1.0  0.13174  0.86156  0.70283  1.0000
  C   C1997     1.0  0.22312  0.80002  0.65548  1.0000
  H   H1966     1.0  0.02680  0.80654  0.70467  1.0000
  N   N162      1.0  0.37286  0.65573  0.70750  1.0000
  H   H1967     1.0  0.04454  0.89102  0.70653  1.0000
  H   H1968     1.0  0.23664  0.64303  0.70530  1.0000
  N   N163      1.0  0.16020  0.64269  0.68993  1.0000
  C   C1998     1.0  0.16835  0.62896  0.69224  1.0000
  C   C1999     1.0  0.15656  0.64896  0.67675  1.0000
  C   C2000     1.0  0.17318  0.62118  0.68115  1.0000
  C   C2001     1.0  0.16112  0.64144  0.66544  1.0000
  C   C2002     1.0  0.16947  0.62745  0.66770  1.0000
  C   C2003     1.0  0.15534  0.65088  0.70152  1.0000
  H   H1969     1.0  0.17139  0.62399  0.70262  1.0000
  H   H1970     1.0  0.15012  0.65985  0.67492  1.0000
  H   H1971     1.0  0.18001  0.61046  0.68292  1.0000
  H   H1972     1.0  0.15839  0.64646  0.65491  1.0000
  H   H1973     1.0  0.17322  0.62156  0.65897  1.0000
  H   H1974     1.0  0.15923  0.64477  0.71157  1.0000
  H   H1975     1.0  0.15941  0.66107  0.69788  1.0000
  H   H1976     1.0  0.14337  0.65372  0.70425  1.0000
  N   N164      1.0  0.14242  0.81836  0.62814  1.0000
  C   C2004     1.0  0.13172  0.81808  0.64035  1.0000
  C   C2005     1.0  0.15577  0.81979  0.62854  1.0000
  C   C2006     1.0  0.13441  0.81858  0.65356  1.0000
  C   C2007     1.0  0.15880  0.82049  0.64155  1.0000
  C   C2008     1.0  0.14804  0.81984  0.65412  1.0000
  C   C2009     1.0  0.13940  0.81761  0.61445  1.0000
  H   H1977     1.0  0.12106  0.81724  0.63996  1.0000
  H   H1978     1.0  0.16422  0.82019  0.61883  1.0000
  H   H1979     1.0  0.12604  0.81776  0.66332  1.0000
  H   H1980     1.0  0.16945  0.82141  0.64192  1.0000
  H   H1981     1.0  0.15030  0.82020  0.66432  1.0000
  H   H1982     1.0  0.14923  0.81249  0.60740  1.0000
  H   H1983     1.0  0.00909  0.82116  0.68322  1.0000
  H   H1984     1.0  0.13517  0.82862  0.60856  1.0000
  C   C2010     1.0  0.41611  0.60370  0.62752  1.0000
  H   H1985     1.0  0.31226  0.77952  0.65134  1.0000
  H   H1986     1.0  0.26555  0.86930  0.66279  1.0000
  C   C2011     1.0  0.25994  0.86294  0.67284  1.0000
  N   N165      1.0  0.25739  0.85007  0.66985  1.0000
  C   C2012     1.0  0.25280  0.50073  0.60824  1.0000
  H   H1987     1.0  0.32266  0.74990  0.58830  1.0000
  H   H1988     1.0  0.41473  0.57880  0.65912  1.0000
  H   H1989     1.0  0.46162  0.65176  0.64502  1.0000
  C   C2013     1.0  0.17060  0.95938  0.73761  1.0000
  H   H1990     1.0  0.49132  0.66054  0.67092  1.0000
  C   C2014     1.0  0.06109  0.89685  0.73571  1.0000
  H   H1991     1.0  0.38385  0.75816  0.65132  1.0000
  C   C2015     1.0  0.42875  0.59364  0.66802  1.0000
  H   H1992     1.0  0.32028  0.83891  0.60840  1.0000
  H   H1993     1.0  0.13894  0.73864  0.74784  1.0000
  H   H1994     1.0  0.30394  0.85425  0.76650  1.0000
  H   H1995     1.0  0.47531  0.64072  0.72321  1.0000
  C   C2016     1.0  0.27105  0.72680  0.73434  1.0000
  C   C2017     1.0  0.24555  0.67205  0.76723  1.0000
  H   H1996     1.0  0.32255  0.78536  0.59929  1.0000
  H   H1997     1.0  0.32087  0.52146  0.64793  1.0000
  C   C2018     1.0  0.21322  0.62806  0.59706  1.0000
  C   C2019     1.0  0.29419  0.83610  0.77825  1.0000
  C   C2020     1.0  0.06140  0.78838  0.70375  1.0000
  H   H1998     1.0  0.24842  0.73359  0.76567  1.0000
  N   N166      1.0  0.42882  0.78092  0.60790  1.0000
  C   C2021     1.0  0.28065  0.57006  0.64525  1.0000
  H   H1999     1.0  0.22265  0.67295  0.75194  1.0000
  N   N167      1.0  0.03526  0.79379  0.72314  1.0000
  C   C2022     1.0  0.04716  0.78537  0.72817  1.0000
  C   C2023     1.0  0.03613  0.79954  0.70864  1.0000
  C   C2024     1.0  0.06037  0.78245  0.71856  1.0000
  H   H2000     1.0  0.20172  0.82336  0.78207  1.0000
  H   H2001     1.0  0.15697  0.71816  0.77458  1.0000
  C   C2025     1.0  0.02175  0.79763  0.73341  1.0000
  H   H2002     1.0  0.04655  0.78090  0.73967  1.0000
  C   C2026     1.0  0.16093  0.67124  0.76610  1.0000
  C   C2027     1.0  0.28214  0.72577  0.77831  1.0000
  H   H2003     1.0  0.48638  0.73386  0.60689  1.0000
  H   H2004     1.0  0.02095  0.78935  0.74370  1.0000
  H   H2005     1.0  0.02115  0.80821  0.73595  1.0000
  H   H2006     1.0  0.01232  0.79851  0.72875  1.0000
  N   N168      1.0  0.18704  0.69876  0.64145  1.0000
  C   C2028     1.0  0.18788  0.71292  0.63911  1.0000
  C   C2029     1.0  0.18714  0.69003  0.65489  1.0000
  C   C2030     1.0  0.18829  0.71881  0.65056  1.0000
  C   C2031     1.0  0.18777  0.69549  0.66651  1.0000
  C   C2032     1.0  0.18812  0.71002  0.66438  1.0000
  C   C2033     1.0  0.18665  0.69262  0.62944  1.0000
  H   H2007     1.0  0.18815  0.71970  0.62834  1.0000
  H   H2008     1.0  0.18705  0.67869  0.65659  1.0000
  H   H2009     1.0  0.18869  0.73010  0.64877  1.0000
  H   H2010     1.0  0.18835  0.68838  0.67700  1.0000
  H   H2011     1.0  0.18840  0.71440  0.67339  1.0000
  H   H2012     1.0  0.17828  0.68602  0.63280  1.0000
  H   H2013     1.0  0.18402  0.70120  0.61994  1.0000
  H   H2014     1.0  0.19738  0.68581  0.62594  1.0000
  S   S691      1.0  0.14341  0.93746  0.71792  1.0000
  C   C2034     1.0  0.19559  0.95959  0.73497  1.0000
  H   H2015     1.0  0.23066  0.75892  0.75991  1.0000
  H   H2016     1.0  0.37801  0.49361  0.65904  1.0000
  H   H2017     1.0  0.34802  0.60903  0.70887  1.0000
  C   C2035     1.0  0.47006  0.64622  0.70200  1.0000
  C   C2036     1.0  0.19941  0.94658  0.73019  1.0000
  H   H2018     1.0  0.41126  0.77032  0.61817  1.0000
  C   C2037     1.0  0.34435  0.49564  0.66914  1.0000
  H   H2019     1.0  0.34389  0.50101  0.68936  1.0000
  N   N169      1.0  0.28382  0.80035  0.72232  1.0000
  C   C2038     1.0  0.27403  0.80163  0.71414  1.0000
  C   C2039     1.0  0.29579  0.78943  0.72195  1.0000
  C   C2040     1.0  0.27635  0.79212  0.70491  1.0000
  C   C2041     1.0  0.29849  0.77976  0.71278  1.0000
  C   C2042     1.0  0.28873  0.78117  0.70418  1.0000
  C   C2043     1.0  0.28143  0.81043  0.73186  1.0000
  H   H2020     1.0  0.26433  0.80999  0.71478  1.0000
  H   H2021     1.0  0.30334  0.78824  0.72870  1.0000
  H   H2022     1.0  0.26867  0.79332  0.69828  1.0000
  H   H2023     1.0  0.30813  0.77128  0.71224  1.0000
  H   H2024     1.0  0.29083  0.77381  0.69692  1.0000
  H   H2025     1.0  0.27249  0.81985  0.72966  1.0000
  H   H2026     1.0  0.27847  0.80486  0.74336  1.0000
  H   H2027     1.0  0.29128  0.81467  0.73023  1.0000
  C   C2044     1.0  0.22090  0.74656  0.59625  1.0000
  H   H2028     1.0  0.05629  0.91187  0.70127  1.0000
  H   H2029     1.0  0.20527  0.93364  0.76694  1.0000
  H   H2030     1.0  0.42605  0.78905  0.58625  1.0000
  H   H2031     1.0  0.06316  0.86448  0.74967  1.0000
  H   H2032     1.0  0.29379  0.84173  0.61346  1.0000
  C   C2045     1.0  0.46866  0.65396  0.63409  1.0000
  H   H2033     1.0  0.45001  0.75218  0.63452  1.0000
  C   C2046     1.0  0.45057  0.77090  0.61705  1.0000
  S   S692      1.0  0.29391  0.48839  0.60111  1.0000
  H   H2034     1.0  0.15064  0.95709  0.67994  1.0000
  N   N170      1.0  0.20943  0.76859  0.60463  1.0000
  C   C2047     1.0  0.25195  0.50101  0.58326  1.0000
  H   H2035     1.0  0.06975  0.77578  0.72265  1.0000
  H   H2036     1.0  0.24889  0.62237  0.59620  1.0000
  N   N171      1.0  0.13117  0.76550  0.71030  1.0000
  C   C2048     1.0  0.13942  0.75888  0.69927  1.0000
  C   C2049     1.0  0.11708  0.76443  0.71548  1.0000
  C   C2050     1.0  0.13371  0.75068  0.69335  1.0000
  C   C2051     1.0  0.11098  0.75637  0.70975  1.0000
  C   C2052     1.0  0.11938  0.74944  0.69863  1.0000
  C   C2053     1.0  0.13716  0.77435  0.71621  1.0000
  H   H2037     1.0  0.15062  0.75962  0.69518  1.0000
  H   H2038     1.0  0.11042  0.76998  0.72397  1.0000
  H   H2039     1.0  0.14045  0.74518  0.68485  1.0000
  H   H2040     1.0  0.09982  0.75553  0.71391  1.0000
  H   H2041     1.0  0.11484  0.74305  0.69415  1.0000
  H   H2042     1.0  0.13443  0.77178  0.72826  1.0000
  H   H2043     1.0  0.14911  0.77238  0.71295  1.0000
  H   H2044     1.0  0.13282  0.78600  0.71221  1.0000
  H   H2045     1.0  0.16320  0.88022  0.74880  1.0000
  C   C2054     1.0  0.47878  0.64515  0.71180  1.0000
  C   C2055     1.0  0.27129  0.70529  0.75327  1.0000
  S   S693      1.0  0.21608  0.70651  0.60886  1.0000
  H   H2046     1.0  0.28506  0.57865  0.63664  1.0000
  C   C2056     1.0  0.46284  0.69375  0.63170  1.0000
  H   H2047     1.0  0.10497  0.97022  0.69394  1.0000
  H   H2048     1.0  0.27490  0.73225  0.72334  1.0000
  H   H2049     1.0  0.23951  0.73521  0.64908  1.0000
  C   C2057     1.0  0.38604  0.75693  0.62909  1.0000
  H   H2050     1.0  0.47998  0.64909  0.63512  1.0000
  H   H2051     1.0  0.30272  0.52588  0.63308  1.0000
  S   S694      1.0  0.04718  0.77061  0.78179  1.0000
  S   S695      1.0  0.15570  0.75110  0.75923  1.0000
  S   S696      1.0  0.20675  0.69689  0.78041  1.0000
  S   S697      1.0  0.27805  0.70732  0.61227  1.0000
  C   C2058     1.0  0.07720  0.73855  0.75108  1.0000
  C   C2059     1.0  0.24055  0.79085  0.72884  1.0000
  N   N172      1.0  0.33840  0.61787  0.69052  1.0000
  H   H2052     1.0  0.20450  0.77202  0.70399  1.0000
  N   N173      1.0  0.17654  0.87896  0.72782  1.0000
  C   C2060     1.0  0.18663  0.88517  0.72979  1.0000
  C   C2061     1.0  0.17713  0.87654  0.71449  1.0000
  C   C2062     1.0  0.19768  0.88911  0.71820  1.0000
  C   C2063     1.0  0.18799  0.88041  0.70265  1.0000
  C   C2064     1.0  0.19833  0.88671  0.70456  1.0000
  C   C2065     1.0  0.16575  0.87378  0.74029  1.0000
  H   H2053     1.0  0.18626  0.88696  0.74040  1.0000
  H   H2054     1.0  0.16941  0.87120  0.71305  1.0000
  H   H2055     1.0  0.20581  0.89377  0.71985  1.0000
  H   H2056     1.0  0.18846  0.87831  0.69215  1.0000
  H   H2057     1.0  0.20692  0.88959  0.69551  1.0000
  S   S698      1.0  0.32872  0.53807  0.59399  1.0000
  C   C2066     1.0  0.29485  0.82018  0.61102  1.0000
  H   H2058     1.0  0.30659  0.56330  0.59909  1.0000
  Fe  Fe352     1.0  0.11952  0.94248  0.72594  1.0000
  C   C2067     1.0  0.27872  0.77949  0.64806  1.0000
  H   H2059     1.0  0.32907  0.60853  0.71213  1.0000
  Fe  Fe353     1.0  0.04614  0.84035  0.69631  1.0000
  H   H2060     1.0  0.34379  0.51079  0.58579  1.0000
  C   C2068     1.0  0.17481  0.94646  0.73267  1.0000
  H   H2061     1.0  0.22059  0.78575  0.68483  1.0000
  S   S699      1.0  0.26310  0.77321  0.60229  1.0000
  Fe  Fe354     1.0  0.20918  0.74724  0.75324  1.0000
  C   C2069     1.0  0.25305  0.82516  0.66467  1.0000
  C   C2070     1.0  0.34625  0.61423  0.67773  1.0000
  C   C2071     1.0  0.34559  0.62412  0.66455  1.0000
  C   C2072     1.0  0.32890  0.64153  0.67762  1.0000
  C   C2073     1.0  0.33672  0.63781  0.66451  1.0000
  H   H2062     1.0  0.35284  0.60348  0.67764  1.0000
  H   H2063     1.0  0.35172  0.62101  0.65444  1.0000
  H   H2064     1.0  0.32168  0.65203  0.67768  1.0000
  H   H2065     1.0  0.33574  0.64545  0.65434  1.0000
  C   C2074     1.0  0.08124  0.73267  0.76447  1.0000
  C   C2075     1.0  0.24920  0.71161  0.62228  1.0000
  S   S700      1.0  0.11494  0.93147  0.71062  1.0000
  C   C2076     1.0  0.48773  0.65630  0.68235  1.0000
  H   H2066     1.0  0.24824  0.89174  0.75331  1.0000
  H   H2067     1.0  0.27739  0.57372  0.65570  1.0000
  H   H2068     1.0  0.26100  0.74696  0.69895  1.0000
  H   H2069     1.0  0.13760  0.96503  0.72295  1.0000
  C   C2077     1.0  0.33891  0.50190  0.59257  1.0000
  S   S701      1.0  0.27079  0.74362  0.62756  1.0000
  H   H2070     1.0  0.24783  0.51245  0.60583  1.0000
  C   C2078     1.0  0.31242  0.54167  0.65497  1.0000
  C   C2079     1.0  0.33677  0.49146  0.58644  1.0000
  N   N174      1.0  0.22924  0.73324  0.67137  1.0000
  C   C2080     1.0  0.23181  0.72557  0.68466  1.0000
  C   C2081     1.0  0.21541  0.73822  0.66928  1.0000
  C   C2082     1.0  0.22046  0.72212  0.69609  1.0000
  C   C2083     1.0  0.20382  0.73484  0.68050  1.0000
  C   C2084     1.0  0.20643  0.72657  0.69389  1.0000
  C   C2085     1.0  0.24131  0.73642  0.65943  1.0000
  N   N175      1.0  0.26149  0.71301  0.76272  1.0000
  H   H2071     1.0  0.21329  0.74471  0.65887  1.0000
  H   H2072     1.0  0.30357  0.58070  0.61453  1.0000
  H   H2073     1.0  0.19285  0.73847  0.67886  1.0000
  H   H2074     1.0  0.19763  0.72347  0.70254  1.0000
  Fe  Fe355     1.0  0.30836  0.53592  0.58917  1.0000
  S   S702      1.0  0.46466  0.65258  0.67410  1.0000
  C   C2086     1.0  0.20222  0.81632  0.77497  1.0000
  C   C2087     1.0  0.25224  0.75545  0.69559  1.0000
  C   C2088     1.0  0.25500  0.76850  0.68666  1.0000
  H   H2075     1.0  0.20386  0.96443  0.73615  1.0000
  C   C2089     1.0  0.26848  0.84142  0.66234  1.0000
  H   H2076     1.0  0.27541  0.82185  0.65391  1.0000
  C   C2090     1.0  0.24212  0.79014  0.74286  1.0000
  H   H2077     1.0  0.17768  0.75541  0.73331  1.0000
  H   H2078     1.0  0.43318  0.61614  0.64618  1.0000
  H   H2079     1.0  0.19373  0.78507  0.77583  1.0000
  H   H2080     1.0  0.46489  0.74084  0.59590  1.0000
  C   C2091     1.0  0.36119  0.66478  0.71387  1.0000
  C   C2092     1.0  0.30989  0.74655  0.77878  1.0000
  C   C2093     1.0  0.37952  0.76259  0.64159  1.0000
  C   C2094     1.0  0.11662  0.97711  0.73079  1.0000
  C   C2095     1.0  0.01217  0.84043  0.68765  1.0000
  N   N176      1.0  0.26202  0.66108  0.64373  1.0000
  C   C2096     1.0  0.26864  0.65011  0.65326  1.0000
  C   C2097     1.0  0.25868  0.65829  0.63213  1.0000
  C   C2098     1.0  0.27222  0.63589  0.65127  1.0000
  C   C2099     1.0  0.26206  0.64418  0.62983  1.0000
  C   C2100     1.0  0.26897  0.63295  0.63943  1.0000
  C   C2101     1.0  0.25922  0.67597  0.64560  1.0000
  H   H2081     1.0  0.27116  0.65233  0.66249  1.0000
  H   H2082     1.0  0.25320  0.66697  0.62472  1.0000
  H   H2083     1.0  0.27748  0.62722  0.65887  1.0000
  H   H2084     1.0  0.25920  0.64191  0.62079  1.0000
  H   H2085     1.0  0.27164  0.62194  0.63778  1.0000
  H   H2086     1.0  0.25536  0.67649  0.65725  1.0000
  H   H2087     1.0  0.26921  0.68032  0.64125  1.0000
  H   H2088     1.0  0.25074  0.68306  0.63982  1.0000
  H   H2089     1.0  0.43967  0.58660  0.66730  1.0000
  H   H2090     1.0  0.42101  0.58811  0.67679  1.0000
  C   C2102     1.0  0.27920  0.82955  0.76597  1.0000
  C   C2103     1.0  0.44486  0.66008  0.60103  1.0000
  H   H2091     1.0  0.21515  0.81306  0.73988  1.0000
  N   N177      1.0  0.11749  0.98466  0.69468  1.0000
  H   H2092     1.0  0.21360  0.82924  0.75608  1.0000
  H   H2093     1.0  0.12513  0.75020  0.77017  1.0000
  H   H2094     1.0  0.15548  0.87475  0.73701  1.0000
  H   H2095     1.0  0.24434  0.65305  0.74973  1.0000
  C   C2104     1.0  0.47457  0.65171  0.68720  1.0000
  H   H2096     1.0  0.28327  0.82114  0.61362  1.0000
  C   C2105     1.0  0.30176  0.55435  0.65412  1.0000
  S   S703      1.0  0.04486  0.85852  0.70698  1.0000
  C   C2106     1.0  0.10794  0.83664  0.68355  1.0000
  C   C2107     1.0  0.22947  0.77714  0.68777  1.0000
  S   S704      1.0  0.16837  0.72955  0.70134  1.0000
  S   S705      1.0  0.11977  0.70599  0.75428  1.0000
  C   C2108     1.0  0.34678  0.50018  0.65404  1.0000
  C   C2109     1.0  0.32995  0.63139  0.69062  1.0000
  H   H2097     1.0  0.42877  0.60362  0.67139  1.0000
  C   C2110     1.0  0.16676  0.71176  0.76867  1.0000
  C   C2111     1.0  0.28247  0.77411  0.63530  1.0000
  C   C2112     1.0  0.03088  0.80682  0.76296  1.0000
  H   H2098     1.0  0.14400  0.73017  0.72508  1.0000
  S   S706      1.0  0.10714  0.96475  0.72934  1.0000
  H   H2099     1.0  0.17569  0.71053  0.77419  1.0000
  H   H2100     1.0  0.32358  0.63425  0.70073  1.0000
  S   S707      1.0  0.19000  0.76257  0.76275  1.0000
  C   C2113     1.0  0.29691  0.77096  0.62824  1.0000
  C   C2114     1.0  0.23528  0.71167  0.62129  1.0000
  H   H2101     1.0  0.18399  0.66473  0.76287  1.0000
  Fe  Fe356     1.0  0.26667  0.68034  0.71979  1.0000
  C   C2115     1.0  0.26404  0.86709  0.77925  1.0000
  H   H2102     1.0  0.20432  0.67632  0.73729  1.0000
  C   C2116     1.0  0.15137  0.73570  0.72677  1.0000
  H   H2103     1.0  0.18265  0.74705  0.71023  1.0000
  H   H2104     1.0  0.12398  0.97684  0.77935  1.0000
  C   C2117     1.0  0.27624  0.71205  0.73896  1.0000
  C   C2118     1.0  0.33954  0.60744  0.70423  1.0000
  S   S708      1.0  0.03095  0.83367  0.68652  1.0000
  C   C2119     1.0  0.09433  0.72270  0.76529  1.0000
  C   C2120     1.0  0.16391  0.73763  0.71634  1.0000
  H   H2105     1.0  0.04989  0.80195  0.68730  1.0000
  C   C2121     1.0  0.02167  0.83523  0.76717  1.0000
  H   H2106     1.0  0.13223  0.98103  0.76052  1.0000
  C   C2122     1.0  0.10350  0.71862  0.75274  1.0000
  C   C2123     1.0  0.09955  0.72463  0.73931  1.0000
  H   H2107     1.0  0.08320  0.73890  0.72816  1.0000
  H   H2108     1.0  0.10644  0.72141  0.72961  1.0000
  H   H2109     1.0  0.24055  0.77745  0.76465  1.0000
  H   H2110     1.0  0.20436  0.92375  0.71919  1.0000
  C   C2124     1.0  0.21209  0.76201  0.70130  1.0000
  H   H2111     1.0  0.23613  0.74316  0.70707  1.0000
  H   H2112     1.0  0.26753  0.78222  0.65330  1.0000
  C   C2125     1.0  0.42762  0.60906  0.64390  1.0000
  C   C2126     1.0  0.08640  0.73456  0.73850  1.0000
  C   C2127     1.0  0.44157  0.68613  0.59366  1.0000
  N   N178      1.0  0.22690  0.76427  0.69645  1.0000
  C   C2128     1.0  0.23811  0.75338  0.70014  1.0000
  H   H2113     1.0  0.21092  0.75346  0.71134  1.0000
  C   C2129     1.0  0.25118  0.68075  0.75421  1.0000
  C   C2130     1.0  0.14839  0.74068  0.73961  1.0000
  C   C2131     1.0  0.33451  0.50097  0.60751  1.0000
  H   H2114     1.0  0.09727  0.71799  0.77572  1.0000
  C   C2132     1.0  0.43155  0.67509  0.61832  1.0000
  C   C2133     1.0  0.25912  0.69568  0.60526  1.0000
  C   C2134     1.0  0.31266  0.53132  0.64744  1.0000
  H   H2115     1.0  0.46307  0.67484  0.64886  1.0000
  C   C2135     1.0  0.42344  0.61259  0.63054  1.0000
  S   S709      1.0  0.40135  0.74283  0.62902  1.0000
  C   C2136     1.0  0.24179  0.83407  0.67231  1.0000
  C   C2137     1.0  0.21246  0.63902  0.58466  1.0000
  S   S710      1.0  0.02189  0.76005  0.77279  1.0000
  H   H2116     1.0  0.27550  0.69385  0.75686  1.0000
  H   H2117     1.0  0.21072  0.94152  0.72760  1.0000
  H   H2118     1.0  0.24808  0.70186  0.74026  1.0000
  S   S711      1.0  0.25749  0.54958  0.61707  1.0000
  H   H2119     1.0  0.42453  0.75199  0.63536  1.0000
  H   H2120     1.0  0.18753  0.75428  0.59451  1.0000
  C   C2138     1.0  0.04920  0.79694  0.69873  1.0000
  H   H2121     1.0  0.01810  0.84620  0.76882  1.0000
  C   C2139     1.0  0.46833  0.76219  0.58528  1.0000
  S   S712      1.0  0.26620  0.78895  0.77888  1.0000
  C   C2140     1.0  0.46430  0.67887  0.63722  1.0000
  N   N179      1.0  0.46704  0.66953  0.62813  1.0000
  C   C2141     1.0  0.17637  0.68665  0.76623  1.0000
  H   H2122     1.0  0.42546  0.67615  0.62908  1.0000
  C   C2142     1.0  0.23191  0.67704  0.77534  1.0000
  H   H2123     1.0  0.42570  0.62230  0.62270  1.0000
  C   C2143     1.0  0.26651  0.82882  0.65967  1.0000
  S   S713      1.0  0.26763  0.67392  0.74342  1.0000
  S   S714      1.0  0.17522  0.78488  0.59011  1.0000
  C   C2144     1.0  0.23328  0.70413  0.61196  1.0000
  C   C2145     1.0  0.21354  0.77647  0.59101  1.0000
  H   H2124     1.0  0.24255  0.74764  0.65821  1.0000
  H   H2125     1.0  0.24272  0.72176  0.68635  1.0000
  H   H2126     1.0  0.19221  0.91741  0.73562  1.0000
  H   H2127     1.0  0.22416  0.71071  0.75453  1.0000
  C   C2146     1.0  0.43364  0.68752  0.60757  1.0000
  Fe  Fe357     1.0  0.28278  0.75820  0.60929  1.0000
  H   H2128     1.0  0.20996  0.74753  0.61818  1.0000
  C   C2147     1.0  0.44277  0.78116  0.60744  1.0000
  C   C2148     1.0  0.23345  0.76777  0.75120  1.0000
  H   H2129     1.0  0.37989  0.66407  0.68518  1.0000
  H   H2130     1.0  0.36404  0.65655  0.68946  1.0000
  H   H2131     1.0  0.32057  0.53996  0.66124  1.0000
  S   S715      1.0  0.22499  0.75537  0.73369  1.0000
  H   H2132     1.0  0.27075  0.56868  0.64279  1.0000
  C   C2149     1.0  0.37460  0.65523  0.69226  1.0000
  H   H2133     1.0  0.11041  0.87184  0.67463  1.0000
  C   C2150     1.0  0.23000  0.63826  0.71566  1.0000
  H   H2134     1.0  0.24733  0.63679  0.73314  1.0000
  H   H2135     1.0  0.39270  0.64083  0.70989  1.0000
  H   H2136     1.0  0.21969  0.63763  0.71347  1.0000
  H   H2137     1.0  0.29940  0.79822  0.60853  1.0000
  C   C2151     1.0  0.23182  0.76856  0.73720  1.0000
  C   C2152     1.0  0.38330  0.64781  0.71502  1.0000
  H   H2138     1.0  0.35326  0.67160  0.70772  1.0000
  C   C2153     1.0  0.15807  0.74742  0.74213  1.0000
  C   C2154     1.0  0.37015  0.65778  0.73599  1.0000
  H   H2139     1.0  0.20101  0.79782  0.66291  1.0000
  C   C2155     1.0  0.35953  0.66574  0.72827  1.0000
  H   H2140     1.0  0.39057  0.64268  0.73518  1.0000
  C   C2156     1.0  0.38212  0.64873  0.72936  1.0000
  H   H2141     1.0  0.35047  0.67322  0.73319  1.0000
  S   S716      1.0  0.22157  0.81318  0.66529  1.0000
  H   H2142     1.0  0.38128  0.64473  0.68989  1.0000
  H   H2143     1.0  0.36928  0.65904  0.74693  1.0000
  H   H2144     1.0  0.13933  0.86580  0.68354  1.0000
  H   H2145     1.0  0.16982  0.86223  0.74493  1.0000
  N   N180      1.0  0.22752  0.64717  0.72636  1.0000
  C   C2157     1.0  0.23768  0.64520  0.73435  1.0000
  C   C2158     1.0  0.30240  0.53380  0.63910  1.0000
  H   H2146     1.0  0.15383  0.97943  0.68527  1.0000
  C   C2159     1.0  0.24349  0.69477  0.74981  1.0000
  H   H2147     1.0  0.13210  0.83666  0.70267  1.0000
  H   H2148     1.0  0.10226  0.82946  0.68164  1.0000
  C   C2160     1.0  0.17029  0.74999  0.73143  1.0000
  S   S717      1.0  0.19643  0.73182  0.75226  1.0000
  C   C2161     1.0  0.12457  0.84089  0.69545  1.0000
  C   C2162     1.0  0.11261  0.86044  0.67969  1.0000
  H   H2149     1.0  0.18586  0.92489  0.71891  1.0000
  Fe  Fe358     1.0  0.20072  0.72102  0.77436  1.0000
  C   C2163     1.0  0.23869  0.62715  0.59287  1.0000
  C   C2164     1.0  0.36215  0.78011  0.62874  1.0000
  N   N181      1.0  0.19661  0.80412  0.78031  1.0000
  C   C2165     1.0  0.23659  0.79492  0.64722  1.0000
  C   C2166     1.0  0.26094  0.73456  0.74398  1.0000
  H   H2150     1.0  0.19026  0.78203  0.61356  1.0000
  C   C2167     1.0  0.05517  0.87441  0.75197  1.0000
  C   C2168     1.0  0.23604  0.65436  0.74376  1.0000
  H   H2151     1.0  0.42934  0.69811  0.61013  1.0000
  Fe  Fe359     1.0  0.21811  0.70272  0.58689  1.0000
  C   C2169     1.0  0.42117  0.79143  0.59724  1.0000
  C   C2170     1.0  0.25619  0.72744  0.75821  1.0000
  C   C2171     1.0  0.13162  0.97474  0.72661  1.0000
  Fe  Fe360     1.0  0.41313  0.74117  0.60616  1.0000
  H   H2152     1.0  0.25075  0.71797  0.62906  1.0000
  S   S718      1.0  0.34772  0.79502  0.62754  1.0000
  H   H2153     1.0  0.04448  0.87147  0.75667  1.0000
  C   C2172     1.0  0.38048  0.76274  0.61654  1.0000
  C   C2173     1.0  0.21330  0.78272  0.64933  1.0000
  S   S719      1.0  0.24713  0.80446  0.74656  1.0000
  N   N182      1.0  0.12180  0.85529  0.68911  1.0000
  C   C2174     1.0  0.21563  0.65813  0.72750  1.0000
  C   C2175     1.0  0.30764  0.77269  0.63418  1.0000
  C   C2176     1.0  0.11889  0.75058  0.78108  1.0000
  C   C2177     1.0  0.36866  0.77437  0.61633  1.0000
  Fe  Fe361     1.0  0.43321  0.72239  0.58602  1.0000
  C   C2178     1.0  0.22683  0.77753  0.64120  1.0000
  C   C2179     1.0  0.21307  0.75381  0.60737  1.0000
  C   C2180     1.0  0.01357  0.82482  0.77504  1.0000
  H   H2154     1.0  0.20519  0.79084  0.74975  1.0000
  H   H2155     1.0  0.38524  0.75824  0.60696  1.0000
  H   H2156     1.0  0.22610  0.71808  0.62728  1.0000
  C   C2181     1.0  0.22391  0.66555  0.74498  1.0000
  S   S720      1.0  0.22562  0.95268  0.75729  1.0000
  S   S721      1.0  0.43717  0.73349  0.60152  1.0000
  H   H2157     1.0  0.31883  0.76980  0.62904  1.0000
  C   C2182     1.0  0.11763  0.83137  0.69283  1.0000
  C   C2183     1.0  0.31565  0.83018  0.60792  1.0000
  C   C2184     1.0  0.23893  0.77837  0.75394  1.0000
  C   C2185     1.0  0.42974  0.76022  0.62764  1.0000
  H   H2158     1.0  0.24284  0.79998  0.72028  1.0000
  C   C2186     1.0  0.19775  0.79496  0.77146  1.0000
  C   C2187     1.0  0.00544  0.85430  0.69003  1.0000
  C   C2188     1.0  0.14501  0.94557  0.76707  1.0000
  H   H2159     1.0  0.20791  0.66020  0.72070  1.0000
  H   H2160     1.0  0.22250  0.71558  0.70647  1.0000
  H   H2161     1.0  0.20356  0.62436  0.60354  1.0000
  C   C2189     1.0  0.20889  0.81975  0.76033  1.0000
  S   S722      1.0  0.25271  0.74376  0.60376  1.0000
  S   S723      1.0  0.22913  0.76318  0.63270  1.0000
  H   H2162     1.0  0.24702  0.49604  0.61916  1.0000
  H   H2163     1.0  0.24886  0.77976  0.63377  1.0000
  C   C2190     1.0  0.00397  0.83184  0.68524  1.0000
  H   H2164     1.0  0.05819  0.87829  0.76024  1.0000
  C   C2191     1.0  0.21358  0.66741  0.73687  1.0000
  H   H2165     1.0  0.23430  0.78065  0.71515  1.0000
  Fe  Fe362     1.0  0.27327  0.73124  0.61048  1.0000
  C   C2192     1.0  0.18977  0.67103  0.59845  1.0000
  H   H2166     1.0  0.06652  0.89812  0.74350  1.0000
  H   H2167     1.0  0.36456  0.77894  0.60647  1.0000
  H   H2168     1.0  0.12612  0.95268  0.68407  1.0000
  H   H2169     1.0  0.18711  0.68826  0.76526  1.0000
  H   H2170     1.0  0.13829  0.68106  0.76901  1.0000
  S   S724      1.0  0.30151  0.76572  0.61152  1.0000
  Fe  Fe363     1.0  0.25132  0.75750  0.61917  1.0000
  S   S725      1.0  0.27289  0.52805  0.58644  1.0000
  H   H2171     1.0  0.07167  0.78654  0.69623  1.0000
  S   S726      1.0  0.18821  0.97657  0.76789  1.0000
  H   H2172     1.0  0.25157  0.66130  0.77084  1.0000
  C   C2193     1.0  0.04859  0.88332  0.72826  1.0000
  S   S727      1.0  0.40916  0.72782  0.59269  1.0000
  H   H2173     1.0  0.27136  0.88392  0.76169  1.0000
  H   H2174     1.0  0.17939  0.91530  0.76399  1.0000
  N   N183      1.0  0.05468  0.88532  0.73847  1.0000
  H   H2175     1.0  0.28269  0.74488  0.76129  1.0000
  H   H2176     1.0  0.46029  0.70112  0.63901  1.0000
  C   C2194     1.0  0.42227  0.77065  0.61785  1.0000
  C   C2195     1.0  0.17532  0.65948  0.59030  1.0000
  H   H2177     1.0  0.19902  0.76867  0.62689  1.0000
  C   C2196     1.0  0.12755  0.96241  0.68636  1.0000
  H   H2178     1.0  0.04378  0.87401  0.73036  1.0000
  H   H2179     1.0  0.15280  0.71560  0.59828  1.0000
  H   H2180     1.0  0.30670  0.75061  0.76810  1.0000
  C   C2197     1.0  0.01826  0.81061  0.77302  1.0000
  H   H2181     1.0  0.26570  0.69824  0.78210  1.0000
  H   H2182     1.0  0.14181  0.70451  0.77071  1.0000
  C   C2198     1.0  0.44712  0.67244  0.59039  1.0000
  C   C2199     1.0  0.20086  0.77619  0.61617  1.0000
  C   C2200     1.0  0.15109  0.69568  0.76949  1.0000
  H   H2183     1.0  0.22361  0.73486  0.59840  1.0000
  H   H2184     1.0  0.13132  0.81082  0.61648  1.0000
  H   H2185     1.0  0.15953  0.66109  0.76474  1.0000
  H   H2186     1.0  0.44814  0.78894  0.59916  1.0000
  H   H2187     1.0  0.47125  0.66722  0.60619  1.0000
  H   H2188     1.0  0.32181  0.74477  0.77695  1.0000
  C   C2201     1.0  0.14136  0.96491  0.68401  1.0000
  C   C2202     1.0  0.44400  0.76035  0.62718  1.0000
  H   H2189     1.0  0.46179  0.77087  0.61629  1.0000
  S   S728      1.0  0.24362  0.82041  0.78053  1.0000
  C   C2203     1.0  0.17469  0.67332  0.76499  1.0000
  H   H2190     1.0  0.37351  0.48620  0.68574  1.0000
  C   C2204     1.0  0.13890  0.98522  0.72669  1.0000
  H   H2191     1.0  0.15928  0.96393  0.74108  1.0000
  H   H2192     1.0  0.33222  0.78607  0.61228  1.0000
  H   H2193     1.0  0.16939  0.71799  0.75738  1.0000
  S   S729      1.0  0.15484  0.96007  0.78148  1.0000
  S   S730      1.0  0.34633  0.48903  0.64277  1.0000
  C   C2205     1.0  0.15660  0.73706  0.58877  1.0000
  H   H2194     1.0  0.20664  0.78400  0.61734  1.0000
  H   H2195     1.0  0.37840  0.48840  0.63641  1.0000
  C   C2206     1.0  0.23837  0.87563  0.76962  1.0000
  N   N184      1.0  0.25203  0.49346  0.59721  1.0000
  C   C2207     1.0  0.14313  0.97742  0.68698  1.0000
  H   H2196     1.0  0.10113  0.74351  0.77799  1.0000
  C   C2208     1.0  0.18353  0.66995  0.58756  1.0000
  C   C2209     1.0  0.24035  0.86407  0.78140  1.0000
  H   H2197     1.0  0.32448  0.48894  0.62772  1.0000
  H   H2198     1.0  0.24861  0.69918  0.77782  1.0000
  H   H2199     1.0  0.26895  0.72615  0.58387  1.0000
  H   H2200     1.0  0.17789  0.97603  0.74252  1.0000
  Fe  Fe364     1.0  0.43705  0.75271  0.58303  1.0000
  C   C2210     1.0  0.47738  0.77192  0.58283  1.0000
  S   S731      1.0  0.29016  0.55391  0.58285  1.0000
  H   H2201     1.0  0.34345  0.73165  0.58437  1.0000
  H   H2202     1.0  0.23063  0.77446  0.82684  1.0000
  C   C2211     1.0  0.21482  0.89154  0.83815  1.0000
  Fe  Fe365     1.0  0.04411  0.75410  0.80247  1.0000
  H   H2203     1.0  0.27727  0.76209  0.81792  1.0000
  S   S732      1.0  0.05632  0.75072  0.82027  1.0000
  Fe  Fe366     1.0  0.02016  0.74454  0.79431  1.0000
  H   H2204     1.0  0.17845  0.88957  0.82541  1.0000
  H   H2205     1.0  0.13009  0.86046  0.86601  1.0000
  C   C2212     1.0  0.15345  0.85650  0.94076  1.0000
  C   C2213     1.0  0.20100  0.88994  0.83860  1.0000
  C   C2214     1.0  0.16522  0.83087  0.94680  1.0000
  H   H2206     1.0  0.29874  0.83441  0.78767  1.0000
  S   S733      1.0  0.02001  0.76073  0.80687  1.0000
  C   C2215     1.0  0.22496  0.86317  0.95293  1.0000
  H   H2207     1.0  0.21181  0.83750  0.97087  1.0000
  C   C2216     1.0  0.23662  0.86310  0.97590  1.0000
  C   C2217     1.0  0.11040  0.75487  0.89826  1.0000
  H   H2208     1.0  0.22609  0.88570  0.94588  1.0000
  N   N185      1.0  0.19546  0.78801  0.83960  1.0000
  C   C2218     1.0  0.10545  0.74680  0.78547  1.0000
  S   S734      1.0  0.24764  0.79584  0.81060  1.0000
  H   H2209     1.0  0.17228  0.89514  0.84265  1.0000
  H   H2210     1.0  0.25122  0.71335  0.78490  1.0000
  C   C2219     1.0  0.12212  0.75989  0.81481  1.0000
  Fe  Fe367     1.0  0.22975  0.80833  0.79920  1.0000
  S   S735      1.0  0.20845  0.81941  0.81058  1.0000
  Fe  Fe368     1.0  0.25024  0.77940  0.79742  1.0000
  S   S736      1.0  0.25304  0.75584  0.80773  1.0000
  H   H2211     1.0  0.22742  0.67015  0.78522  1.0000
  S   S737      1.0  0.14115  0.79937  0.97162  1.0000
  Fe  Fe369     1.0  0.17232  0.88395  0.87864  1.0000
  S   S738      1.0  0.19469  0.87625  0.88312  1.0000
  S   S739      1.0  0.16127  0.90634  0.86914  1.0000
  Fe  Fe370     1.0  0.16645  0.85365  0.88630  1.0000
  S   S740      1.0  0.18827  0.84343  0.89120  1.0000
  S   S741      1.0  0.14966  0.84059  0.89004  1.0000
  Fe  Fe371     1.0  0.18468  0.86142  0.90291  1.0000
  S   S742      1.0  0.18922  0.85325  0.92568  1.0000
  Fe  Fe372     1.0  0.19619  0.85900  0.87118  1.0000
  S   S743      1.0  0.21600  0.85301  0.85431  1.0000
  S   S744      1.0  0.16210  0.87058  0.89932  1.0000
  S   S745      1.0  0.17455  0.86777  0.86535  1.0000
  Fe  Fe373     1.0  0.09976  0.79402  0.84267  1.0000
  S   S746      1.0  0.10055  0.77515  0.86156  1.0000
  S   S747      1.0  0.08491  0.79891  0.82693  1.0000
  Fe  Fe374     1.0  0.12646  0.80204  0.84668  1.0000
  S   S748      1.0  0.12945  0.78350  0.86547  1.0000
  S   S749      1.0  0.14284  0.81621  0.83902  1.0000
  Fe  Fe375     1.0  0.12427  0.77081  0.85237  1.0000
  S   S750      1.0  0.13773  0.74904  0.84980  1.0000
  Fe  Fe376     1.0  0.10555  0.78997  0.87290  1.0000
  S   S751      1.0  0.09504  0.79141  0.89623  1.0000
  S   S752      1.0  0.12326  0.78872  0.83277  1.0000
  S   S753      1.0  0.10271  0.80944  0.85474  1.0000
  C   C2220     1.0  0.29260  0.75416  0.80000  1.0000
  H   H2212     1.0  0.17821  0.77729  0.84311  1.0000
  H   H2213     1.0  0.19408  0.75534  0.83515  1.0000
  C   C2221     1.0  0.16809  0.81659  0.94513  1.0000
  C   C2222     1.0  0.04090  0.81054  0.79775  1.0000
  C   C2223     1.0  0.27619  0.72025  0.79274  1.0000
  C   C2224     1.0  0.23290  0.85069  0.97474  1.0000
  H   H2214     1.0  0.14082  0.76533  0.91887  1.0000
  C   C2225     1.0  0.04822  0.81759  0.80323  1.0000
  S   S754      1.0  0.19233  0.76135  0.80140  1.0000
  S   S755      1.0  0.23090  0.79084  0.78792  1.0000
  C   C2226     1.0  0.23426  0.87575  0.96542  1.0000
  H   H2215     1.0  0.22154  0.88352  0.84497  1.0000
  C   C2227     1.0  0.26343  0.74437  0.79595  1.0000
  C   C2228     1.0  0.09763  0.74722  0.79956  1.0000
  H   H2216     1.0  0.05535  0.81834  0.82207  1.0000
  S   S756      1.0  0.19439  0.88926  0.96873  1.0000
  H   H2217     1.0  0.09390  0.82428  0.90909  1.0000
  C   C2229     1.0  0.21096  0.91370  0.82032  1.0000
  C   C2230     1.0  0.18589  0.80132  0.84342  1.0000
  C   C2231     1.0  0.18974  0.77669  0.83971  1.0000
  H   H2218     1.0  0.15746  0.86394  0.93067  1.0000
  H   H2219     1.0  0.09722  0.75178  0.82000  1.0000
  H   H2220     1.0  0.04445  0.79811  0.83778  1.0000
  C   C2232     1.0  0.02986  0.78263  0.83044  1.0000
  S   S757      1.0  0.13447  0.79764  0.93519  1.0000
  Fe  Fe377     1.0  0.12540  0.80276  0.95742  1.0000
  C   C2233     1.0  0.25467  0.84808  0.79868  1.0000
  H   H2221     1.0  0.26587  0.84488  0.80051  1.0000
  C   C2234     1.0  0.10334  0.75156  0.80904  1.0000
  H   H2222     1.0  0.17091  0.90835  0.82636  1.0000
  H   H2223     1.0  0.18296  0.80892  0.83346  1.0000
  H   H2224     1.0  0.13479  0.75772  0.78731  1.0000
  H   H2225     1.0  0.11341  0.86768  0.85959  1.0000
  C   C2235     1.0  0.04316  0.80171  0.82661  1.0000
  H   H2226     1.0  0.05319  0.82630  0.79617  1.0000
  H   H2227     1.0  0.04008  0.81381  0.78645  1.0000
  S   S758      1.0  0.11516  0.82523  0.96066  1.0000
  Fe  Fe378     1.0  0.17513  0.96298  0.78583  1.0000
  N   N186      1.0  0.22710  0.85087  0.96339  1.0000
  H   H2228     1.0  0.10710  0.84103  0.91265  1.0000
  C   C2236     1.0  0.16256  0.81342  0.93483  1.0000
  C   C2237     1.0  0.13200  0.75923  0.92266  1.0000
  H   H2229     1.0  0.15016  0.74962  0.90011  1.0000
  C   C2238     1.0  0.21977  0.90358  0.82901  1.0000
  C   C2239     1.0  0.03479  0.79914  0.80690  1.0000
  N   N187      1.0  0.19229  0.90010  0.83034  1.0000
  C   C2240     1.0  0.22850  0.87578  0.95379  1.0000
  C   C2241     1.0  0.19862  0.76426  0.83521  1.0000
  H   H2230     1.0  0.21455  0.92329  0.81342  1.0000
  H   H2231     1.0  0.18027  0.79600  0.79714  1.0000
  Fe  Fe379     1.0  0.26175  0.80654  0.79104  1.0000
  C   C2242     1.0  0.10579  0.79366  0.90703  1.0000
  C   C2243     1.0  0.09986  0.79477  0.92153  1.0000
  C   C2244     1.0  0.10840  0.79643  0.93028  1.0000
  C   C2245     1.0  0.12296  0.79672  0.92457  1.0000
  C   C2246     1.0  0.12884  0.79555  0.91014  1.0000
  C   C2247     1.0  0.12028  0.79411  0.90141  1.0000
  H   H2232     1.0  0.08864  0.79441  0.92600  1.0000
  H   H2233     1.0  0.10381  0.79724  0.94146  1.0000
  H   H2234     1.0  0.14010  0.79575  0.90568  1.0000
  H   H2235     1.0  0.12498  0.79330  0.89035  1.0000
  C   C2248     1.0  0.15346  0.75202  0.83703  1.0000
  C   C2249     1.0  0.16245  0.74095  0.83034  1.0000
  C   C2250     1.0  0.17453  0.74372  0.81947  1.0000
  C   C2251     1.0  0.17748  0.75760  0.81516  1.0000
  C   C2252     1.0  0.16870  0.76854  0.82213  1.0000
  C   C2253     1.0  0.15683  0.76571  0.83318  1.0000
  H   H2236     1.0  0.16003  0.73027  0.83346  1.0000
  H   H2237     1.0  0.18165  0.73505  0.81458  1.0000
  H   H2238     1.0  0.17097  0.77926  0.81895  1.0000
  H   H2239     1.0  0.15031  0.77417  0.83866  1.0000
  C   C2254     1.0  0.18926  0.86406  0.93754  1.0000
  C   C2255     1.0  0.18861  0.85768  0.95230  1.0000
  C   C2256     1.0  0.18945  0.86555  0.96205  1.0000
  C   C2257     1.0  0.19129  0.87981  0.95710  1.0000
  C   C2258     1.0  0.19169  0.88630  0.94237  1.0000
  C   C2259     1.0  0.19058  0.87849  0.93262  1.0000
  H   H2240     1.0  0.18753  0.84655  0.95623  1.0000
  H   H2241     1.0  0.18887  0.86049  0.97336  1.0000
  H   H2242     1.0  0.19308  0.89734  0.93844  1.0000
  H   H2243     1.0  0.19111  0.88352  0.92126  1.0000
  C   C2260     1.0  0.14949  0.83264  0.87593  1.0000
  C   C2261     1.0  0.14015  0.82323  0.87869  1.0000
  C   C2262     1.0  0.13826  0.81805  0.86740  1.0000
  C   C2263     1.0  0.14587  0.82206  0.85327  1.0000
  C   C2264     1.0  0.15559  0.83114  0.85051  1.0000
  C   C2265     1.0  0.15741  0.83643  0.86184  1.0000
  H   H2244     1.0  0.13393  0.82039  0.88952  1.0000
  H   H2245     1.0  0.13055  0.81133  0.86955  1.0000
  H   H2246     1.0  0.16144  0.83436  0.83956  1.0000
  H   H2247     1.0  0.16462  0.84373  0.85960  1.0000
  H   H2248     1.0  0.24733  0.85128  0.80860  1.0000
  H   H2249     1.0  0.18668  0.80985  0.80091  1.0000
  H   H2250     1.0  0.17578  0.79915  0.85114  1.0000
  H   H2251     1.0  0.09360  0.82293  0.88415  1.0000
  Fe  Fe380     1.0  0.19477  0.95902  0.80646  1.0000
  H   H2252     1.0  0.13547  0.74896  0.93019  1.0000
  H   H2253     1.0  0.03564  0.77704  0.83942  1.0000
  H   H2254     1.0  0.16439  0.80237  0.93360  1.0000
  H   H2255     1.0  0.23655  0.88561  0.96648  1.0000
  Fe  Fe381     1.0  0.12942  0.82103  0.97644  1.0000
  H   H2256     1.0  0.15000  0.82209  0.91830  1.0000
  C   C2266     1.0  0.26694  0.72952  0.80156  1.0000
  H   H2257     1.0  0.28460  0.78584  0.81131  1.0000
  H   H2258     1.0  0.11942  0.85660  0.89131  1.0000
  H   H2259     1.0  0.26267  0.72519  0.81282  1.0000
  C   C2267     1.0  0.21056  0.82892  0.82256  1.0000
  C   C2268     1.0  0.22426  0.83016  0.82302  1.0000
  C   C2269     1.0  0.22583  0.83754  0.83284  1.0000
  C   C2270     1.0  0.21375  0.84358  0.84232  1.0000
  C   C2271     1.0  0.20007  0.84222  0.84192  1.0000
  C   C2272     1.0  0.19846  0.83504  0.83194  1.0000
  H   H2260     1.0  0.23364  0.82541  0.81586  1.0000
  H   H2261     1.0  0.23644  0.83838  0.83328  1.0000
  H   H2262     1.0  0.19072  0.84667  0.84927  1.0000
  H   H2263     1.0  0.18784  0.83418  0.83160  1.0000
  C   C2273     1.0  0.18949  0.93739  0.83980  1.0000
  C   C2274     1.0  0.17570  0.93850  0.83769  1.0000
  C   C2275     1.0  0.16703  0.92906  0.84693  1.0000
  C   C2276     1.0  0.17229  0.91820  0.85800  1.0000
  C   C2277     1.0  0.18618  0.91692  0.85993  1.0000
  C   C2278     1.0  0.19468  0.92667  0.85100  1.0000
  H   H2264     1.0  0.17162  0.94675  0.82908  1.0000
  H   H2265     1.0  0.15626  0.93011  0.84545  1.0000
  H   H2266     1.0  0.19025  0.90865  0.86852  1.0000
  H   H2267     1.0  0.20535  0.92577  0.85265  1.0000
  C   C2279     1.0  0.06504  0.76379  0.82154  1.0000
  C   C2280     1.0  0.06804  0.77517  0.80989  1.0000
  C   C2281     1.0  0.07477  0.78553  0.81144  1.0000
  C   C2282     1.0  0.07844  0.78465  0.82466  1.0000
  C   C2283     1.0  0.07581  0.77303  0.83615  1.0000
  C   C2284     1.0  0.06915  0.76265  0.83459  1.0000
  H   H2268     1.0  0.06513  0.77606  0.79971  1.0000
  H   H2269     1.0  0.07686  0.79443  0.80246  1.0000
  H   H2270     1.0  0.07847  0.77229  0.84643  1.0000
  H   H2271     1.0  0.06693  0.75381  0.84362  1.0000
  C   C2285     1.0  0.04930  0.81323  0.81778  1.0000
  H   H2272     1.0  0.10624  0.83852  0.86300  1.0000
  C   C2286     1.0  0.21338  0.76355  0.83038  1.0000
  N   N188      1.0  0.30306  0.75716  0.78795  1.0000
  H   H2273     1.0  0.19727  0.88058  0.84573  1.0000
  C   C2287     1.0  0.12100  0.85761  0.86333  1.0000
  C   C2288     1.0  0.09928  0.83118  0.89979  1.0000
  H   H2274     1.0  0.15702  0.85781  0.97660  1.0000
  H   H2275     1.0  0.21453  0.79632  0.83490  1.0000
  H   H2276     1.0  0.22036  0.75416  0.82645  1.0000
  H   H2277     1.0  0.12662  0.75022  0.82250  1.0000
  H   H2278     1.0  0.12583  0.85174  0.85430  1.0000
  C   C2289     1.0  0.17780  0.89818  0.83114  1.0000
  H   H2279     1.0  0.22057  0.83849  0.95208  1.0000
  C   C2290     1.0  0.10658  0.84067  0.90179  1.0000
  H   H2280     1.0  0.15852  0.85743  0.94930  1.0000
  H   H2281     1.0  0.19118  0.80673  0.84861  1.0000
  H   H2282     1.0  0.10553  0.76236  0.91808  1.0000
  C   C2291     1.0  0.09906  0.83048  0.88577  1.0000
  N   N189      1.0  0.11640  0.75552  0.80457  1.0000
  H   H2283     1.0  0.14163  0.85997  0.94427  1.0000
  C   C2292     1.0  0.21914  0.77506  0.83048  1.0000
  C   C2293     1.0  0.11409  0.75806  0.90978  1.0000
  C   C2294     1.0  0.11353  0.84944  0.88967  1.0000
  C   C2295     1.0  0.15441  0.82452  0.92626  1.0000
  C   C2296     1.0  0.28579  0.76441  0.80857  1.0000
  S   S759      1.0  0.20065  0.94887  0.82817  1.0000
  H   H2284     1.0  0.23033  0.90517  0.82879  1.0000
  C   C2297     1.0  0.20998  0.78730  0.83511  1.0000
  S   S760      1.0  0.04420  0.73620  0.79192  1.0000
  S   S761      1.0  0.10907  0.79261  0.97501  1.0000
  H   H2285     1.0  0.17433  0.80803  0.95195  1.0000
  S   S762      1.0  0.13960  0.83958  0.97467  1.0000
  H   H2286     1.0  0.19528  0.98156  0.82315  1.0000
  H   H2287     1.0  0.10687  0.84766  0.98118  1.0000
  H   H2288     1.0  0.11348  0.76709  0.82112  1.0000
  N   N190      1.0  0.03621  0.79469  0.82106  1.0000
  N   N191      1.0  0.12823  0.75624  0.91033  1.0000
  C   C2298     1.0  0.13564  0.74766  0.88805  1.0000
  C   C2299     1.0  0.12127  0.74955  0.88739  1.0000
  H   H2289     1.0  0.02908  0.79374  0.80255  1.0000
  H   H2290     1.0  0.27895  0.70878  0.79722  1.0000
  C   C2300     1.0  0.15177  0.83868  0.92819  1.0000
  H   H2291     1.0  0.28936  0.74385  0.80298  1.0000
  H   H2292     1.0  0.14413  0.74372  0.87948  1.0000
  H   H2293     1.0  0.11857  0.74705  0.87836  1.0000
  H   H2294     1.0  0.16933  0.83322  0.95499  1.0000
  H   H2295     1.0  0.12275  0.76601  0.92883  1.0000
  H   H2296     1.0  0.19782  0.79189  0.80150  1.0000
  H   H2297     1.0  0.19023  0.91989  0.81465  1.0000
  H   H2298     1.0  0.08717  0.74424  0.80314  1.0000
  N   N192      1.0  0.11347  0.84852  0.87594  1.0000
  S   S763      1.0  0.20962  0.97218  0.79008  1.0000
  H   H2299     1.0  0.14540  0.84723  0.92148  1.0000
  Fe  Fe382     1.0  0.10022  0.81481  0.97967  1.0000
  H   H2300     1.0  0.25214  0.83833  0.79700  1.0000
  S   S764      1.0  0.19401  0.94560  0.79143  1.0000
  H   H2301     1.0  0.03080  0.77429  0.82425  1.0000
  S   S765      1.0  0.17455  0.97517  0.80256  1.0000
  N   N193      1.0  0.15703  0.84167  0.93847  1.0000
  H   H2302     1.0  0.01832  0.78656  0.83499  1.0000
  C   C2301     1.0  0.13896  0.75108  0.89968  1.0000
  H   H2303     1.0  0.09918  0.75682  0.89763  1.0000
  C   C2302     1.0  0.19717  0.91176  0.82110  1.0000
  C   C2303     1.0  0.30054  0.78068  0.79253  1.0000
  C   C2304     1.0  0.10620  0.83933  0.87388  1.0000
  C   C2305     1.0  0.28985  0.77773  0.80482  1.0000
  S   S766      1.0  0.00216  0.73219  0.80425  1.0000
  H   H2304     1.0  0.30680  0.73592  0.78369  1.0000
  H   H2305     1.0  0.21997  0.86349  0.94414  1.0000
  S   S767      1.0  0.27946  0.81512  0.79395  1.0000
  C   C2306     1.0  0.22223  0.83809  0.96304  1.0000
  H   H2306     1.0  0.13078  0.76599  0.80917  1.0000
  C   C2307     1.0  0.12428  0.75488  0.79084  1.0000
  H   H2307     1.0  0.27414  0.86384  0.78288  1.0000
  S   S768      1.0  0.18076  0.73376  0.78611  1.0000
  C   C2308     1.0  0.19003  0.80032  0.79574  1.0000
  H   H2308     1.0  0.30365  0.79108  0.78942  1.0000
  H   H2309     1.0  0.23029  0.82808  0.96594  1.0000
  Fe  Fe383     1.0  0.02311  0.77562  0.78524  1.0000
  N   N194      1.0  0.25307  0.85996  0.78606  1.0000
  H   H2310     1.0  0.23168  0.85837  0.78680  1.0000
  C   C2309     1.0  0.30702  0.77024  0.78412  1.0000
  Fe  Fe384     1.0  0.19469  0.74923  0.78410  1.0000
  S   S769      1.0  0.00872  0.79750  0.78374  1.0000
  H   H2311     1.0  0.00382  0.82774  0.78285  1.0000
  C   C2310     1.0  0.78520  0.23453  0.06163  1.0000
  H   H2312     1.0  0.94408  0.29625  0.09793  1.0000
  Fe  Fe385     1.0  0.76260  0.18706  0.17201  1.0000
  H   H2313     1.0  0.80501  0.20605  0.08935  1.0000
  S   S770      1.0  0.82015  0.16085  0.04663  1.0000
  H   H2314     1.0  0.87450  0.09682  0.17436  1.0000
  S   S771      1.0  0.87946  0.06265  0.14128  1.0000
  C   C2311     1.0  0.79804  0.23808  0.07805  1.0000
  S   S772      1.0  0.86280  0.09296  0.15106  1.0000
  Fe  Fe386     1.0  0.85708  0.07632  0.14284  1.0000
  S   S773      1.0  0.84575  0.08126  0.12411  1.0000
  Fe  Fe387     1.0  0.88423  0.07797  0.15217  1.0000
  S   S774      1.0  0.90389  0.08805  0.14553  1.0000
  S   S775      1.0  0.78637  0.18539  0.16432  1.0000
  Fe  Fe388     1.0  0.79654  0.01295  0.09757  1.0000
  S   S776      1.0  0.81392  0.02474  0.09580  1.0000
  C   C2312     1.0  0.51727  0.34304  0.16411  1.0000
  Fe  Fe389     1.0  0.77369  0.04077  0.09634  1.0000
  S   S777      1.0  0.78902  0.05473  0.09436  1.0000
  S   S778      1.0  0.75023  0.04978  0.09656  1.0000
  Fe  Fe390     1.0  0.80355  0.04133  0.07876  1.0000
  S   S779      1.0  0.81677  0.05254  0.05861  1.0000
  Fe  Fe391     1.0  0.79784  0.03706  0.11151  1.0000
  S   S780      1.0  0.80185  0.04140  0.13148  1.0000
  S   S781      1.0  0.78748  0.02865  0.07921  1.0000
  S   S782      1.0  0.78123  0.02396  0.11482  1.0000
  Fe  Fe392     1.0  0.71184  0.15074  0.13051  1.0000
  S   S783      1.0  0.70979  0.12768  0.13683  1.0000
  S   S784      1.0  0.69098  0.16639  0.13500  1.0000
  Fe  Fe393     1.0  0.72639  0.12509  0.11652  1.0000
  S   S785      1.0  0.72161  0.11459  0.10100  1.0000
  S   S786      1.0  0.72691  0.14867  0.10916  1.0000
  S   S787      1.0  0.87742  0.06547  0.17463  1.0000
  H   H2315     1.0  0.79301  0.14778  0.09651  1.0000
  Fe  Fe394     1.0  0.95496  0.14454  0.16779  1.0000
  S   S788      1.0  0.96087  0.15793  0.14546  1.0000
  C   C2313     1.0  0.82901  0.99079  0.16714  1.0000
  H   H2316     1.0  0.91686  0.28493  0.11159  1.0000
  H   H2317     1.0  0.91995  0.03293  0.15769  1.0000
  C   C2314     1.0  0.80203  0.12965  0.11189  1.0000
  C   C2315     1.0  0.68048  0.30438  0.17277  1.0000
  Fe  Fe395     1.0  0.91010  0.22945  0.08184  1.0000
  S   S789      1.0  0.89517  0.23508  0.10215  1.0000
  S   S790      1.0  0.90588  0.21754  0.06692  1.0000
  Fe  Fe396     1.0  0.93483  0.23977  0.08726  1.0000
  S   S791      1.0  0.92186  0.24625  0.10798  1.0000
  Fe  Fe397     1.0  0.91431  0.22558  0.11247  1.0000
  S   S792      1.0  0.91071  0.21198  0.13489  1.0000
  Fe  Fe398     1.0  0.90387  0.25527  0.09593  1.0000
  S   S793      1.0  0.88826  0.27630  0.09819  1.0000
  S   S794      1.0  0.92868  0.21820  0.09274  1.0000
  S   S795      1.0  0.91740  0.25059  0.07455  1.0000
  H   H2318     1.0  0.77558  0.18663  0.09477  1.0000
  C   C2316     1.0  0.78096  0.18883  0.01039  1.0000
  S   S796      1.0  0.74506  0.11893  0.12765  1.0000
  Fe  Fe399     1.0  0.81228  0.30580  0.16737  1.0000
  H   H2319     1.0  0.82417  0.98674  0.14860  1.0000
  S   S797      1.0  0.79654  0.31508  0.15281  1.0000
  H   H2320     1.0  0.59440  0.39809  0.17490  1.0000
  S   S798      1.0  0.86703  0.28708  0.16221  1.0000
  C   C2317     1.0  0.95268  0.27988  0.06936  1.0000
  H   H2321     1.0  0.96192  0.27577  0.06151  1.0000
  C   C2318     1.0  0.90351  0.00821  0.13135  1.0000
  H   H2322     1.0  0.71372  0.08413  0.14613  1.0000
  C   C2319     1.0  0.92742  0.28238  0.08050  1.0000
  C   C2320     1.0  0.71668  0.26520  0.17925  1.0000
  C   C2321     1.0  0.71266  0.17157  0.05419  1.0000
  C   C2322     1.0  0.69972  0.17879  0.06149  1.0000
  C   C2323     1.0  0.84082  0.25501  0.14872  1.0000
  H   H2323     1.0  0.77275  0.17313  0.15088  1.0000
  H   H2324     1.0  0.76884  0.18725  0.06103  1.0000
  H   H2325     1.0  0.56722  0.35718  0.13468  1.0000
  Fe  Fe400     1.0  0.78623  0.10643  0.99868  1.0000
  S   S799      1.0  0.78615  0.08272  0.00558  1.0000
  S   S800      1.0  0.81632  0.19754  0.05712  1.0000
  Fe  Fe401     1.0  0.77091  0.13396  0.00932  1.0000
  S   S801      1.0  0.75789  0.14155  0.02953  1.0000
  H   H2326     1.0  0.83828  0.02160  0.16784  1.0000
  S   S802      1.0  0.79129  0.11820  0.01281  1.0000
  Fe  Fe402     1.0  0.63190  0.27345  0.13811  1.0000
  S   S803      1.0  0.62513  0.29450  0.12320  1.0000
  C   C2324     1.0  0.69376  0.25954  0.18122  1.0000
  Fe  Fe403     1.0  0.65827  0.28125  0.14101  1.0000
  S   S804      1.0  0.65418  0.30273  0.12600  1.0000
  S   S805      1.0  0.67773  0.27614  0.15063  1.0000
  Fe  Fe404     1.0  0.63133  0.30440  0.13830  1.0000
  S   S806      1.0  0.62043  0.32560  0.14512  1.0000
  Fe  Fe405     1.0  0.64851  0.29092  0.11237  1.0000
  S   S807      1.0  0.65457  0.29723  0.08815  1.0000
  S   S808      1.0  0.63582  0.28360  0.15437  1.0000
  S   S809      1.0  0.65490  0.26909  0.12616  1.0000
  Fe  Fe406     1.0  0.71601  0.24274  0.05492  1.0000
  S   S810      1.0  0.71111  0.22894  0.07702  1.0000
  S   S811      1.0  0.71205  0.26687  0.05150  1.0000
  Fe  Fe407     1.0  0.72663  0.21702  0.04023  1.0000
  S   S812      1.0  0.72222  0.20107  0.06112  1.0000
  S   S813      1.0  0.73634  0.20927  0.01936  1.0000
  Fe  Fe408     1.0  0.70181  0.21723  0.06616  1.0000
  S   S814      1.0  0.68075  0.21114  0.07763  1.0000
  Fe  Fe409     1.0  0.73197  0.21428  0.06979  1.0000
  S   S815      1.0  0.74790  0.20464  0.08406  1.0000
  S   S816      1.0  0.70509  0.23210  0.04440  1.0000
  S   S817      1.0  0.73796  0.22918  0.04856  1.0000
  C   C2325     1.0  0.90894  0.08430  0.17309  1.0000
  Fe  Fe410     1.0  0.75330  0.26893  0.14277  1.0000
  S   S818      1.0  0.76080  0.28272  0.12115  1.0000
  H   H2327     1.0  0.85369  0.13653  0.99351  1.0000
  Fe  Fe411     1.0  0.73723  0.25456  0.13021  1.0000
  S   S819      1.0  0.74338  0.26708  0.10761  1.0000
  S   S820      1.0  0.72296  0.23904  0.13430  1.0000
  Fe  Fe412     1.0  0.76521  0.26240  0.11278  1.0000
  S   S821      1.0  0.78634  0.25438  0.09854  1.0000
  Fe  Fe413     1.0  0.73829  0.28586  0.11828  1.0000
  S   S822      1.0  0.72596  0.30765  0.10936  1.0000
  S   S823      1.0  0.75942  0.24834  0.13473  1.0000
  S   S824      1.0  0.73034  0.27371  0.14053  1.0000
  H   H2328     1.0  0.51792  0.33119  0.16674  1.0000
  H   H2329     1.0  0.83501  0.12361  0.08076  1.0000
  S   S825      1.0  0.74720  0.19504  0.15708  1.0000
  C   C2326     1.0  0.54409  0.36431  0.13959  1.0000
  C   C2327     1.0  0.83759  0.00112  0.07221  1.0000
  C   C2328     1.0  0.90336  0.02261  0.12438  1.0000
  C   C2329     1.0  0.62914  0.23949  0.15071  1.0000
  H   H2330     1.0  0.90225  0.07638  0.17660  1.0000
  S   S826      1.0  0.71866  0.34578  0.15471  1.0000
  C   C2330     1.0  0.82521  0.11624  0.10319  1.0000
  H   H2331     1.0  0.65074  0.31937  0.14632  1.0000
  C   C2331     1.0  0.83299  0.00060  0.17262  1.0000
  C   C2332     1.0  0.82823  0.01056  0.12891  1.0000
  C   C2333     1.0  0.72276  0.31863  0.12189  1.0000
  C   C2334     1.0  0.72563  0.33253  0.11721  1.0000
  C   C2335     1.0  0.72409  0.34091  0.12736  1.0000
  C   C2336     1.0  0.71935  0.33557  0.14216  1.0000
  C   C2337     1.0  0.71585  0.32193  0.14675  1.0000
  C   C2338     1.0  0.71778  0.31338  0.13666  1.0000
  H   H2332     1.0  0.72945  0.33664  0.10578  1.0000
  H   H2333     1.0  0.72673  0.35150  0.12373  1.0000
  H   H2334     1.0  0.71207  0.31775  0.15808  1.0000
  H   H2335     1.0  0.71525  0.30279  0.14029  1.0000
  C   C2339     1.0  0.78537  0.24608  0.08502  1.0000
  C   C2340     1.0  0.77244  0.24230  0.06874  1.0000
  C   C2341     1.0  0.77251  0.24806  0.08045  1.0000
  H   H2336     1.0  0.76251  0.24395  0.06512  1.0000
  H   H2337     1.0  0.76269  0.25426  0.08567  1.0000
  C   C2342     1.0  0.69355  0.17226  0.07549  1.0000
  H   H2338     1.0  0.90925  0.00964  0.16365  1.0000
  H   H2339     1.0  0.86530  0.02486  0.12396  1.0000
  H   H2340     1.0  0.90555  0.99241  0.15114  1.0000
  H   H2341     1.0  0.76125  0.33811  0.15635  1.0000
  S   S827      1.0  0.82690  0.22361  0.03044  1.0000
  C   C2343     1.0  0.64453  0.21244  0.16259  1.0000
  H   H2342     1.0  0.76542  0.19637  0.11560  1.0000
  S   S828      1.0  0.86725  0.99499  0.12501  1.0000
  S   S829      1.0  0.81257  0.19979  0.02419  1.0000
  C   C2344     1.0  0.74127  0.21329  0.09868  1.0000
  C   C2345     1.0  0.72754  0.21255  0.10724  1.0000
  C   C2346     1.0  0.72199  0.22018  0.11847  1.0000
  C   C2347     1.0  0.73021  0.22850  0.12114  1.0000
  C   C2348     1.0  0.74390  0.22925  0.11251  1.0000
  C   C2349     1.0  0.74933  0.22181  0.10117  1.0000
  H   H2343     1.0  0.72118  0.20614  0.10515  1.0000
  H   H2344     1.0  0.71128  0.21983  0.12487  1.0000
  H   H2345     1.0  0.75031  0.23567  0.11443  1.0000
  H   H2346     1.0  0.75971  0.22279  0.09422  1.0000
  C   C2350     1.0  0.67395  0.28705  0.16330  1.0000
  C   C2351     1.0  0.81672  0.00300  0.05707  1.0000
  H   H2347     1.0  0.78738  0.17134  0.04371  1.0000
  C   C2352     1.0  0.77419  0.20241  0.01348  1.0000
  H   H2348     1.0  0.76727  0.20628  0.05440  1.0000
  C   C2353     1.0  0.68380  0.29514  0.16305  1.0000
  H   H2349     1.0  0.88102  0.11147  0.16147  1.0000
  C   C2354     1.0  0.77907  0.29691  0.17011  1.0000
  S   S830      1.0  0.80307  0.98851  0.10063  1.0000
  H   H2350     1.0  0.69378  0.29457  0.15506  1.0000
  C   C2355     1.0  0.67145  0.28899  0.07924  1.0000
  C   C2356     1.0  0.67838  0.27500  0.08497  1.0000
  C   C2357     1.0  0.69082  0.26798  0.07649  1.0000
  C   C2358     1.0  0.69662  0.27516  0.06258  1.0000
  C   C2359     1.0  0.69001  0.28935  0.05724  1.0000
  C   C2360     1.0  0.67733  0.29613  0.06542  1.0000
  H   H2351     1.0  0.67383  0.26938  0.09560  1.0000
  H   H2352     1.0  0.69588  0.25706  0.08074  1.0000
  H   H2353     1.0  0.69445  0.29497  0.04653  1.0000
  H   H2354     1.0  0.67198  0.30692  0.06093  1.0000
  C   C2361     1.0  0.81565  0.14225  0.03240  1.0000
  C   C2362     1.0  0.81562  0.13766  0.01992  1.0000
  H   H2355     1.0  0.81258  0.13568  0.04303  1.0000
  H   H2356     1.0  0.81284  0.12744  0.02099  1.0000
  C   C2363     1.0  0.75291  0.16044  0.02628  1.0000
  C   C2364     1.0  0.75023  0.16842  0.01276  1.0000
  C   C2365     1.0  0.74536  0.18347  0.01060  1.0000
  C   C2366     1.0  0.74327  0.19056  0.02193  1.0000
  C   C2367     1.0  0.74667  0.18263  0.03520  1.0000
  C   C2368     1.0  0.75132  0.16758  0.03744  1.0000
  H   H2357     1.0  0.75142  0.16296  0.00410  1.0000
  H   H2358     1.0  0.74290  0.18959  0.00026  1.0000
  H   H2359     1.0  0.74596  0.18808  0.04367  1.0000
  H   H2360     1.0  0.75376  0.16149  0.04779  1.0000
  N   N195      1.0  0.77663  0.19337  0.03828  1.0000
  H   H2361     1.0  0.72341  0.09440  0.15124  1.0000
  H   H2362     1.0  0.90065  0.03898  0.16242  1.0000
  C   C2369     1.0  0.87216  0.00344  0.16182  1.0000
  Fe  Fe414     1.0  0.80714  0.21444  0.03977  1.0000
  C   C2370     1.0  0.82387  0.16356  0.01731  1.0000
  C   C2371     1.0  0.64784  0.22510  0.16368  1.0000
  S   S831      1.0  0.95822  0.24111  0.07799  1.0000
  H   H2363     1.0  0.96337  0.26489  0.11431  1.0000
  H   H2364     1.0  0.74042  0.17512  0.11892  1.0000
  H   H2365     1.0  0.93781  0.27185  0.06243  1.0000
  H   H2366     1.0  0.63691  0.32166  0.17040  1.0000
  H   H2367     1.0  0.80688  0.21909  0.10708  1.0000
  Fe  Fe415     1.0  0.80150  0.13122  0.99208  1.0000
  C   C2372     1.0  0.86718  0.01884  0.13454  1.0000
  H   H2368     1.0  0.78762  0.22092  0.12924  1.0000
  H   H2369     1.0  0.90109  0.02650  0.11357  1.0000
  H   H2370     1.0  0.73362  0.19238  0.13538  1.0000
  C   C2373     1.0  0.74360  0.18444  0.13524  1.0000
  Fe  Fe416     1.0  0.83657  0.20613  0.04732  1.0000
  C   C2374     1.0  0.78669  0.30165  0.15610  1.0000
  C   C2375     1.0  0.78661  0.29545  0.14480  1.0000
  C   C2376     1.0  0.77854  0.28487  0.14740  1.0000
  C   C2377     1.0  0.77024  0.28075  0.16119  1.0000
  H   H2371     1.0  0.61855  0.41547  0.17382  1.0000
  C   C2378     1.0  0.66098  0.28790  0.17354  1.0000
  H   H2372     1.0  0.79285  0.29877  0.13405  1.0000
  H   H2373     1.0  0.77884  0.27986  0.13875  1.0000
  S   S832      1.0  0.65381  0.19535  0.16993  1.0000
  H   H2374     1.0  0.90123  0.00087  0.12604  1.0000
  C   C2379     1.0  0.74754  0.17479  0.12583  1.0000
  C   C2380     1.0  0.91698  0.29361  0.10164  1.0000
  C   C2381     1.0  0.76989  0.16449  0.13416  1.0000
  C   C2382     1.0  0.62572  0.22684  0.14983  1.0000
  S   S833      1.0  0.96551  0.12131  0.17483  1.0000
  H   H2375     1.0  0.61711  0.22747  0.14456  1.0000
  H   H2376     1.0  0.76683  0.20932  0.13352  1.0000
  C   C2383     1.0  0.93912  0.27762  0.06992  1.0000
  C   C2384     1.0  0.77215  0.20453  0.02756  1.0000
  C   C2385     1.0  0.79681  0.20640  0.09923  1.0000
  C   C2386     1.0  0.79794  0.21378  0.10922  1.0000
  H   H2377     1.0  0.94970  0.25417  0.10335  1.0000
  C   C2387     1.0  0.88832  0.21703  0.06597  1.0000
  C   C2388     1.0  0.87617  0.22263  0.07562  1.0000
  C   C2389     1.0  0.86240  0.22160  0.07488  1.0000
  H   H2378     1.0  0.87738  0.22768  0.08370  1.0000
  H   H2379     1.0  0.85307  0.22582  0.08248  1.0000
  C   C2390     1.0  0.88223  0.27909  0.11606  1.0000
  C   C2391     1.0  0.89098  0.27298  0.12625  1.0000
  C   C2392     1.0  0.88625  0.27563  0.14034  1.0000
  C   C2393     1.0  0.87255  0.28400  0.14447  1.0000
  C   C2394     1.0  0.86362  0.28984  0.13441  1.0000
  C   C2395     1.0  0.86856  0.28759  0.12015  1.0000
  H   H2380     1.0  0.90150  0.26642  0.12325  1.0000
  H   H2381     1.0  0.89318  0.27110  0.14810  1.0000
  H   H2382     1.0  0.85305  0.29639  0.13752  1.0000
  H   H2383     1.0  0.86174  0.29236  0.11230  1.0000
  H   H2384     1.0  0.66022  0.34531  0.16973  1.0000
  S   S834      1.0  0.84307  0.21399  0.06413  1.0000
  S   S835      1.0  0.84524  0.19016  0.03247  1.0000
  Fe  Fe417     1.0  0.70688  0.33852  0.17745  1.0000
  C   C2396     1.0  0.76065  0.16472  0.12540  1.0000
  H   H2385     1.0  0.80805  0.23655  0.08145  1.0000
  H   H2386     1.0  0.71257  0.17969  0.14098  1.0000
  C   C2397     1.0  0.94807  0.17418  0.14328  1.0000
  C   C2398     1.0  0.93601  0.17676  0.15436  1.0000
  C   C2399     1.0  0.92478  0.18871  0.15188  1.0000
  C   C2400     1.0  0.92574  0.19834  0.13844  1.0000
  C   C2401     1.0  0.93828  0.19636  0.12771  1.0000
  C   C2402     1.0  0.94939  0.18421  0.13008  1.0000
  H   H2387     1.0  0.93514  0.16943  0.16478  1.0000
  H   H2388     1.0  0.91524  0.19032  0.16033  1.0000
  H   H2389     1.0  0.93930  0.20395  0.11748  1.0000
  H   H2390     1.0  0.95879  0.18237  0.12154  1.0000
  H   H2391     1.0  0.70808  0.13973  0.16721  1.0000
  C   C2403     1.0  0.68803  0.17976  0.11972  1.0000
  C   C2404     1.0  0.69966  0.18445  0.10959  1.0000
  C   C2405     1.0  0.69730  0.19465  0.09697  1.0000
  C   C2406     1.0  0.68338  0.19983  0.09426  1.0000
  C   C2407     1.0  0.67170  0.19532  0.10453  1.0000
  C   C2408     1.0  0.67401  0.18542  0.11739  1.0000
  H   H2392     1.0  0.71049  0.18028  0.11149  1.0000
  H   H2393     1.0  0.70634  0.19827  0.08928  1.0000
  H   H2394     1.0  0.66091  0.19933  0.10250  1.0000
  H   H2395     1.0  0.66501  0.18181  0.12534  1.0000
  C   C2409     1.0  0.80816  0.06073  0.04393  1.0000
  C   C2410     1.0  0.81273  0.07258  0.03385  1.0000
  C   C2411     1.0  0.80587  0.07948  0.02218  1.0000
  C   C2412     1.0  0.79461  0.07436  0.02035  1.0000
  C   C2413     1.0  0.79014  0.06241  0.03035  1.0000
  C   C2414     1.0  0.79679  0.05570  0.04222  1.0000
  H   H2396     1.0  0.82157  0.07646  0.03508  1.0000
  H   H2397     1.0  0.80958  0.08850  0.01435  1.0000
  H   H2398     1.0  0.78145  0.05840  0.02896  1.0000
  H   H2399     1.0  0.79324  0.04653  0.04988  1.0000
  C   C2415     1.0  0.74292  0.06786  0.09801  1.0000
  C   C2416     1.0  0.72901  0.07387  0.09556  1.0000
  C   C2417     1.0  0.72271  0.08824  0.09643  1.0000
  C   C2418     1.0  0.73008  0.09661  0.10020  1.0000
  C   C2419     1.0  0.74397  0.09064  0.10286  1.0000
  C   C2420     1.0  0.75049  0.07630  0.10154  1.0000
  H   H2400     1.0  0.72311  0.06742  0.09283  1.0000
  H   H2401     1.0  0.71199  0.09282  0.09433  1.0000
  H   H2402     1.0  0.74976  0.09714  0.10565  1.0000
  H   H2403     1.0  0.76120  0.07173  0.10353  1.0000
  C   C2421     1.0  0.91148  0.09153  0.15855  1.0000
  C   C2422     1.0  0.92038  0.10167  0.15419  1.0000
  C   C2423     1.0  0.92664  0.10460  0.16425  1.0000
  Fe  Fe418     1.0  0.74436  0.14277  0.12179  1.0000
  H   H2404     1.0  0.86990  0.25304  0.12082  1.0000
  C   C2424     1.0  0.63356  0.21335  0.15554  1.0000
  H   H2405     1.0  0.92247  0.10726  0.14295  1.0000
  H   H2406     1.0  0.93347  0.11243  0.16077  1.0000
  H   H2407     1.0  0.71761  0.17657  0.04334  1.0000
  H   H2408     1.0  0.64300  0.24843  0.15818  1.0000
  C   C2425     1.0  0.83354  0.07018  0.12607  1.0000
  C   C2426     1.0  0.82622  0.06435  0.13982  1.0000
  C   C2427     1.0  0.81644  0.05567  0.14129  1.0000
  C   C2428     1.0  0.81387  0.05274  0.12903  1.0000
  C   C2429     1.0  0.82098  0.05873  0.11521  1.0000
  C   C2430     1.0  0.83072  0.06753  0.11374  1.0000
  H   H2409     1.0  0.82779  0.06678  0.14934  1.0000
  H   H2410     1.0  0.81086  0.05120  0.15200  1.0000
  H   H2411     1.0  0.81904  0.05655  0.10567  1.0000
  H   H2412     1.0  0.83625  0.07210  0.10305  1.0000
  C   C2431     1.0  0.87126  0.01843  0.15814  1.0000
  C   C2432     1.0  0.90806  0.01324  0.15245  1.0000
  H   H2413     1.0  0.71616  0.20211  0.16018  1.0000
  C   C2433     1.0  0.98337  0.22295  0.11332  1.0000
  H   H2414     1.0  0.50848  0.34820  0.15803  1.0000
  H   H2415     1.0  0.97186  0.22541  0.11760  1.0000
  S   S836      1.0  0.79918  0.14465  0.16393  1.0000
  H   H2416     1.0  0.54412  0.37518  0.13321  1.0000
  H   H2417     1.0  0.77993  0.99640  0.08460  1.0000
  H   H2418     1.0  0.83011  0.02150  0.12312  1.0000
  C   C2434     1.0  0.77095  0.28636  0.17269  1.0000
  H   H2419     1.0  0.83508  0.02744  0.14254  1.0000
  C   C2435     1.0  0.79796  0.23233  0.06640  1.0000
  C   C2436     1.0  0.81984  0.15520  0.03109  1.0000
  C   C2437     1.0  0.88655  0.21053  0.05550  1.0000
  N   N196      1.0  0.90800  0.02732  0.14551  1.0000
  C   C2438     1.0  0.70822  0.25874  0.17447  1.0000
  C   C2439     1.0  0.60352  0.32554  0.15690  1.0000
  C   C2440     1.0  0.87275  0.20964  0.05466  1.0000
  N   N197      1.0  0.70888  0.27507  0.10254  1.0000
  C   C2441     1.0  0.71376  0.28514  0.09089  1.0000
  C   C2442     1.0  0.71256  0.26073  0.10202  1.0000
  C   C2443     1.0  0.72304  0.28085  0.07851  1.0000
  C   C2444     1.0  0.72209  0.25604  0.08997  1.0000
  C   C2445     1.0  0.72738  0.26618  0.07817  1.0000
  C   C2446     1.0  0.69929  0.27969  0.11549  1.0000
  H   H2420     1.0  0.71062  0.29654  0.09118  1.0000
  H   H2421     1.0  0.70829  0.25282  0.11106  1.0000
  H   H2422     1.0  0.72678  0.28883  0.06920  1.0000
  H   H2423     1.0  0.72527  0.24464  0.08973  1.0000
  H   H2424     1.0  0.73450  0.26269  0.06861  1.0000
  H   H2425     1.0  0.70164  0.28956  0.11713  1.0000
  H   H2426     1.0  0.68789  0.28191  0.11448  1.0000
  H   H2427     1.0  0.70079  0.27121  0.12542  1.0000
  N   N198      1.0  0.73653  0.07681  0.14151  1.0000
  C   C2447     1.0  0.73656  0.06565  0.13554  1.0000
  C   C2448     1.0  0.74864  0.07753  0.14546  1.0000
  C   C2449     1.0  0.74883  0.05464  0.13368  1.0000
  C   C2450     1.0  0.76115  0.06674  0.14366  1.0000
  C   C2451     1.0  0.76119  0.05523  0.13776  1.0000
  C   C2452     1.0  0.72371  0.08847  0.14284  1.0000
  H   H2428     1.0  0.72717  0.06537  0.13184  1.0000
  H   H2429     1.0  0.74868  0.08650  0.15002  1.0000
  H   H2430     1.0  0.74888  0.04593  0.12871  1.0000
  H   H2431     1.0  0.77080  0.06729  0.14672  1.0000
  H   H2432     1.0  0.77084  0.04685  0.13622  1.0000
  C   C2453     1.0  0.55701  0.35425  0.14043  1.0000
  H   H2433     1.0  0.77014  0.21117  0.00516  1.0000
  C   C2454     1.0  0.64033  0.23865  0.15748  1.0000
  C   C2455     1.0  0.81410  0.13685  0.08702  1.0000
  H   H2434     1.0  0.82748  0.17336  0.01613  1.0000
  H   H2435     1.0  0.81434  0.14402  0.07641  1.0000
  C   C2456     1.0  0.71932  0.15799  0.06100  1.0000
  S   S837      1.0  0.78542  0.22809  0.04641  1.0000
  H   H2436     1.0  0.80794  0.22662  0.06084  1.0000
  C   C2457     1.0  0.58190  0.33839  0.17084  1.0000
  H   H2437     1.0  0.69717  0.14049  0.09929  1.0000
  H   H2438     1.0  0.79265  0.13142  0.12053  1.0000
  H   H2439     1.0  0.63988  0.33392  0.17941  1.0000
  N   N199      1.0  0.70009  0.15890  0.08206  1.0000
  C   C2458     1.0  0.81325  0.10857  0.12839  1.0000
  C   C2459     1.0  0.54361  0.33690  0.15670  1.0000
  H   H2440     1.0  0.79098  0.16699  0.01905  1.0000
  H   H2441     1.0  0.89590  0.20618  0.04799  1.0000
  C   C2460     1.0  0.86063  0.21512  0.06440  1.0000
  N   N200      1.0  0.75794  0.13381  0.17808  1.0000
  N   N201      1.0  0.90968  0.18716  0.10917  1.0000
  C   C2461     1.0  0.91973  0.18484  0.09687  1.0000
  C   C2462     1.0  0.91215  0.17963  0.12254  1.0000
  C   C2463     1.0  0.93284  0.17503  0.09783  1.0000
  C   C2464     1.0  0.92501  0.16955  0.12387  1.0000
  C   C2465     1.0  0.93548  0.16737  0.11144  1.0000
  C   C2466     1.0  0.89590  0.19728  0.10809  1.0000
  H   H2442     1.0  0.91774  0.19075  0.08624  1.0000
  H   H2443     1.0  0.90428  0.18164  0.13230  1.0000
  H   H2444     1.0  0.94091  0.17348  0.08808  1.0000
  H   H2445     1.0  0.92706  0.16379  0.13451  1.0000
  H   H2446     1.0  0.94567  0.15988  0.11244  1.0000
  H   H2447     1.0  0.88741  0.19126  0.10930  1.0000
  H   H2448     1.0  0.89274  0.20377  0.11663  1.0000
  H   H2449     1.0  0.76896  0.13543  0.15585  1.0000
  Fe  Fe419     1.0  0.82381  0.18359  0.04074  1.0000
  H   H2450     1.0  0.79399  0.18704  0.08587  1.0000
  C   C2467     1.0  0.95443  0.28677  0.07939  1.0000
  S   S838      1.0  0.61928  0.25620  0.14335  1.0000
  C   C2468     1.0  0.71292  0.15184  0.07509  1.0000
  Fe  Fe420     1.0  0.72839  0.12417  0.14727  1.0000
  H   H2451     1.0  0.87151  0.20463  0.04656  1.0000
  Fe  Fe421     1.0  0.85575  0.07985  0.17319  1.0000
  C   C2469     1.0  0.77548  0.20833  0.12406  1.0000
  C   C2470     1.0  0.86848  0.02616  0.14457  1.0000
  H   H2452     1.0  0.86758  0.03773  0.14167  1.0000
  C   C2471     1.0  0.87064  0.99616  0.15186  1.0000
  H   H2453     1.0  0.91693  0.28042  0.08098  1.0000
  H   H2454     1.0  0.83258  0.09821  0.16505  1.0000
  H   H2455     1.0  0.59965  0.42097  0.17292  1.0000
  C   C2472     1.0  0.77477  0.20094  0.11392  1.0000
  H   H2456     1.0  0.81191  0.09790  0.12766  1.0000
  N   N202      1.0  0.65418  0.33227  0.15894  1.0000
  C   C2473     1.0  0.66324  0.33980  0.16077  1.0000
  C   C2474     1.0  0.65802  0.32522  0.14773  1.0000
  C   C2475     1.0  0.67666  0.34019  0.15132  1.0000
  C   C2476     1.0  0.67134  0.32534  0.13810  1.0000
  C   C2477     1.0  0.68067  0.33292  0.13991  1.0000
  H   H2457     1.0  0.75165  0.14700  0.15878  1.0000
  H   H2458     1.0  0.82327  0.19510  0.99550  1.0000
  C   C2478     1.0  0.83502  0.01393  0.16377  1.0000
  H   H2459     1.0  0.68396  0.34598  0.15286  1.0000
  H   H2460     1.0  0.67443  0.31954  0.12935  1.0000
  H   H2461     1.0  0.69102  0.33314  0.13248  1.0000
  C   C2479     1.0  0.55678  0.34043  0.14894  1.0000
  N   N203      1.0  0.86285  0.24730  0.15749  1.0000
  C   C2480     1.0  0.84813  0.25079  0.16016  1.0000
  N   N204      1.0  0.77340  0.09702  0.05485  1.0000
  C   C2481     1.0  0.77772  0.08268  0.06066  1.0000
  C   C2482     1.0  0.75954  0.10250  0.05299  1.0000
  C   C2483     1.0  0.76815  0.07335  0.06447  1.0000
  C   C2484     1.0  0.74966  0.09347  0.05681  1.0000
  C   C2485     1.0  0.75406  0.07879  0.06249  1.0000
  C   C2486     1.0  0.78367  0.10653  0.05109  1.0000
  H   H2462     1.0  0.78865  0.07838  0.06231  1.0000
  H   H2463     1.0  0.75604  0.11389  0.04854  1.0000
  H   H2464     1.0  0.77158  0.06197  0.06902  1.0000
  H   H2465     1.0  0.73866  0.09785  0.05542  1.0000
  H   H2466     1.0  0.74653  0.07163  0.06557  1.0000
  H   H2467     1.0  0.77938  0.11747  0.04501  1.0000
  H   H2468     1.0  0.78613  0.10776  0.06110  1.0000
  H   H2469     1.0  0.79381  0.10189  0.04407  1.0000
  H   H2470     1.0  0.69459  0.18952  0.05646  1.0000
  H   H2471     1.0  0.71829  0.14139  0.08039  1.0000
  H   H2472     1.0  0.68353  0.17800  0.08110  1.0000
  H   H2473     1.0  0.81776  0.02552  0.04927  1.0000
  H   H2474     1.0  0.91759  0.30376  0.10426  1.0000
  H   H2475     1.0  0.56677  0.33257  0.14981  1.0000
  H   H2476     1.0  0.81554  0.11918  0.15440  1.0000
  C   C2487     1.0  0.69360  0.15246  0.09690  1.0000
  C   C2488     1.0  0.53109  0.36034  0.14729  1.0000
  C   C2489     1.0  0.75252  0.18371  0.14455  1.0000
  C   C2490     1.0  0.59793  0.31300  0.16163  1.0000
  C   C2491     1.0  0.70965  0.13630  0.17824  1.0000
  H   H2477     1.0  0.77998  0.15666  0.13399  1.0000
  H   H2478     1.0  0.89653  0.20499  0.09743  1.0000
  N   N205      1.0  0.81744  0.26027  0.05760  1.0000
  C   C2492     1.0  0.80484  0.26916  0.06264  1.0000
  C   C2493     1.0  0.81909  0.25530  0.04530  1.0000
  C   C2494     1.0  0.79320  0.27264  0.05575  1.0000
  C   C2495     1.0  0.80768  0.25862  0.03811  1.0000
  C   C2496     1.0  0.79461  0.26720  0.04349  1.0000
  C   C2497     1.0  0.82932  0.25620  0.06531  1.0000
  H   H2479     1.0  0.80345  0.27298  0.07248  1.0000
  H   H2480     1.0  0.82911  0.24833  0.04129  1.0000
  H   H2481     1.0  0.78299  0.27902  0.06025  1.0000
  H   H2482     1.0  0.80876  0.25417  0.02872  1.0000
  H   H2483     1.0  0.78551  0.26931  0.03837  1.0000
  H   H2484     1.0  0.82518  0.25560  0.07715  1.0000
  H   H2485     1.0  0.83588  0.24528  0.06407  1.0000
  H   H2486     1.0  0.83638  0.26417  0.06098  1.0000
  H   H2487     1.0  0.69669  0.15680  0.10480  1.0000
  H   H2488     1.0  0.81723  0.01011  0.12835  1.0000
  N   N206      1.0  0.65471  0.26011  0.08019  1.0000
  C   C2498     1.0  0.66243  0.24650  0.08447  1.0000
  C   C2499     1.0  0.64320  0.26613  0.08967  1.0000
  C   C2500     1.0  0.65880  0.23861  0.09862  1.0000
  C   C2501     1.0  0.63921  0.25851  0.10387  1.0000
  C   C2502     1.0  0.64708  0.24467  0.10836  1.0000
  C   C2503     1.0  0.65831  0.26792  0.06513  1.0000
  H   H2489     1.0  0.67149  0.24167  0.07693  1.0000
  H   H2490     1.0  0.63714  0.27698  0.08634  1.0000
  H   H2491     1.0  0.66499  0.22782  0.10193  1.0000
  H   H2492     1.0  0.63013  0.26335  0.11140  1.0000
  H   H2493     1.0  0.64409  0.23870  0.11938  1.0000
  H   H2494     1.0  0.65498  0.27981  0.06430  1.0000
  H   H2495     1.0  0.67015  0.26556  0.06083  1.0000
  H   H2496     1.0  0.65289  0.26471  0.05821  1.0000
  N   N207      1.0  0.70083  0.19675  0.15158  1.0000
  C   C2504     1.0  0.70625  0.20587  0.15616  1.0000
  C   C2505     1.0  0.68845  0.20167  0.14631  1.0000
  C   C2506     1.0  0.69901  0.22023  0.15588  1.0000
  C   C2507     1.0  0.68126  0.21612  0.14535  1.0000
  C   C2508     1.0  0.68653  0.22543  0.15029  1.0000
  C   C2509     1.0  0.70822  0.18160  0.15218  1.0000
  H   H2497     1.0  0.82703  0.16545  0.99434  1.0000
  H   H2498     1.0  0.68396  0.19437  0.14299  1.0000
  H   H2499     1.0  0.70326  0.22733  0.15974  1.0000
  H   H2500     1.0  0.67152  0.21993  0.14105  1.0000
  H   H2501     1.0  0.68098  0.23664  0.14979  1.0000
  C   C2510     1.0  0.78355  0.18010  0.03528  1.0000
  S   S839      1.0  0.82092  0.14006  0.99026  1.0000
  C   C2511     1.0  0.87064  0.24787  0.14357  1.0000
  N   N208      1.0  0.92920  0.28924  0.09022  1.0000
  C   C2512     1.0  0.94253  0.29129  0.08990  1.0000
  H   H2502     1.0  0.65637  0.22446  0.16902  1.0000
  C   C2513     1.0  0.84868  0.25583  0.13448  1.0000
  C   C2514     1.0  0.85626  0.14653  0.99385  1.0000
  C   C2515     1.0  0.98849  0.21620  0.10144  1.0000
  H   H2503     1.0  0.68774  0.31118  0.17191  1.0000
  C   C2516     1.0  0.76572  0.17380  0.14387  1.0000
  Fe  Fe422     1.0  0.84317  0.29362  0.17042  1.0000
  C   C2517     1.0  0.78712  0.21485  0.12164  1.0000
  C   C2518     1.0  0.80216  0.13898  0.09829  1.0000
  H   H2504     1.0  0.87428  0.99741  0.17232  1.0000
  H   H2505     1.0  0.54363  0.32630  0.16377  1.0000
  H   H2506     1.0  0.72359  0.09624  0.13226  1.0000
  H   H2507     1.0  0.82356  0.10690  0.13191  1.0000
  S   S840      1.0  0.72863  0.11197  0.17008  1.0000
  C   C2519     1.0  0.96772  0.24826  0.08647  1.0000
  N   N209      1.0  0.83251  0.98912  0.07318  1.0000
  H   H2508     1.0  0.82914  0.25798  0.15090  1.0000
  H   H2509     1.0  0.83632  0.00261  0.12309  1.0000
  H   H2510     1.0  0.75300  0.12780  0.16094  1.0000
  H   H2511     1.0  0.87082  0.25411  0.17212  1.0000
  H   H2512     1.0  0.63170  0.34075  0.16356  1.0000
  C   C2520     1.0  0.98235  0.24835  0.08056  1.0000
  C   C2521     1.0  0.82757  0.10693  0.17073  1.0000
  Fe  Fe423     1.0  0.83356  0.20710  0.01644  1.0000
  H   H2513     1.0  0.80441  0.11277  0.13694  1.0000
  H   H2514     1.0  0.86222  0.18312  0.99618  1.0000
  S   S841      1.0  0.84812  0.06446  0.16501  1.0000
  H   H2515     1.0  0.78034  0.12412  0.17565  1.0000
  H   H2516     1.0  0.89415  0.12447  0.16858  1.0000
  S   S842      1.0  0.76460  0.15119  0.11551  1.0000
  C   C2522     1.0  0.86831  0.00382  0.13813  1.0000
  C   C2523     1.0  0.78574  0.17760  0.02133  1.0000
  C   C2524     1.0  0.83322  0.01717  0.14943  1.0000
  H   H2517     1.0  0.59978  0.34796  0.15784  1.0000
  N   N210      1.0  0.81353  0.11851  0.11422  1.0000
  H   H2518     1.0  0.98648  0.14167  0.15918  1.0000
  H   H2519     1.0  0.84552  0.00055  0.07835  1.0000
  C   C2525     1.0  0.59550  0.33823  0.16154  1.0000
  H   H2520     1.0  0.83643  0.02389  0.06277  1.0000
  S   S843      1.0  0.84407  0.21252  0.99264  1.0000
  C   C2526     1.0  0.63997  0.33225  0.16857  1.0000
  N   N211      1.0  0.53097  0.34675  0.15565  1.0000
  C   C2527     1.0  0.82373  0.15902  0.00491  1.0000
  C   C2528     1.0  0.81977  0.14602  0.00611  1.0000
  S   S844      1.0  0.76482  0.12121  0.99678  1.0000
  C   C2529     1.0  0.96872  0.26016  0.10495  1.0000
  H   H2521     1.0  0.84191  0.25055  0.17116  1.0000
  C   C2530     1.0  0.96096  0.25408  0.09877  1.0000
  C   C2531     1.0  0.82196  0.01526  0.05588  1.0000
  H   H2522     1.0  0.83424  0.10729  0.10501  1.0000
  N   N212      1.0  0.78526  0.20017  0.10163  1.0000
  C   C2532     1.0  0.82855  0.19754  0.98426  1.0000
  H   H2523     1.0  0.88233  0.24530  0.14140  1.0000
  C   C2533     1.0  0.58437  0.31314  0.17097  1.0000
  H   H2524     1.0  0.72943  0.15230  0.05544  1.0000
  H   H2525     1.0  0.90655  0.29566  0.09822  1.0000
  H   H2526     1.0  0.88143  0.23753  0.16682  1.0000
  H   H2527     1.0  0.77970  0.20244  0.08155  1.0000
  S   S845      1.0  0.82749  0.28500  0.16387  1.0000
  H   H2528     1.0  0.65350  0.28139  0.17404  1.0000
  H   H2529     1.0  0.96506  0.28808  0.07937  1.0000
  C   C2534     1.0  0.82728  0.99441  0.15277  1.0000
  C   C2535     1.0  0.86073  0.16135  0.00771  1.0000
  N   N213      1.0  0.75427  0.32195  0.15063  1.0000
  C   C2536     1.0  0.92428  0.09719  0.17874  1.0000
  C   C2537     1.0  0.74686  0.31102  0.15537  1.0000
  H   H2530     1.0  0.86200  0.16293  0.01786  1.0000
  C   C2538     1.0  0.82570  0.12539  0.08946  1.0000
  S   S846      1.0  0.75779  0.26992  0.16386  1.0000
  C   C2539     1.0  0.76076  0.32603  0.13522  1.0000
  H   H2531     1.0  0.76972  0.23968  0.17086  1.0000
  H   H2532     1.0  0.74597  0.30506  0.14785  1.0000
  C   C2540     1.0  0.90594  0.00345  0.14545  1.0000
  C   C2541     1.0  0.77428  0.19557  0.05306  1.0000
  H   H2533     1.0  0.51429  0.34695  0.17441  1.0000
  H   H2534     1.0  0.77198  0.32725  0.13393  1.0000
  H   H2535     1.0  0.76128  0.31769  0.12918  1.0000
  H   H2536     1.0  0.75428  0.33640  0.13029  1.0000
  H   H2537     1.0  0.84317  0.25947  0.12548  1.0000
  H   H2538     1.0  0.68166  0.15499  0.09866  1.0000
  C   C2542     1.0  0.90568  0.03208  0.13165  1.0000
  S   S847      1.0  0.54332  0.36790  0.17626  1.0000
  Fe  Fe424     1.0  0.87065  0.05144  0.16381  1.0000
  H   H2539     1.0  0.60403  0.30319  0.15806  1.0000
  H   H2540     1.0  0.71725  0.17857  0.15797  1.0000
  C   C2543     1.0  0.75538  0.32944  0.16015  1.0000
  S   S848      1.0  0.72934  0.14744  0.14237  1.0000
  H   H2541     1.0  0.63100  0.20357  0.15467  1.0000
  C   C2544     1.0  0.78360  0.19370  0.09040  1.0000
  N   N214      1.0  0.82955  0.00738  0.14408  1.0000
  C   C2545     1.0  0.82222  0.98992  0.06574  1.0000
  H   H2542     1.0  0.78473  0.19512  0.05566  1.0000
  S   S849      1.0  0.87450  0.02710  0.17028  1.0000
  H   H2543     1.0  0.73489  0.29832  0.17373  1.0000
  H   H2544     1.0  0.71279  0.25314  0.16554  1.0000
  H   H2545     1.0  0.76677  0.21510  0.02987  1.0000
  C   C2546     1.0  0.81111  0.13002  0.17205  1.0000
  H   H2546     1.0  0.78235  0.18699  0.99959  1.0000
  C   C2547     1.0  0.83249  0.01433  0.06345  1.0000
  C   C2548     1.0  0.57633  0.32582  0.17557  1.0000
  S   S850      1.0  0.82871  0.31554  0.17159  1.0000
  H   H2547     1.0  0.58006  0.30342  0.17454  1.0000
  C   C2549     1.0  0.75791  0.13604  0.16265  1.0000
  C   C2550     1.0  0.81780  0.11873  0.16476  1.0000
  C   C2551     1.0  0.86368  0.25217  0.13187  1.0000
  H   H2548     1.0  0.80833  0.00365  0.05147  1.0000
  H   H2549     1.0  0.90535  0.04329  0.12621  1.0000
  C   C2552     1.0  0.60735  0.41641  0.18031  1.0000
  C   C2553     1.0  0.98721  0.23392  0.13152  1.0000
  H   H2550     1.0  0.52109  0.36826  0.14672  1.0000
  H   H2551     1.0  0.76983  0.09595  0.98271  1.0000
  H   H2552     1.0  0.70054  0.17438  0.15791  1.0000
  H   H2553     1.0  0.97598  0.24013  0.13168  1.0000
  C   C2554     1.0  0.74911  0.32592  0.17490  1.0000
  H   H2554     1.0  0.98764  0.24391  0.07100  1.0000
  H   H2555     1.0  0.91092  0.04812  0.14615  1.0000
  H   H2556     1.0  0.85785  0.13946  0.01639  1.0000
  C   C2555     1.0  0.74047  0.30720  0.17003  1.0000
  S   S851      1.0  0.78140  0.14791  0.98945  1.0000
  C   C2556     1.0  0.98337  0.26012  0.09912  1.0000
  C   C2557     1.0  0.91000  0.03734  0.15327  1.0000
  Fe  Fe425     1.0  0.78786  0.16228  0.17615  1.0000
  H   H2557     1.0  0.98179  0.16794  0.15816  1.0000
  H   H2558     1.0  0.57569  0.34822  0.17429  1.0000
  C   C2558     1.0  0.85850  0.14815  0.00686  1.0000
  H   H2559     1.0  0.65403  0.39876  0.17858  1.0000
  H   H2560     1.0  0.72795  0.26466  0.17406  1.0000
  C   C2559     1.0  0.87468  0.10842  0.17264  1.0000
  H   H2561     1.0  0.98099  0.21368  0.09653  1.0000
  C   C2560     1.0  0.87028  0.24389  0.16955  1.0000
  H   H2562     1.0  0.68709  0.25462  0.17752  1.0000
  H   H2563     1.0  0.86343  0.11475  0.17340  1.0000
  H   H2564     1.0  0.77891  0.30182  0.17883  1.0000
  H   H2565     1.0  0.78909  0.24963  0.16992  1.0000
  S   S852      1.0  0.50390  0.37881  0.17128  1.0000
  C   C2561     1.0  0.86085  0.17268  0.99557  1.0000
  H   H2566     1.0  0.86452  0.23734  0.17937  1.0000
  H   H2567     1.0  0.98765  0.22574  0.14178  1.0000
  C   C2562     1.0  0.74166  0.31468  0.17985  1.0000
  C   C2563     1.0  0.89079  0.11934  0.17984  1.0000
  S   S853      1.0  0.93266  0.14146  0.17923  1.0000
  C   C2564     1.0  0.99021  0.25409  0.08697  1.0000
  C   C2565     1.0  0.78939  0.24571  0.18161  1.0000
  H   H2568     1.0  0.75000  0.33190  0.18240  1.0000
  H   H2569     1.0  0.62051  0.22804  0.18231  1.0000
  C   C2566     1.0  0.99156  0.16099  0.16127  1.0000
  C   C2567     1.0  0.85865  0.17064  0.98272  1.0000
  H   H2570     1.0  0.65932  0.41182  0.36154  1.0000
  C   C2568     1.0  0.66868  0.42793  0.37285  1.0000
  H   H2571     1.0  0.78326  0.23559  0.20997  1.0000
  Fe  Fe426     1.0  0.76522  0.17021  0.20250  1.0000
  S   S854      1.0  0.76117  0.19384  0.19258  1.0000
  S   S855      1.0  0.75294  0.16006  0.22386  1.0000
  N   N215      1.0  0.60524  0.40225  0.18921  1.0000
  C   C2569     1.0  0.61032  0.39716  0.20176  1.0000
  Fe  Fe427     1.0  0.78530  0.18977  0.18597  1.0000
  S   S856      1.0  0.79790  0.20436  0.18884  1.0000
  H   H2572     1.0  0.69990  0.39060  0.21155  1.0000
  S   S857      1.0  0.78931  0.16636  0.19722  1.0000
  C   C2570     1.0  0.60146  0.21026  0.22004  1.0000
  S   S858      1.0  0.84392  0.09212  0.19077  1.0000
  H   H2573     1.0  0.71713  0.27736  0.19443  1.0000
  Fe  Fe428     1.0  0.72083  0.24822  0.27661  1.0000
  S   S859      1.0  0.72063  0.26176  0.25424  1.0000
  Fe  Fe429     1.0  0.72880  0.21998  0.26632  1.0000
  S   S860      1.0  0.72911  0.23105  0.24315  1.0000
  S   S861      1.0  0.73346  0.19583  0.27345  1.0000
  Fe  Fe430     1.0  0.74061  0.24567  0.24778  1.0000
  S   S862      1.0  0.75994  0.25180  0.23173  1.0000
  Fe  Fe431     1.0  0.70907  0.24595  0.25197  1.0000
  S   S863      1.0  0.68908  0.25264  0.24292  1.0000
  S   S864      1.0  0.74197  0.23340  0.27038  1.0000
  S   S865      1.0  0.70761  0.23357  0.27491  1.0000
  Fe  Fe432     1.0  0.57268  0.25274  0.28824  1.0000
  S   S866      1.0  0.58044  0.26894  0.26889  1.0000
  H   H2574     1.0  0.70774  0.19179  0.25494  1.0000
  H   H2575     1.0  0.86127  0.24084  0.20973  1.0000
  S   S867      1.0  0.55013  0.27257  0.25851  1.0000
  Fe  Fe433     1.0  0.57214  0.25773  0.25653  1.0000
  S   S868      1.0  0.58653  0.25319  0.23532  1.0000
  C   C2571     1.0  0.66293  0.40543  0.37167  1.0000
  S   S869      1.0  0.75675  0.35987  0.21945  1.0000
  S   S870      1.0  0.56571  0.24039  0.27572  1.0000
  C   C2572     1.0  0.69746  0.40150  0.20449  1.0000
  Fe  Fe434     1.0  0.68231  0.17382  0.20868  1.0000
  S   S871      1.0  0.68755  0.18794  0.18682  1.0000
  S   S872      1.0  0.69645  0.15204  0.21534  1.0000
  Fe  Fe435     1.0  0.65710  0.19708  0.21966  1.0000
  S   S873      1.0  0.66034  0.21326  0.19866  1.0000
  S   S874      1.0  0.63987  0.20064  0.23962  1.0000
  H   H2576     1.0  0.63970  0.34128  0.36516  1.0000
  C   C2573     1.0  0.62827  0.32398  0.37475  1.0000
  Fe  Fe436     1.0  0.68385  0.20545  0.19890  1.0000
  S   S875      1.0  0.70007  0.21941  0.19281  1.0000
  S   S876      1.0  0.65856  0.17862  0.20941  1.0000
  S   S877      1.0  0.68047  0.19093  0.22085  1.0000
  N   N216      1.0  0.53352  0.39085  0.24452  1.0000
  C   C2574     1.0  0.54264  0.31811  0.26694  1.0000
  H   H2577     1.0  0.72641  0.10785  0.20069  1.0000
  Fe  Fe437     1.0  0.69966  0.36758  0.36036  1.0000
  H   H2578     1.0  0.71499  0.21021  0.23313  1.0000
  C   C2575     1.0  0.67419  0.32049  0.37698  1.0000
  S   S878      1.0  0.93172  0.10056  0.19190  1.0000
  Fe  Fe438     1.0  0.82206  0.18660  0.25824  1.0000
  S   S879      1.0  0.83149  0.16861  0.27479  1.0000
  S   S880      1.0  0.80044  0.18645  0.25491  1.0000
  Fe  Fe439     1.0  0.84781  0.20053  0.25013  1.0000
  S   S881      1.0  0.85947  0.18380  0.26593  1.0000
  S   S882      1.0  0.85802  0.21829  0.23527  1.0000
  Fe  Fe440     1.0  0.85197  0.16813  0.25800  1.0000
  S   S883      1.0  0.86591  0.14783  0.25129  1.0000
  Fe  Fe441     1.0  0.83783  0.18618  0.28103  1.0000
  S   S884      1.0  0.83577  0.18657  0.30436  1.0000
  S   S885      1.0  0.84206  0.18475  0.24091  1.0000
  S   S886      1.0  0.82667  0.20424  0.26579  1.0000
  Fe  Fe442     1.0  0.79569  0.26245  0.31174  1.0000
  S   S887      1.0  0.80977  0.27402  0.29284  1.0000
  S   S888      1.0  0.80420  0.24353  0.32805  1.0000
  Fe  Fe443     1.0  0.76846  0.28474  0.30671  1.0000
  S   S889      1.0  0.77996  0.29783  0.28687  1.0000
  S   S890      1.0  0.74565  0.29344  0.31706  1.0000
  Fe  Fe444     1.0  0.79191  0.27643  0.28150  1.0000
  S   S891      1.0  0.79962  0.27371  0.25853  1.0000
  Fe  Fe445     1.0  0.79669  0.29433  0.29986  1.0000
  S   S892      1.0  0.80504  0.31261  0.30222  1.0000
  S   S893      1.0  0.77856  0.26337  0.30005  1.0000
  S   S894      1.0  0.78445  0.28246  0.32001  1.0000
  C   C2576     1.0  0.74873  0.29295  0.25233  1.0000
  S   S895      1.0  0.70612  0.34414  0.35980  1.0000
  S   S896      1.0  0.74638  0.33302  0.35866  1.0000
  C   C2577     1.0  0.87708  0.10384  0.19781  1.0000
  H   H2579     1.0  0.67173  0.28144  0.27770  1.0000
  C   C2578     1.0  0.60836  0.38374  0.21052  1.0000
  H   H2580     1.0  0.56636  0.25927  0.33651  1.0000
  Fe  Fe446     1.0  0.74498  0.36503  0.27159  1.0000
  S   S897      1.0  0.74339  0.38142  0.25090  1.0000
  S   S898      1.0  0.75780  0.36806  0.28609  1.0000
  Fe  Fe447     1.0  0.71968  0.38199  0.25818  1.0000
  S   S899      1.0  0.70128  0.40116  0.25813  1.0000
  S   S900      1.0  0.72116  0.36687  0.27958  1.0000
  H   H2581     1.0  0.73549  0.14283  0.18354  1.0000
  C   C2579     1.0  0.68793  0.26679  0.19269  1.0000
  C   C2580     1.0  0.53889  0.40116  0.24726  1.0000
  Fe  Fe448     1.0  0.69552  0.46489  0.28595  1.0000
  S   S901      1.0  0.67943  0.45151  0.29897  1.0000
  S   S902      1.0  0.71566  0.45395  0.27277  1.0000
  Fe  Fe449     1.0  0.66296  0.47087  0.29183  1.0000
  S   S903      1.0  0.64352  0.47122  0.28344  1.0000
  Fe  Fe450     1.0  0.67885  0.46233  0.31668  1.0000
  S   S904      1.0  0.68131  0.44879  0.33877  1.0000
  S   S905      1.0  0.67917  0.48349  0.27725  1.0000
  S   S906      1.0  0.69624  0.47444  0.30415  1.0000
  H   H2582     1.0  0.57081  0.27804  0.34499  1.0000
  C   C2581     1.0  0.77579  0.23399  0.20438  1.0000
  Fe  Fe451     1.0  0.54626  0.34690  0.19238  1.0000
  S   S907      1.0  0.71901  0.36805  0.36807  1.0000
  C   C2582     1.0  0.51097  0.23023  0.26238  1.0000
  Fe  Fe452     1.0  0.54512  0.37782  0.19394  1.0000
  S   S908      1.0  0.55755  0.39560  0.18981  1.0000
  C   C2583     1.0  0.49664  0.24801  0.28205  1.0000
  S   S909      1.0  0.55004  0.35652  0.20917  1.0000
  S   S910      1.0  0.52258  0.34814  0.20153  1.0000
  S   S911      1.0  0.59844  0.43850  0.24780  1.0000
  Fe  Fe453     1.0  0.62238  0.43045  0.21140  1.0000
  S   S912      1.0  0.61859  0.41313  0.23123  1.0000
  Fe  Fe454     1.0  0.59556  0.42480  0.23378  1.0000
  S   S913      1.0  0.57955  0.41017  0.23904  1.0000
  Fe  Fe455     1.0  0.62205  0.42832  0.24293  1.0000
  S   S914      1.0  0.63760  0.42032  0.25820  1.0000
  S   S915      1.0  0.52123  0.38181  0.20258  1.0000
  C   C2584     1.0  0.56396  0.39920  0.20355  1.0000
  C   C2585     1.0  0.56471  0.38941  0.21680  1.0000
  C   C2586     1.0  0.57003  0.39264  0.22738  1.0000
  C   C2587     1.0  0.57459  0.40568  0.22485  1.0000
  C   C2588     1.0  0.57409  0.41533  0.21151  1.0000
  C   C2589     1.0  0.56877  0.41211  0.20094  1.0000
  H   H2583     1.0  0.56118  0.37937  0.21889  1.0000
  H   H2584     1.0  0.57041  0.38510  0.23766  1.0000
  H   H2585     1.0  0.57742  0.42547  0.20947  1.0000
  S   S916      1.0  0.99038  0.12150  0.19998  1.0000
  C   C2590     1.0  0.64334  0.45700  0.27561  1.0000
  C   C2591     1.0  0.65188  0.44315  0.27882  1.0000
  C   C2592     1.0  0.65025  0.43186  0.27335  1.0000
  C   C2593     1.0  0.64015  0.43444  0.26463  1.0000
  C   C2594     1.0  0.63200  0.44835  0.26111  1.0000
  C   C2595     1.0  0.63364  0.45954  0.26656  1.0000
  H   H2586     1.0  0.65943  0.44106  0.28579  1.0000
  H   H2587     1.0  0.65666  0.42111  0.27605  1.0000
  H   H2588     1.0  0.62425  0.45046  0.25435  1.0000
  H   H2589     1.0  0.62721  0.47020  0.26389  1.0000
  C   C2596     1.0  0.70554  0.41633  0.26096  1.0000
  C   C2597     1.0  0.69455  0.42822  0.26381  1.0000
  C   C2598     1.0  0.69770  0.44004  0.26696  1.0000
  C   C2599     1.0  0.71185  0.44001  0.26724  1.0000
  C   C2600     1.0  0.72290  0.42833  0.26392  1.0000
  C   C2601     1.0  0.71973  0.41645  0.26092  1.0000
  H   H2590     1.0  0.68356  0.42826  0.26377  1.0000
  H   H2591     1.0  0.68918  0.44924  0.26907  1.0000
  H   H2592     1.0  0.73387  0.42834  0.26402  1.0000
  H   H2593     1.0  0.72827  0.40740  0.25866  1.0000
  C   C2602     1.0  0.68485  0.43034  0.33865  1.0000
  C   C2603     1.0  0.67732  0.42529  0.33138  1.0000
  C   C2604     1.0  0.67963  0.41047  0.33192  1.0000
  S   S917      1.0  0.55341  0.30421  0.27730  1.0000
  S   S918      1.0  0.68184  0.36900  0.21525  1.0000
  C   C2605     1.0  0.69466  0.42048  0.34653  1.0000
  H   H2594     1.0  0.66937  0.43278  0.32571  1.0000
  H   H2595     1.0  0.67363  0.40662  0.32641  1.0000
  C   C2606     1.0  0.88327  0.10543  0.20852  1.0000
  H   H2596     1.0  0.70051  0.42436  0.35217  1.0000
  C   C2607     1.0  0.79325  0.32883  0.29668  1.0000
  C   C2608     1.0  0.78920  0.33970  0.30468  1.0000
  C   C2609     1.0  0.77868  0.35205  0.30103  1.0000
  C   C2610     1.0  0.77214  0.35347  0.28947  1.0000
  C   C2611     1.0  0.77668  0.34291  0.28110  1.0000
  C   C2612     1.0  0.78731  0.33069  0.28462  1.0000
  H   H2597     1.0  0.79387  0.33839  0.31393  1.0000
  H   H2598     1.0  0.77534  0.36029  0.30744  1.0000
  H   H2599     1.0  0.77214  0.34415  0.27185  1.0000
  H   H2600     1.0  0.79101  0.32274  0.27791  1.0000
  C   C2613     1.0  0.74568  0.30454  0.32859  1.0000
  C   C2614     1.0  0.75743  0.31095  0.32639  1.0000
  C   C2615     1.0  0.75760  0.31953  0.33575  1.0000
  C   C2616     1.0  0.74593  0.32197  0.34726  1.0000
  C   C2617     1.0  0.73410  0.31569  0.34938  1.0000
  C   C2618     1.0  0.73393  0.30708  0.34000  1.0000
  H   H2601     1.0  0.76624  0.30970  0.31719  1.0000
  H   H2602     1.0  0.76669  0.32451  0.33387  1.0000
  H   H2603     1.0  0.52494  0.40825  0.21209  1.0000
  H   H2604     1.0  0.72480  0.30218  0.34177  1.0000
  C   C2619     1.0  0.84614  0.22832  0.22398  1.0000
  H   H2605     1.0  0.70348  0.30813  0.29954  1.0000
  C   C2620     1.0  0.77228  0.29946  0.23090  1.0000
  C   C2621     1.0  0.82694  0.20272  0.31039  1.0000
  C   C2622     1.0  0.82455  0.20258  0.32518  1.0000
  C   C2623     1.0  0.81757  0.21516  0.33047  1.0000
  C   C2624     1.0  0.81287  0.22798  0.32101  1.0000
  C   C2625     1.0  0.81524  0.22823  0.30616  1.0000
  C   C2626     1.0  0.82234  0.21560  0.30085  1.0000
  H   H2606     1.0  0.82810  0.19270  0.33260  1.0000
  H   H2607     1.0  0.81578  0.21491  0.34194  1.0000
  H   H2608     1.0  0.81175  0.23816  0.29879  1.0000
  H   H2609     1.0  0.82440  0.21592  0.28941  1.0000
  C   C2627     1.0  0.90626  0.15917  0.21929  1.0000
  C   C2628     1.0  0.90434  0.14491  0.22290  1.0000
  C   C2629     1.0  0.89172  0.14142  0.23247  1.0000
  C   C2630     1.0  0.88103  0.15223  0.23825  1.0000
  C   C2631     1.0  0.88275  0.16653  0.23413  1.0000
  C   C2632     1.0  0.89536  0.16997  0.22473  1.0000
  H   H2610     1.0  0.91279  0.13652  0.21875  1.0000
  H   H2611     1.0  0.89040  0.13034  0.23565  1.0000
  H   H2612     1.0  0.87452  0.17497  0.23837  1.0000
  C   C2633     1.0  0.53361  0.32932  0.27343  1.0000
  H   H2613     1.0  0.77835  0.30676  0.24703  1.0000
  C   C2634     1.0  0.50508  0.27990  0.25706  1.0000
  H   H2614     1.0  0.67427  0.41745  0.24680  1.0000
  C   C2635     1.0  0.52642  0.34173  0.25065  1.0000
  Fe  Fe456     1.0  0.62176  0.28097  0.34428  1.0000
  H   H2615     1.0  0.83098  0.27241  0.33181  1.0000
  H   H2616     1.0  0.49982  0.21718  0.30283  1.0000
  C   C2636     1.0  0.56735  0.28577  0.33571  1.0000
  C   C2637     1.0  0.79145  0.32959  0.22966  1.0000
  C   C2638     1.0  0.70421  0.14081  0.20265  1.0000
  C   C2639     1.0  0.71264  0.12719  0.20710  1.0000
  C   C2640     1.0  0.71974  0.11825  0.19716  1.0000
  N   N217      1.0  0.76266  0.29327  0.22805  1.0000
  C   C2641     1.0  0.50914  0.27005  0.24796  1.0000
  C   C2642     1.0  0.65239  0.40622  0.21111  1.0000
  H   H2617     1.0  0.71381  0.12357  0.21828  1.0000
  C   C2643     1.0  0.69004  0.28058  0.20940  1.0000
  C   C2644     1.0  0.71479  0.19956  0.23201  1.0000
  H   H2618     1.0  0.53500  0.42695  0.21670  1.0000
  C   C2645     1.0  0.67531  0.41914  0.23516  1.0000
  H   H2619     1.0  0.64775  0.29751  0.19137  1.0000
  H   H2620     1.0  0.67664  0.26745  0.19778  1.0000
  Fe  Fe457     1.0  0.72390  0.34948  0.26758  1.0000
  H   H2621     1.0  0.55051  0.31001  0.24720  1.0000
  H   H2622     1.0  0.53635  0.33108  0.23267  1.0000
  C   C2646     1.0  0.60165  0.23899  0.23689  1.0000
  C   C2647     1.0  0.60124  0.22738  0.24880  1.0000
  C   C2648     1.0  0.61297  0.21559  0.24937  1.0000
  C   C2649     1.0  0.62521  0.21538  0.23811  1.0000
  C   C2650     1.0  0.62570  0.22707  0.22626  1.0000
  C   C2651     1.0  0.61394  0.23886  0.22566  1.0000
  H   H2623     1.0  0.59176  0.22728  0.25739  1.0000
  H   H2624     1.0  0.61253  0.20655  0.25854  1.0000
  H   H2625     1.0  0.63515  0.22709  0.21762  1.0000
  H   H2626     1.0  0.61431  0.24784  0.21643  1.0000
  C   C2652     1.0  0.77114  0.25702  0.23972  1.0000
  C   C2653     1.0  0.78432  0.25999  0.23140  1.0000
  C   C2654     1.0  0.79308  0.26499  0.23733  1.0000
  C   C2655     1.0  0.78870  0.26693  0.25164  1.0000
  C   C2656     1.0  0.77563  0.26372  0.26009  1.0000
  C   C2657     1.0  0.76682  0.25879  0.25410  1.0000
  H   H2627     1.0  0.78769  0.25863  0.22027  1.0000
  H   H2628     1.0  0.80316  0.26750  0.23071  1.0000
  H   H2629     1.0  0.77215  0.26535  0.27110  1.0000
  H   H2630     1.0  0.75649  0.25685  0.26047  1.0000
  C   C2658     1.0  0.69199  0.24397  0.22861  1.0000
  C   C2659     1.0  0.68085  0.23878  0.22667  1.0000
  C   C2660     1.0  0.68334  0.23113  0.21569  1.0000
  C   C2661     1.0  0.69684  0.22910  0.20639  1.0000
  C   C2662     1.0  0.70787  0.23468  0.20804  1.0000
  C   C2663     1.0  0.70547  0.24203  0.21923  1.0000
  H   H2631     1.0  0.67042  0.24039  0.23386  1.0000
  H   H2632     1.0  0.67478  0.22687  0.21439  1.0000
  H   H2633     1.0  0.71826  0.23327  0.20071  1.0000
  H   H2634     1.0  0.71393  0.24649  0.22040  1.0000
  Fe  Fe458     1.0  0.62926  0.27435  0.37432  1.0000
  S   S919      1.0  0.55895  0.32587  0.18635  1.0000
  H   H2635     1.0  0.55221  0.28838  0.30776  1.0000
  H   H2636     1.0  0.54340  0.39905  0.25681  1.0000
  S   S920      1.0  0.60602  0.28727  0.32927  1.0000
  C   C2664     1.0  0.71926  0.31036  0.23709  1.0000
  C   C2665     1.0  0.79406  0.30065  0.34299  1.0000
  H   H2637     1.0  0.90528  0.12769  0.18717  1.0000
  H   H2638     1.0  0.80040  0.35253  0.26005  1.0000
  C   C2666     1.0  0.66348  0.30498  0.36909  1.0000
  C   C2667     1.0  0.79764  0.20106  0.20737  1.0000
  C   C2668     1.0  0.78721  0.19423  0.21743  1.0000
  C   C2669     1.0  0.78763  0.19047  0.23220  1.0000
  C   C2670     1.0  0.79880  0.19311  0.23683  1.0000
  C   C2671     1.0  0.80895  0.20036  0.22685  1.0000
  C   C2672     1.0  0.80829  0.20450  0.21213  1.0000
  H   H2639     1.0  0.77894  0.19163  0.21380  1.0000
  H   H2640     1.0  0.77968  0.18495  0.23992  1.0000
  H   H2641     1.0  0.81742  0.20262  0.23043  1.0000
  H   H2642     1.0  0.81632  0.20990  0.20439  1.0000
  C   C2673     1.0  0.74854  0.17004  0.23753  1.0000
  C   C2674     1.0  0.75020  0.18436  0.23439  1.0000
  C   C2675     1.0  0.74588  0.19233  0.24540  1.0000
  C   C2676     1.0  0.73985  0.18599  0.25956  1.0000
  C   C2677     1.0  0.73857  0.17156  0.26274  1.0000
  C   C2678     1.0  0.74283  0.16364  0.25175  1.0000
  H   H2643     1.0  0.75461  0.18937  0.22348  1.0000
  H   H2644     1.0  0.74732  0.20330  0.24294  1.0000
  H   H2645     1.0  0.73402  0.16657  0.27369  1.0000
  H   H2646     1.0  0.74156  0.15257  0.25426  1.0000
  C   C2679     1.0  0.78520  0.27927  0.35668  1.0000
  C   C2680     1.0  0.64924  0.40783  0.19757  1.0000
  H   H2647     1.0  0.78879  0.25524  0.18605  1.0000
  H   H2648     1.0  0.79962  0.36065  0.19893  1.0000
  C   C2681     1.0  0.82390  0.11758  0.19148  1.0000
  H   H2649     1.0  0.52045  0.26541  0.24447  1.0000
  H   H2650     1.0  0.59428  0.45287  0.27545  1.0000
  S   S921      1.0  0.59463  0.47836  0.22431  1.0000
  H   H2651     1.0  0.82634  0.11716  0.20177  1.0000
  C   C2682     1.0  0.59984  0.47111  0.27957  1.0000
  C   C2683     1.0  0.59988  0.25006  0.32294  1.0000
  C   C2684     1.0  0.91541  0.08704  0.18308  1.0000
  H   H2652     1.0  0.78061  0.12126  0.20146  1.0000
  H   H2653     1.0  0.60136  0.23874  0.32819  1.0000
  H   H2654     1.0  0.84480  0.17017  0.20079  1.0000
  H   H2655     1.0  0.64586  0.29044  0.28815  1.0000
  H   H2656     1.0  0.69273  0.27544  0.31348  1.0000
  C   C2685     1.0  0.53356  0.37677  0.25452  1.0000
  C   C2686     1.0  0.54344  0.31859  0.25230  1.0000
  H   H2657     1.0  0.84417  0.25526  0.19407  1.0000
  C   C2687     1.0  0.56986  0.29976  0.33269  1.0000
  S   S922      1.0  0.52110  0.25271  0.28663  1.0000
  C   C2688     1.0  0.68924  0.40061  0.33998  1.0000
  C   C2689     1.0  0.69663  0.29130  0.33505  1.0000
  S   S923      1.0  0.74788  0.34586  0.26188  1.0000
  N   N218      1.0  0.67768  0.36079  0.25498  1.0000
  C   C2690     1.0  0.66527  0.36916  0.25093  1.0000
  C   C2691     1.0  0.68363  0.36471  0.26415  1.0000
  C   C2692     1.0  0.65852  0.38184  0.25611  1.0000
  C   C2693     1.0  0.67727  0.37740  0.26937  1.0000
  C   C2694     1.0  0.66464  0.38601  0.26529  1.0000
  C   C2695     1.0  0.68500  0.34774  0.24923  1.0000
  H   H2658     1.0  0.66069  0.36624  0.24341  1.0000
  H   H2659     1.0  0.69344  0.35805  0.26736  1.0000
  H   H2660     1.0  0.64876  0.38858  0.25278  1.0000
  H   H2661     1.0  0.68222  0.38066  0.27636  1.0000
  H   H2662     1.0  0.65963  0.39595  0.26916  1.0000
  H   H2663     1.0  0.67850  0.34503  0.24295  1.0000
  H   H2664     1.0  0.69538  0.34941  0.24176  1.0000
  H   H2665     1.0  0.68718  0.33833  0.25820  1.0000
  C   C2696     1.0  0.66930  0.38372  0.20815  1.0000
  C   C2697     1.0  0.62130  0.20915  0.19944  1.0000
  H   H2666     1.0  0.59239  0.25235  0.20140  1.0000
  Fe  Fe459     1.0  0.51968  0.36984  0.18649  1.0000
  H   H2667     1.0  0.61575  0.40360  0.20516  1.0000
  C   C2698     1.0  0.70480  0.30025  0.30948  1.0000
  C   C2699     1.0  0.61514  0.22313  0.19294  1.0000
  C   C2700     1.0  0.85044  0.23900  0.21215  1.0000
  C   C2701     1.0  0.71060  0.18926  0.24424  1.0000
  C   C2702     1.0  0.49586  0.23296  0.26623  1.0000
  C   C2703     1.0  0.79446  0.36948  0.20498  1.0000
  H   H2668     1.0  0.74346  0.28496  0.23635  1.0000
  Fe  Fe460     1.0  0.72447  0.34401  0.36924  1.0000
  H   H2669     1.0  0.65875  0.29566  0.37159  1.0000
  C   C2704     1.0  0.60206  0.27446  0.32195  1.0000
  H   H2670     1.0  0.70757  0.16734  0.25213  1.0000
  H   H2671     1.0  0.53054  0.23419  0.26534  1.0000
  N   N219      1.0  0.60262  0.23060  0.19996  1.0000
  C   C2705     1.0  0.81401  0.12940  0.18552  1.0000
  C   C2706     1.0  0.84269  0.15924  0.22327  1.0000
  C   C2707     1.0  0.53421  0.41699  0.22471  1.0000
  H   H2672     1.0  0.70075  0.42590  0.30619  1.0000
  C   C2708     1.0  0.70044  0.23994  0.31205  1.0000
  H   H2673     1.0  0.53294  0.32895  0.28475  1.0000
  C   C2709     1.0  0.83308  0.15452  0.23597  1.0000
  H   H2674     1.0  0.58588  0.27376  0.29526  1.0000
  N   N220      1.0  0.77675  0.21086  0.27364  1.0000
  C   C2710     1.0  0.78245  0.21870  0.26054  1.0000
  C   C2711     1.0  0.77990  0.21185  0.28614  1.0000
  C   C2712     1.0  0.79157  0.22779  0.25974  1.0000
  C   C2713     1.0  0.78874  0.22109  0.28576  1.0000
  C   C2714     1.0  0.79454  0.22916  0.27246  1.0000
  C   C2715     1.0  0.76774  0.20081  0.27439  1.0000
  H   H2675     1.0  0.78021  0.21773  0.25058  1.0000
  H   H2676     1.0  0.77563  0.20542  0.29648  1.0000
  H   H2677     1.0  0.79628  0.23373  0.24930  1.0000
  H   H2678     1.0  0.79123  0.22185  0.29570  1.0000
  H   H2679     1.0  0.80143  0.23635  0.27198  1.0000
  H   H2680     1.0  0.75774  0.20236  0.28285  1.0000
  H   H2681     1.0  0.76444  0.20236  0.26394  1.0000
  H   H2682     1.0  0.77378  0.18949  0.27697  1.0000
  C   C2716     1.0  0.80660  0.29184  0.33680  1.0000
  C   C2717     1.0  0.59310  0.25506  0.31102  1.0000
  H   H2683     1.0  0.68354  0.25617  0.28676  1.0000
  C   C2718     1.0  0.82303  0.16773  0.21065  1.0000
  C   C2719     1.0  0.68927  0.23545  0.32328  1.0000
  H   H2684     1.0  0.85397  0.15792  0.22342  1.0000
  S   S924      1.0  0.58663  0.24293  0.30502  1.0000
  C   C2720     1.0  0.53548  0.33055  0.24407  1.0000
  C   C2721     1.0  0.66561  0.27435  0.28608  1.0000
  C   C2722     1.0  0.66637  0.38539  0.19446  1.0000
  C   C2723     1.0  0.72596  0.32166  0.23580  1.0000
  C   C2724     1.0  0.71628  0.28828  0.30931  1.0000
  S   S925      1.0  0.65770  0.31064  0.34178  1.0000
  S   S926      1.0  0.66437  0.24038  0.34360  1.0000
  H   H2685     1.0  0.82252  0.25016  0.24473  1.0000
  Fe  Fe461     1.0  0.52609  0.35981  0.21678  1.0000
  S   S927      1.0  0.92268  0.16362  0.20937  1.0000
  H   H2686     1.0  0.68621  0.29224  0.20504  1.0000
  H   H2687     1.0  0.73684  0.31175  0.19127  1.0000
  C   C2725     1.0  0.72958  0.26525  0.32143  1.0000
  C   C2726     1.0  0.82671  0.24490  0.20652  1.0000
  H   H2688     1.0  0.69335  0.39994  0.19554  1.0000
  H   H2689     1.0  0.79947  0.37896  0.19964  1.0000
  H   H2690     1.0  0.67369  0.26741  0.33373  1.0000
  H   H2691     1.0  0.74916  0.22842  0.18460  1.0000
  H   H2692     1.0  0.73236  0.32592  0.22548  1.0000
  H   H2693     1.0  0.51658  0.22318  0.25489  1.0000
  H   H2694     1.0  0.63136  0.20334  0.19395  1.0000
  H   H2695     1.0  0.78160  0.30195  0.22263  1.0000
  H   H2696     1.0  0.59619  0.20548  0.23080  1.0000
  H   H2697     1.0  0.63231  0.27406  0.30743  1.0000
  S   S928      1.0  0.68353  0.34867  0.18369  1.0000
  N   N221      1.0  0.71849  0.18261  0.21687  1.0000
  C   C2727     1.0  0.71891  0.19597  0.21834  1.0000
  C   C2728     1.0  0.78549  0.37022  0.23078  1.0000
  C   C2729     1.0  0.61449  0.20275  0.21315  1.0000
  C   C2730     1.0  0.72290  0.17899  0.20249  1.0000
  H   H2698     1.0  0.72236  0.20394  0.20890  1.0000
  C   C2731     1.0  0.75851  0.29918  0.25536  1.0000
  C   C2732     1.0  0.60429  0.25974  0.32844  1.0000
  H   H2699     1.0  0.72147  0.18885  0.19374  1.0000
  H   H2700     1.0  0.73438  0.17337  0.20073  1.0000
  H   H2701     1.0  0.71624  0.17187  0.20153  1.0000
  C   C2733     1.0  0.75100  0.29003  0.23854  1.0000
  H   H2702     1.0  0.70425  0.39803  0.35351  1.0000
  H   H2703     1.0  0.75697  0.30136  0.26605  1.0000
  H   H2704     1.0  0.57921  0.46821  0.25787  1.0000
  Fe  Fe462     1.0  0.96846  0.12868  0.19369  1.0000
  C   C2734     1.0  0.67939  0.24543  0.33091  1.0000
  H   H2705     1.0  0.88040  0.09975  0.21967  1.0000
  H   H2706     1.0  0.51823  0.34946  0.27054  1.0000
  H   H2707     1.0  0.54416  0.42228  0.23931  1.0000
  H   H2708     1.0  0.73605  0.26435  0.32952  1.0000
  C   C2735     1.0  0.74538  0.13800  0.18747  1.0000
  H   H2709     1.0  0.51323  0.28292  0.26066  1.0000
  S   S929      1.0  0.69131  0.38211  0.34105  1.0000
  C   C2736     1.0  0.76447  0.22720  0.21241  1.0000
  N   N222      1.0  0.71785  0.27806  0.32173  1.0000
  H   H2710     1.0  0.60563  0.42428  0.18731  1.0000
  H   H2711     1.0  0.76465  0.28311  0.18341  1.0000
  Fe  Fe463     1.0  0.66370  0.19437  0.18844  1.0000
  C   C2737     1.0  0.78691  0.36594  0.24529  1.0000
  C   C2738     1.0  0.67656  0.43540  0.37720  1.0000
  H   H2712     1.0  0.68581  0.31082  0.32271  1.0000
  S   S930      1.0  0.71299  0.34217  0.19659  1.0000
  H   H2713     1.0  0.77674  0.27425  0.36414  1.0000
  N   N223      1.0  0.80840  0.27711  0.34049  1.0000
  S   S931      1.0  0.80328  0.29737  0.19071  1.0000
  C   C2739     1.0  0.79785  0.27078  0.35020  1.0000
  C   C2740     1.0  0.76462  0.29059  0.21351  1.0000
  H   H2714     1.0  0.81975  0.26814  0.32220  1.0000
  H   H2715     1.0  0.76325  0.22358  0.22407  1.0000
  H   H2716     1.0  0.59071  0.37433  0.18994  1.0000
  S   S932      1.0  0.81434  0.25564  0.19607  1.0000
  C   C2741     1.0  0.70260  0.14531  0.18820  1.0000
  S   S933      1.0  0.64479  0.27989  0.33296  1.0000
  C   C2742     1.0  0.66239  0.39425  0.21634  1.0000
  S   S934      1.0  0.76412  0.16386  0.18261  1.0000
  C   C2743     1.0  0.70951  0.31070  0.26261  1.0000
  C   C2744     1.0  0.71050  0.27236  0.19077  1.0000
  H   H2717     1.0  0.56827  0.32039  0.31777  1.0000
  H   H2718     1.0  0.76061  0.30075  0.20614  1.0000
  C   C2745     1.0  0.60137  0.37540  0.20621  1.0000
  N   N224      1.0  0.68672  0.41162  0.21261  1.0000
  H   H2719     1.0  0.66075  0.44181  0.20736  1.0000
  H   H2720     1.0  0.72511  0.25541  0.32375  1.0000
  C   C2746     1.0  0.61570  0.48417  0.23457  1.0000
  C   C2747     1.0  0.65780  0.29692  0.18345  1.0000
  C   C2748     1.0  0.79202  0.33177  0.20427  1.0000
  H   H2721     1.0  0.56825  0.41973  0.19072  1.0000
  H   H2722     1.0  0.79897  0.25912  0.35260  1.0000
  S   S935      1.0  0.65300  0.27193  0.36506  1.0000
  C   C2749     1.0  0.77043  0.30235  0.24464  1.0000
  H   H2723     1.0  0.53834  0.37580  0.26393  1.0000
  H   H2724     1.0  0.67900  0.42470  0.19385  1.0000
  C   C2750     1.0  0.75470  0.22535  0.20534  1.0000
  C   C2751     1.0  0.51175  0.24524  0.27826  1.0000
  S   S936      1.0  0.63611  0.42257  0.19160  1.0000
  C   C2752     1.0  0.71121  0.30470  0.25054  1.0000
  H   H2725     1.0  0.81634  0.35053  0.21515  1.0000
  H   H2726     1.0  0.77315  0.34256  0.24114  1.0000
  C   C2753     1.0  0.67500  0.32961  0.36323  1.0000
  H   H2727     1.0  0.77404  0.34652  0.19608  1.0000
  H   H2728     1.0  0.81470  0.29688  0.32867  1.0000
  H   H2729     1.0  0.60903  0.25587  0.33794  1.0000
  S   S937      1.0  0.66069  0.48072  0.31090  1.0000
  C   C2754     1.0  0.75655  0.22995  0.19030  1.0000
  C   C2755     1.0  0.66780  0.43289  0.21302  1.0000
  C   C2756     1.0  0.77814  0.33935  0.23095  1.0000
  C   C2757     1.0  0.71053  0.17554  0.24268  1.0000
  C   C2758     1.0  0.89341  0.11412  0.20468  1.0000
  C   C2759     1.0  0.66633  0.43078  0.22800  1.0000
  C   C2760     1.0  0.51890  0.23644  0.26828  1.0000
  H   H2730     1.0  0.63715  0.25185  0.32883  1.0000
  H   H2731     1.0  0.74627  0.42322  0.29639  1.0000
  C   C2761     1.0  0.66433  0.31406  0.35532  1.0000
  H   H2732     1.0  0.70807  0.23221  0.30618  1.0000
  C   C2762     1.0  0.77060  0.12582  0.19769  1.0000
  H   H2733     1.0  0.58569  0.23019  0.21880  1.0000
  N   N225      1.0  0.62195  0.22750  0.27348  1.0000
  C   C2763     1.0  0.61527  0.24155  0.26918  1.0000
  C   C2764     1.0  0.63511  0.22195  0.26576  1.0000
  C   C2765     1.0  0.62150  0.25031  0.25655  1.0000
  C   C2766     1.0  0.64173  0.23045  0.25317  1.0000
  C   C2767     1.0  0.63482  0.24468  0.24849  1.0000
  C   C2768     1.0  0.61487  0.21851  0.28651  1.0000
  H   H2734     1.0  0.60490  0.24592  0.27539  1.0000
  H   H2735     1.0  0.64032  0.21072  0.26891  1.0000
  H   H2736     1.0  0.61587  0.26127  0.25288  1.0000
  H   H2737     1.0  0.65185  0.22576  0.24675  1.0000
  H   H2738     1.0  0.63963  0.25122  0.23849  1.0000
  H   H2739     1.0  0.60335  0.21981  0.28629  1.0000
  H   H2740     1.0  0.61991  0.20685  0.28733  1.0000
  H   H2741     1.0  0.61533  0.22189  0.29636  1.0000
  N   N226      1.0  0.73300  0.34924  0.31839  1.0000
  C   C2769     1.0  0.73960  0.33990  0.30925  1.0000
  C   C2770     1.0  0.71834  0.35222  0.32271  1.0000
  C   C2771     1.0  0.73153  0.33266  0.30484  1.0000
  C   C2772     1.0  0.70993  0.34513  0.31860  1.0000
  C   C2773     1.0  0.71662  0.33521  0.30969  1.0000
  C   C2774     1.0  0.74154  0.35651  0.32326  1.0000
  H   H2742     1.0  0.75120  0.33767  0.30563  1.0000
  H   H2743     1.0  0.71310  0.35995  0.32959  1.0000
  H   H2744     1.0  0.73683  0.32490  0.29796  1.0000
  H   H2745     1.0  0.69834  0.34725  0.32241  1.0000
  H   H2746     1.0  0.71030  0.32954  0.30648  1.0000
  H   H2747     1.0  0.75273  0.35015  0.32303  1.0000
  H   H2748     1.0  0.74193  0.36734  0.31616  1.0000
  H   H2749     1.0  0.73694  0.35762  0.33470  1.0000
  H   H2750     1.0  0.72912  0.38963  0.29074  1.0000
  N   N227      1.0  0.90018  0.15151  0.26354  1.0000
  C   C2775     1.0  0.91160  0.14281  0.25641  1.0000
  C   C2776     1.0  0.89977  0.16596  0.26139  1.0000
  C   C2777     1.0  0.92284  0.14862  0.24657  1.0000
  C   C2778     1.0  0.91077  0.17214  0.25154  1.0000
  C   C2779     1.0  0.92235  0.16339  0.24408  1.0000
  C   C2780     1.0  0.88862  0.14521  0.27401  1.0000
  H   H2751     1.0  0.91188  0.13138  0.25799  1.0000
  H   H2752     1.0  0.89075  0.17285  0.26707  1.0000
  H   H2753     1.0  0.93156  0.14186  0.24038  1.0000
  H   H2754     1.0  0.91013  0.18369  0.24940  1.0000
  H   H2755     1.0  0.93067  0.16810  0.23594  1.0000
  H   H2756     1.0  0.87813  0.15308  0.27440  1.0000
  H   H2757     1.0  0.88704  0.13574  0.27080  1.0000
  H   H2758     1.0  0.89113  0.14181  0.28500  1.0000
  H   H2759     1.0  0.75868  0.28230  0.21373  1.0000
  H   H2760     1.0  0.80880  0.13807  0.19122  1.0000
  H   H2761     1.0  0.55657  0.31308  0.30189  1.0000
  N   N228      1.0  0.56127  0.28173  0.32670  1.0000
  H   H2762     1.0  0.69880  0.39389  0.30923  1.0000
  H   H2763     1.0  0.70300  0.30654  0.27290  1.0000
  N   N229      1.0  0.84106  0.25894  0.24070  1.0000
  C   C2781     1.0  0.85565  0.25386  0.23827  1.0000
  C   C2782     1.0  0.83542  0.27291  0.23476  1.0000
  C   C2783     1.0  0.86497  0.26267  0.22923  1.0000
  C   C2784     1.0  0.84445  0.28213  0.22600  1.0000
  C   C2785     1.0  0.85929  0.27689  0.22304  1.0000
  C   C2786     1.0  0.83137  0.24960  0.25009  1.0000
  H   H2764     1.0  0.86018  0.24287  0.24315  1.0000
  H   H2765     1.0  0.89679  0.18102  0.22190  1.0000
  H   H2766     1.0  0.87650  0.25844  0.22702  1.0000
  H   H2767     1.0  0.83989  0.29318  0.22131  1.0000
  H   H2768     1.0  0.86634  0.28385  0.21591  1.0000
  H   H2769     1.0  0.82669  0.25315  0.26055  1.0000
  S   S938      1.0  0.94727  0.12412  0.20767  1.0000
  H   H2770     1.0  0.83701  0.23809  0.25240  1.0000
  H   H2771     1.0  0.82388  0.27703  0.23668  1.0000
  C   C2787     1.0  0.82246  0.23414  0.21827  1.0000
  C   C2788     1.0  0.52532  0.34095  0.26538  1.0000
  H   H2772     1.0  0.69248  0.40060  0.23288  1.0000
  H   H2773     1.0  0.70756  0.40559  0.19994  1.0000
  H   H2774     1.0  0.89870  0.11510  0.21273  1.0000
  H   H2775     1.0  0.72380  0.28709  0.29915  1.0000
  S   S939      1.0  0.62285  0.29507  0.35865  1.0000
  H   H2776     1.0  0.69801  0.27932  0.21613  1.0000
  C   C2789     1.0  0.56602  0.30964  0.32044  1.0000
  H   H2777     1.0  0.81933  0.34263  0.24059  1.0000
  C   C2790     1.0  0.52824  0.39343  0.23224  1.0000
  H   H2778     1.0  0.72524  0.31711  0.35850  1.0000
  C   C2791     1.0  0.79852  0.32603  0.21626  1.0000
  H   H2779     1.0  0.57528  0.30270  0.33950  1.0000
  C   C2792     1.0  0.59567  0.27934  0.30978  1.0000
  S   S940      1.0  0.68483  0.32883  0.21636  1.0000
  Fe  Fe464     1.0  0.81983  0.27740  0.18756  1.0000
  H   H2780     1.0  0.53987  0.36798  0.24873  1.0000
  H   H2781     1.0  0.79747  0.32908  0.19386  1.0000
  C   C2793     1.0  0.75791  0.13038  0.20728  1.0000
  C   C2794     1.0  0.70823  0.27946  0.33449  1.0000
  H   H2782     1.0  0.79645  0.32509  0.23897  1.0000
  C   C2795     1.0  0.66752  0.30522  0.18305  1.0000
  H   H2783     1.0  0.50176  0.25792  0.23704  1.0000
  H   H2784     1.0  0.67518  0.44705  0.37354  1.0000
  H   H2785     1.0  0.52236  0.37502  0.25865  1.0000
  H   H2786     1.0  0.61941  0.19208  0.21849  1.0000
  C   C2796     1.0  0.71609  0.32216  0.26125  1.0000
  H   H2787     1.0  0.86925  0.09699  0.20079  1.0000
  H   H2788     1.0  0.65817  0.43807  0.23409  1.0000
  Fe  Fe465     1.0  0.93798  0.14693  0.19779  1.0000
  C   C2797     1.0  0.77877  0.34164  0.20553  1.0000
  H   H2789     1.0  0.67882  0.33946  0.36107  1.0000
  H   H2790     1.0  0.81186  0.15328  0.25899  1.0000
  C   C2798     1.0  0.53929  0.41439  0.23742  1.0000
  H   H2791     1.0  0.63321  0.24464  0.31535  1.0000
  S   S941      1.0  0.71535  0.26039  0.29442  1.0000
  H   H2792     1.0  0.68814  0.22432  0.32587  1.0000
  C   C2799     1.0  0.80988  0.35057  0.23791  1.0000
  C   C2800     1.0  0.72461  0.32733  0.24793  1.0000
  H   H2793     1.0  0.79768  0.15785  0.24942  1.0000
  H   H2794     1.0  0.79252  0.31233  0.33967  1.0000
  H   H2795     1.0  0.75011  0.39946  0.28962  1.0000
  H   H2796     1.0  0.72135  0.43639  0.30476  1.0000
  S   S942      1.0  0.59913  0.44137  0.21315  1.0000
  S   S943      1.0  0.62765  0.44486  0.22278  1.0000
  C   C2801     1.0  0.71463  0.17235  0.22884  1.0000
  H   H2797     1.0  0.81162  0.23235  0.22072  1.0000
  S   S944      1.0  0.62589  0.26043  0.36085  1.0000
  C   C2802     1.0  0.59114  0.26972  0.30439  1.0000
  H   H2798     1.0  0.70352  0.39573  0.28969  1.0000
  Fe  Fe466     1.0  0.82073  0.30539  0.19485  1.0000
  Fe  Fe467     1.0  0.74430  0.36245  0.24173  1.0000
  H   H2799     1.0  0.77343  0.30105  0.35773  1.0000
  H   H2800     1.0  0.71476  0.16160  0.22774  1.0000
  C   C2803     1.0  0.80814  0.35512  0.22353  1.0000
  C   C2804     1.0  0.66848  0.30815  0.37985  1.0000
  H   H2801     1.0  0.52400  0.38522  0.23014  1.0000
  H   H2802     1.0  0.82881  0.21776  0.23620  1.0000
  C   C2805     1.0  0.59280  0.46455  0.27317  1.0000
  H   H2803     1.0  0.67075  0.33347  0.34181  1.0000
  C   C2806     1.0  0.76821  0.23637  0.18257  1.0000
  Fe  Fe468     1.0  0.55793  0.28192  0.27294  1.0000
  C   C2807     1.0  0.73930  0.40534  0.29333  1.0000
  C   C2808     1.0  0.67817  0.42318  0.20543  1.0000
  C   C2809     1.0  0.83218  0.22590  0.22702  1.0000
  H   H2804     1.0  0.49936  0.20166  0.28661  1.0000
  C   C2810     1.0  0.73716  0.41859  0.29720  1.0000
  H   H2805     1.0  0.83712  0.14947  0.24585  1.0000
  C   C2811     1.0  0.72736  0.39981  0.29398  1.0000
  H   H2806     1.0  0.66120  0.43401  0.36587  1.0000
  C   C2812     1.0  0.70175  0.25438  0.30856  1.0000
  C   C2813     1.0  0.83756  0.16608  0.21060  1.0000
  Fe  Fe469     1.0  0.60390  0.45427  0.22675  1.0000
  H   H2807     1.0  0.59389  0.29071  0.30470  1.0000
  H   H2808     1.0  0.70939  0.27126  0.34427  1.0000
  C   C2814     1.0  0.59652  0.38052  0.19321  1.0000
  H   H2809     1.0  0.82306  0.25678  0.33920  1.0000
  S   S945      1.0  0.51678  0.35708  0.24062  1.0000
  H   H2810     1.0  0.70609  0.29588  0.25155  1.0000
  C   C2815     1.0  0.67023  0.32631  0.35238  1.0000
  C   C2816     1.0  0.72320  0.42596  0.30195  1.0000
  S   S946      1.0  0.72033  0.36483  0.24675  1.0000
  C   C2817     1.0  0.84072  0.24725  0.20338  1.0000
  C   C2818     1.0  0.59646  0.24540  0.19320  1.0000
  S   S947      1.0  0.66305  0.31683  0.19522  1.0000
  H   H2811     1.0  0.73947  0.29030  0.26058  1.0000
  C   C2819     1.0  0.52859  0.40649  0.22210  1.0000
  S   S948      1.0  0.55063  0.26632  0.29312  1.0000
  C   C2820     1.0  0.77194  0.34567  0.21880  1.0000
  H   H2812     1.0  0.64886  0.23616  0.32324  1.0000
  C   C2821     1.0  0.64193  0.24670  0.31930  1.0000
  N   N230      1.0  0.65016  0.25613  0.30776  1.0000
  C   C2822     1.0  0.64351  0.27004  0.30278  1.0000
  H   H2813     1.0  0.69586  0.15568  0.18472  1.0000
  C   C2823     1.0  0.55953  0.30553  0.31151  1.0000
  H   H2814     1.0  0.66959  0.24005  0.30586  1.0000
  H   H2815     1.0  0.64733  0.41438  0.21747  1.0000
  H   H2816     1.0  0.68080  0.27619  0.21683  1.0000
  S   S949      1.0  0.83652  0.28445  0.19413  1.0000
  H   H2817     1.0  0.66985  0.39510  0.36902  1.0000
  C   C2824     1.0  0.66430  0.25107  0.30196  1.0000
  S   S950      1.0  0.71304  0.33064  0.27584  1.0000
  H   H2818     1.0  0.62049  0.47278  0.23579  1.0000
  C   C2825     1.0  0.69678  0.40560  0.34730  1.0000
  H   H2819     1.0  0.77846  0.37010  0.25376  1.0000
  H   H2820     1.0  0.66490  0.39328  0.22670  1.0000
  C   C2826     1.0  0.65113  0.27937  0.29191  1.0000
  C   C2827     1.0  0.55714  0.29148  0.31487  1.0000
  H   H2821     1.0  0.69167  0.41026  0.29729  1.0000
  N   N231      1.0  0.71369  0.40733  0.29825  1.0000
  H   H2822     1.0  0.80908  0.13992  0.25075  1.0000
  H   H2823     1.0  0.73024  0.33571  0.24685  1.0000
  C   C2828     1.0  0.71153  0.42006  0.30256  1.0000
  Fe  Fe470     1.0  0.64914  0.26011  0.35023  1.0000
  C   C2829     1.0  0.70131  0.40146  0.29870  1.0000
  C   C2830     1.0  0.49852  0.26585  0.24384  1.0000
  Fe  Fe471     1.0  0.64642  0.29192  0.34882  1.0000
  C   C2831     1.0  0.68099  0.25974  0.32764  1.0000
  C   C2832     1.0  0.68557  0.40966  0.22723  1.0000
  H   H2824     1.0  0.98108  0.15141  0.20375  1.0000
  C   C2833     1.0  0.80888  0.15156  0.24944  1.0000
  H   H2825     1.0  0.80250  0.16400  0.22345  1.0000
  N   N232      1.0  0.81878  0.15653  0.23601  1.0000
  C   C2834     1.0  0.81378  0.16267  0.22348  1.0000
  H   H2826     1.0  0.73702  0.26585  0.31063  1.0000
  Fe  Fe472     1.0  0.54416  0.25593  0.27856  1.0000
  H   H2827     1.0  0.81886  0.17314  0.20089  1.0000
  C   C2835     1.0  0.59559  0.22423  0.21319  1.0000
  C   C2836     1.0  0.67225  0.26012  0.29112  1.0000
  Fe  Fe473     1.0  0.68137  0.32621  0.19552  1.0000
  Fe  Fe474     1.0  0.94342  0.11883  0.18800  1.0000
  C   C2837     1.0  0.69202  0.26423  0.31638  1.0000
  C   C2838     1.0  0.82121  0.26819  0.33309  1.0000
  H   H2828     1.0  0.77616  0.28638  0.20912  1.0000
  S   S951      1.0  0.81586  0.31518  0.21439  1.0000
  H   H2829     1.0  0.68886  0.29226  0.34513  1.0000
  H   H2830     1.0  0.77577  0.37767  0.22812  1.0000
  H   H2831     1.0  0.60679  0.46433  0.28683  1.0000
  H   H2832     1.0  0.59950  0.36510  0.21303  1.0000
  C   C2839     1.0  0.69492  0.30174  0.32245  1.0000
  N   N233      1.0  0.77747  0.23856  0.18967  1.0000
  C   C2840     1.0  0.78332  0.29431  0.35303  1.0000
  Fe  Fe475     1.0  0.68932  0.35041  0.20379  1.0000
  H   H2833     1.0  0.83458  0.99786  0.18368  1.0000
  C   C2841     1.0  0.55881  0.26700  0.32993  1.0000
  C   C2842     1.0  0.59860  0.39404  0.18476  1.0000
  H   H2834     1.0  0.56082  0.26303  0.31977  1.0000
  H   H2835     1.0  0.67190  0.37749  0.18790  1.0000
  H   H2836     1.0  0.75795  0.12945  0.21860  1.0000
  H   H2837     1.0  0.54755  0.26675  0.33581  1.0000
  Fe  Fe476     1.0  0.70803  0.32043  0.20754  1.0000
  S   S952      1.0  0.70431  0.31582  0.18784  1.0000
  N   N234      1.0  0.79599  0.36471  0.22015  1.0000
  N   N235      1.0  0.69634  0.27291  0.19745  1.0000
  C   C2843     1.0  0.65635  0.39749  0.18914  1.0000
  H   H2838     1.0  0.61204  0.37997  0.22068  1.0000
  S   S953      1.0  0.72105  0.30339  0.22182  1.0000
  C   C2844     1.0  0.74519  0.13641  0.20218  1.0000
  H   H2839     1.0  0.73527  0.14002  0.20955  1.0000
  C   C2845     1.0  0.79920  0.35605  0.24884  1.0000
  H   H2840     1.0  0.91351  0.08126  0.19426  1.0000
  H   H2841     1.0  0.62552  0.32395  0.36470  1.0000
  C   C2846     1.0  0.83081  0.10642  0.18397  1.0000
  N   N236      1.0  0.88108  0.11057  0.18365  1.0000
  C   C2847     1.0  0.77039  0.12751  0.18306  1.0000
  H   H2842     1.0  0.78292  0.37244  0.20421  1.0000
  C   C2848     1.0  0.63621  0.33375  0.37502  1.0000
  N   N237      1.0  0.67099  0.41316  0.37661  1.0000
  H   H2843     1.0  0.74581  0.22024  0.21149  1.0000
  S   S954      1.0  0.95935  0.15198  0.18562  1.0000
  H   H2844     1.0  0.58747  0.24537  0.18834  1.0000
  C   C2849     1.0  0.58431  0.47313  0.26338  1.0000
  H   H2845     1.0  0.60462  0.25044  0.18450  1.0000
  C   C2850     1.0  0.71846  0.12284  0.18264  1.0000
  C   C2851     1.0  0.89708  0.12128  0.19030  1.0000
  H   H2846     1.0  0.65340  0.40309  0.38023  1.0000
  H   H2847     1.0  0.79983  0.23805  0.18266  1.0000
  H   H2848     1.0  0.59765  0.33816  0.52158  1.0000
  H   H2849     1.0  0.75159  0.38584  0.45604  1.0000
  C   C2852     1.0  0.58213  0.32935  0.54771  1.0000
  H   H2850     1.0  0.69857  0.42620  0.58080  1.0000
  H   H2851     1.0  0.73433  0.39160  0.44000  1.0000
  Fe  Fe477     1.0  0.69999  0.25516  0.56485  1.0000
  H   H2852     1.0  0.76134  0.26681  0.57591  1.0000
  S   S955      1.0  0.69126  0.27548  0.54984  1.0000
  Fe  Fe478     1.0  0.72837  0.23485  0.56986  1.0000
  S   S956      1.0  0.75179  0.23089  0.55925  1.0000
  H   H2853     1.0  0.62770  0.24945  0.56819  1.0000
  N   N238      1.0  0.63666  0.32308  0.40011  1.0000
  S   S957      1.0  0.71206  0.23455  0.55778  1.0000
  H   H2854     1.0  0.77703  0.40572  0.56569  1.0000
  Fe  Fe479     1.0  0.62799  0.30833  0.48071  1.0000
  S   S958      1.0  0.63535  0.28530  0.47806  1.0000
  S   S959      1.0  0.60511  0.31745  0.49045  1.0000
  Fe  Fe480     1.0  0.65767  0.31480  0.46991  1.0000
  S   S960      1.0  0.66760  0.29220  0.46690  1.0000
  S   S961      1.0  0.67264  0.33027  0.46203  1.0000
  Fe  Fe481     1.0  0.64889  0.29427  0.45691  1.0000
  S   S962      1.0  0.65652  0.28677  0.43568  1.0000
  Fe  Fe482     1.0  0.65335  0.28532  0.48822  1.0000
  S   S963      1.0  0.66056  0.26568  0.50479  1.0000
  S   S964      1.0  0.63986  0.31745  0.45849  1.0000
  S   S965      1.0  0.64508  0.30777  0.49228  1.0000
  C   C2853     1.0  0.64236  0.32154  0.41300  1.0000
  H   H2855     1.0  0.69286  0.43336  0.38907  1.0000
  C   C2854     1.0  0.74478  0.26894  0.54929  1.0000
  Fe  Fe483     1.0  0.69395  0.34050  0.38272  1.0000
  H   H2856     1.0  0.60323  0.26262  0.57762  1.0000
  N   N239      1.0  0.66205  0.25275  0.46144  1.0000
  H   H2857     1.0  0.79105  0.38466  0.57927  1.0000
  S   S966      1.0  0.78074  0.28473  0.55727  1.0000
  C   C2855     1.0  0.73241  0.19205  0.57553  1.0000
  H   H2858     1.0  0.71434  0.33476  0.44026  1.0000
  C   C2856     1.0  0.63562  0.24870  0.47913  1.0000
  H   H2859     1.0  0.71964  0.30899  0.43837  1.0000
  Fe  Fe484     1.0  0.71671  0.35489  0.51446  1.0000
  S   S967      1.0  0.70049  0.37688  0.51675  1.0000
  S   S968      1.0  0.72306  0.32560  0.54314  1.0000
  Fe  Fe485     1.0  0.72257  0.36814  0.47989  1.0000
  S   S969      1.0  0.70730  0.38935  0.48151  1.0000
  S   S970      1.0  0.73508  0.36188  0.45867  1.0000
  Fe  Fe486     1.0  0.71674  0.38821  0.50061  1.0000
  S   S971      1.0  0.72424  0.40697  0.50372  1.0000
  Fe  Fe487     1.0  0.69280  0.37568  0.49764  1.0000
  S   S972      1.0  0.66979  0.37549  0.49892  1.0000
  S   S973      1.0  0.73306  0.36785  0.49782  1.0000
  S   S974      1.0  0.70759  0.35465  0.49485  1.0000
  C   C2857     1.0  0.72323  0.28770  0.54999  1.0000
  N   N240      1.0  0.77075  0.38546  0.57475  1.0000
  S   S975      1.0  0.68577  0.36400  0.38258  1.0000
  S   S976      1.0  0.72813  0.41005  0.56695  1.0000
  H   H2860     1.0  0.66893  0.25075  0.48099  1.0000
  C   C2858     1.0  0.75787  0.18712  0.57496  1.0000
  H   H2861     1.0  0.61103  0.27617  0.53112  1.0000
  S   S977      1.0  0.75623  0.43568  0.56587  1.0000
  H   H2862     1.0  0.75462  0.25148  0.57544  1.0000
  C   C2859     1.0  0.73307  0.27719  0.54314  1.0000
  C   C2860     1.0  0.68656  0.42771  0.38577  1.0000
  H   H2863     1.0  0.62348  0.29378  0.54950  1.0000
  C   C2861     1.0  0.74611  0.19448  0.56852  1.0000
  C   C2862     1.0  0.64041  0.33308  0.38785  1.0000
  C   C2863     1.0  0.78783  0.20840  0.57346  1.0000
  Fe  Fe488     1.0  0.70570  0.36246  0.39059  1.0000
  S   S978      1.0  0.61948  0.27368  0.39826  1.0000
  C   C2864     1.0  0.73702  0.28142  0.56869  1.0000
  S   S979      1.0  0.58524  0.28028  0.55278  1.0000
  N   N241      1.0  0.68596  0.33533  0.42655  1.0000
  H   H2864     1.0  0.71398  0.29405  0.54547  1.0000
  C   C2865     1.0  0.62475  0.30985  0.52961  1.0000
  C   C2866     1.0  0.77137  0.39849  0.56324  1.0000
  H   H2865     1.0  0.73843  0.28310  0.57873  1.0000
  S   S980      1.0  0.70057  0.37513  0.40829  1.0000
  S   S981      1.0  0.67897  0.32504  0.39108  1.0000
  S   S982      1.0  0.71286  0.33840  0.39251  1.0000
  C   C2867     1.0  0.68055  0.40556  0.38527  1.0000
  H   H2866     1.0  0.67601  0.25684  0.44052  1.0000
  S   S983      1.0  0.54937  0.31139  0.56145  1.0000
  H   H2867     1.0  0.76028  0.30645  0.57164  1.0000
  S   S984      1.0  0.71735  0.25639  0.57508  1.0000
  C   C2868     1.0  0.61742  0.32239  0.52176  1.0000
  C   C2869     1.0  0.62388  0.24843  0.57983  1.0000
  H   H2868     1.0  0.77717  0.39548  0.55273  1.0000
  C   C2870     1.0  0.68860  0.32113  0.42575  1.0000
  C   C2871     1.0  0.75216  0.40058  0.47515  1.0000
  H   H2869     1.0  0.75051  0.38354  0.57216  1.0000
  C   C2872     1.0  0.72522  0.28988  0.56282  1.0000
  H   H2870     1.0  0.71156  0.42845  0.45872  1.0000
  C   C2873     1.0  0.70734  0.33085  0.43593  1.0000
  C   C2874     1.0  0.50777  0.28944  0.55856  1.0000
  H   H2871     1.0  0.74949  0.39161  0.48436  1.0000
  H   H2872     1.0  0.76332  0.39729  0.46910  1.0000
  C   C2875     1.0  0.72055  0.41932  0.45775  1.0000
  H   H2873     1.0  0.67439  0.35644  0.41887  1.0000
  H   H2874     1.0  0.59864  0.30517  0.55992  1.0000
  C   C2876     1.0  0.70082  0.31147  0.42983  1.0000
  C   C2877     1.0  0.74310  0.39549  0.45635  1.0000
  Fe  Fe489     1.0  0.73678  0.42552  0.57457  1.0000
  H   H2875     1.0  0.68223  0.39388  0.38849  1.0000
  H   H2876     1.0  0.76849  0.18910  0.56942  1.0000
  H   H2877     1.0  0.63530  0.31682  0.42309  1.0000
  Fe  Fe490     1.0  0.78367  0.28215  0.57996  1.0000
  C   C2878     1.0  0.65097  0.25283  0.45536  1.0000
  C   C2879     1.0  0.76364  0.22106  0.57072  1.0000
  H   H2878     1.0  0.65236  0.25464  0.44367  1.0000
  H   H2879     1.0  0.78211  0.22009  0.55307  1.0000
  H   H2880     1.0  0.66942  0.34210  0.41436  1.0000
  S   S985      1.0  0.73913  0.47781  0.56971  1.0000
  Fe  Fe491     1.0  0.56550  0.29076  0.56705  1.0000
  C   C2880     1.0  0.72527  0.36501  0.44492  1.0000
  C   C2881     1.0  0.71167  0.37417  0.44573  1.0000
  C   C2882     1.0  0.70431  0.37718  0.43439  1.0000
  C   C2883     1.0  0.71038  0.37094  0.42219  1.0000
  C   C2884     1.0  0.72392  0.36163  0.42141  1.0000
  C   C2885     1.0  0.73140  0.35879  0.43269  1.0000
  H   H2881     1.0  0.70687  0.37911  0.45502  1.0000
  H   H2882     1.0  0.69378  0.38429  0.43517  1.0000
  H   H2883     1.0  0.72871  0.35677  0.41204  1.0000
  H   H2884     1.0  0.74197  0.35177  0.43193  1.0000
  C   C2886     1.0  0.72562  0.40764  0.52127  1.0000
  C   C2887     1.0  0.73081  0.41896  0.52310  1.0000
  C   C2888     1.0  0.73183  0.41984  0.53698  1.0000
  C   C2889     1.0  0.72757  0.40940  0.54914  1.0000
  C   C2890     1.0  0.72250  0.39803  0.54727  1.0000
  C   C2891     1.0  0.72156  0.39712  0.53341  1.0000
  H   H2885     1.0  0.73396  0.42717  0.51377  1.0000
  H   H2886     1.0  0.73572  0.42866  0.53828  1.0000
  H   H2887     1.0  0.71916  0.38993  0.55661  1.0000
  H   H2888     1.0  0.71754  0.38838  0.53217  1.0000
  N   N242      1.0  0.59678  0.32247  0.54147  1.0000
  H   H2889     1.0  0.68467  0.24571  0.45504  1.0000
  C   C2892     1.0  0.71024  0.31639  0.43495  1.0000
  C   C2893     1.0  0.62432  0.31396  0.38735  1.0000
  H   H2890     1.0  0.49969  0.32835  0.55897  1.0000
  H   H2891     1.0  0.75181  0.40989  0.47982  1.0000
  C   C2894     1.0  0.64703  0.24847  0.48524  1.0000
  H   H2892     1.0  0.71401  0.41285  0.44139  1.0000
  C   C2895     1.0  0.50103  0.29397  0.57159  1.0000
  C   C2896     1.0  0.61798  0.30369  0.54346  1.0000
  H   H2893     1.0  0.62239  0.32706  0.51081  1.0000
  H   H2894     1.0  0.68117  0.31716  0.42206  1.0000
  H   H2895     1.0  0.65149  0.23744  0.57251  1.0000
  H   H2896     1.0  0.69623  0.40654  0.39665  1.0000
  C   C2897     1.0  0.69505  0.34020  0.43170  1.0000
  C   C2898     1.0  0.60392  0.31020  0.54928  1.0000
  C   C2899     1.0  0.73067  0.41597  0.46652  1.0000
  H   H2897     1.0  0.62875  0.25129  0.45917  1.0000
  H   H2898     1.0  0.57711  0.32206  0.55737  1.0000
  H   H2899     1.0  0.64558  0.24711  0.49690  1.0000
  C   C2900     1.0  0.76599  0.29796  0.55226  1.0000
  C   C2901     1.0  0.75733  0.30686  0.56166  1.0000
  C   C2902     1.0  0.74455  0.31605  0.55833  1.0000
  C   C2903     1.0  0.74056  0.31661  0.54544  1.0000
  C   C2904     1.0  0.74952  0.30816  0.53571  1.0000
  C   C2905     1.0  0.76225  0.29886  0.53912  1.0000
  C   C2906     1.0  0.49977  0.28495  0.55114  1.0000
  H   H2900     1.0  0.73754  0.32241  0.56598  1.0000
  H   H2901     1.0  0.74629  0.30812  0.52597  1.0000
  H   H2902     1.0  0.76890  0.29192  0.53185  1.0000
  C   C2907     1.0  0.64589  0.28252  0.42608  1.0000
  C   C2908     1.0  0.65238  0.27972  0.41226  1.0000
  C   C2909     1.0  0.64441  0.27679  0.40381  1.0000
  C   C2910     1.0  0.62991  0.27626  0.40922  1.0000
  C   C2911     1.0  0.62349  0.27847  0.42337  1.0000
  C   C2912     1.0  0.63143  0.28175  0.43176  1.0000
  H   H2903     1.0  0.66365  0.27993  0.40796  1.0000
  H   H2904     1.0  0.64956  0.27491  0.39312  1.0000
  H   H2905     1.0  0.61226  0.27803  0.42767  1.0000
  H   H2906     1.0  0.62635  0.28377  0.44250  1.0000
  C   C2913     1.0  0.67111  0.34305  0.47231  1.0000
  C   C2914     1.0  0.65962  0.34523  0.48406  1.0000
  C   C2915     1.0  0.65890  0.35555  0.49204  1.0000
  C   C2916     1.0  0.66973  0.36352  0.48834  1.0000
  C   C2917     1.0  0.68102  0.36144  0.47647  1.0000
  C   C2918     1.0  0.68172  0.35126  0.46849  1.0000
  H   H2907     1.0  0.65134  0.33900  0.48698  1.0000
  H   H2908     1.0  0.65012  0.35716  0.50121  1.0000
  H   H2909     1.0  0.68926  0.36772  0.47342  1.0000
  H   H2910     1.0  0.69064  0.34964  0.45946  1.0000
  H   H2911     1.0  0.79910  0.20511  0.56866  1.0000
  H   H2912     1.0  0.66404  0.34479  0.43289  1.0000
  C   C2919     1.0  0.60337  0.32860  0.52790  1.0000
  C   C2920     1.0  0.67275  0.34517  0.42296  1.0000
  H   H2913     1.0  0.57511  0.33225  0.53968  1.0000
  C   C2921     1.0  0.66023  0.25059  0.47617  1.0000
  C   C2922     1.0  0.63758  0.25089  0.46409  1.0000
  C   C2923     1.0  0.62856  0.31374  0.40001  1.0000
  C   C2924     1.0  0.77823  0.21689  0.56465  1.0000
  N   N243      1.0  0.74184  0.40424  0.46564  1.0000
  C   C2925     1.0  0.68262  0.27269  0.53746  1.0000
  C   C2926     1.0  0.68030  0.25902  0.53825  1.0000
  C   C2927     1.0  0.67347  0.25698  0.52820  1.0000
  C   C2928     1.0  0.66898  0.26859  0.51731  1.0000
  C   C2929     1.0  0.67128  0.28227  0.51654  1.0000
  C   C2930     1.0  0.67803  0.28433  0.52664  1.0000
  H   H2914     1.0  0.68378  0.24999  0.54658  1.0000
  H   H2915     1.0  0.67175  0.24637  0.52882  1.0000
  H   H2916     1.0  0.66802  0.29124  0.50809  1.0000
  H   H2917     1.0  0.67984  0.29492  0.52597  1.0000
  H   H2918     1.0  0.72935  0.42266  0.47423  1.0000
  H   H2919     1.0  0.70282  0.30022  0.42921  1.0000
  H   H2920     1.0  0.62554  0.30588  0.40969  1.0000
  C   C2931     1.0  0.73330  0.39864  0.44729  1.0000
  H   H2921     1.0  0.62523  0.24742  0.48605  1.0000
  H   H2922     1.0  0.69252  0.35126  0.43306  1.0000
  H   H2923     1.0  0.63556  0.30474  0.52488  1.0000
  N   N244      1.0  0.74660  0.27110  0.56192  1.0000
  H   H2924     1.0  0.76039  0.40482  0.56216  1.0000
  C   C2932     1.0  0.67597  0.25513  0.45226  1.0000
  H   H2925     1.0  0.67831  0.26502  0.45385  1.0000
  C   C2933     1.0  0.59017  0.29025  0.53511  1.0000
  C   C2934     1.0  0.58094  0.30277  0.52945  1.0000
  C   C2935     1.0  0.58544  0.31093  0.51557  1.0000
  C   C2936     1.0  0.59921  0.30665  0.50737  1.0000
  C   C2937     1.0  0.60839  0.29406  0.51300  1.0000
  C   C2938     1.0  0.60384  0.28584  0.52680  1.0000
  H   H2926     1.0  0.57031  0.30611  0.53568  1.0000
  H   H2927     1.0  0.57828  0.32062  0.51121  1.0000
  H   H2928     1.0  0.61907  0.29073  0.50683  1.0000
  N   N245      1.0  0.70804  0.33761  0.52380  1.0000
  C   C2939     1.0  0.70431  0.34752  0.53358  1.0000
  C   C2940     1.0  0.72268  0.33336  0.51576  1.0000
  C   C2941     1.0  0.71600  0.35377  0.53580  1.0000
  C   C2942     1.0  0.73465  0.33934  0.51750  1.0000
  C   C2943     1.0  0.73124  0.34961  0.52768  1.0000
  C   C2944     1.0  0.69679  0.33071  0.52309  1.0000
  H   H2929     1.0  0.69344  0.34994  0.53984  1.0000
  H   H2930     1.0  0.72518  0.32548  0.50903  1.0000
  H   H2931     1.0  0.71351  0.36064  0.54356  1.0000
  H   H2932     1.0  0.74566  0.33585  0.51202  1.0000
  H   H2933     1.0  0.73978  0.35352  0.52954  1.0000
  H   H2934     1.0  0.68657  0.33882  0.52227  1.0000
  H   H2935     1.0  0.69983  0.32573  0.51344  1.0000
  H   H2936     1.0  0.69497  0.32214  0.53300  1.0000
  H   H2937     1.0  0.58227  0.33925  0.55113  1.0000
  H   H2938     1.0  0.65318  0.31420  0.41205  1.0000
  Fe  Fe492     1.0  0.53342  0.29962  0.57819  1.0000
  H   H2939     1.0  0.76799  0.25855  0.56054  1.0000
  H   H2940     1.0  0.73141  0.27521  0.53335  1.0000
  H   H2941     1.0  0.72320  0.19769  0.57063  1.0000
  H   H2942     1.0  0.64340  0.33213  0.41423  1.0000
  H   H2943     1.0  0.51894  0.28990  0.55394  1.0000
  C   C2945     1.0  0.72192  0.41059  0.44806  1.0000
  H   H2944     1.0  0.75221  0.26056  0.54409  1.0000
  C   C2946     1.0  0.75818  0.26149  0.56884  1.0000
  H   H2945     1.0  0.64728  0.34014  0.38777  1.0000
  H   H2946     1.0  0.50490  0.28182  0.54086  1.0000
  H   H2947     1.0  0.71769  0.29814  0.56811  1.0000
  H   H2948     1.0  0.74761  0.20215  0.55823  1.0000
  H   H2949     1.0  0.61832  0.30614  0.38729  1.0000
  H   H2950     1.0  0.66768  0.30118  0.39050  1.0000
  Fe  Fe493     1.0  0.74323  0.45345  0.57782  1.0000
  C   C2947     1.0  0.68851  0.41269  0.38994  1.0000
  C   C2948     1.0  0.75936  0.37884  0.57779  1.0000
  S   S986      1.0  0.50952  0.30222  0.58009  1.0000
  S   S987      1.0  0.55618  0.33961  0.58036  1.0000
  Fe  Fe494     1.0  0.55416  0.31727  0.58018  1.0000
  C   C2949     1.0  0.78198  0.37947  0.58173  1.0000
  S   S988      1.0  0.69243  0.20431  0.58092  1.0000
  Fe  Fe495     1.0  0.70090  0.22380  0.57950  1.0000
  Fe  Fe496     1.0  0.67447  0.15510  0.72279  1.0000
  S   S989      1.0  0.68912  0.16844  0.70648  1.0000
  S   S990      1.0  0.65295  0.16458  0.73527  1.0000
  Fe  Fe497     1.0  0.69476  0.12661  0.71845  1.0000
  S   S991      1.0  0.71092  0.13746  0.70131  1.0000
  Fe  Fe498     1.0  0.70670  0.15248  0.71629  1.0000
  Fe  Fe499     1.0  0.69185  0.15226  0.69303  1.0000
  S   S992      1.0  0.69042  0.15981  0.66956  1.0000
  S   S993      1.0  0.67595  0.13986  0.70866  1.0000
  Fe  Fe500     1.0  0.63560  0.21742  0.64439  1.0000
  S   S994      1.0  0.61491  0.22829  0.65685  1.0000
  S   S995      1.0  0.63696  0.20196  0.63065  1.0000
  Fe  Fe501     1.0  0.65391  0.23080  0.65491  1.0000
  S   S996      1.0  0.63512  0.24344  0.66825  1.0000
  S   S997      1.0  0.67722  0.22993  0.65301  1.0000
  Fe  Fe502     1.0  0.62691  0.22289  0.67484  1.0000
  S   S998      1.0  0.61534  0.21542  0.69758  1.0000
  Fe  Fe503     1.0  0.62457  0.24794  0.64929  1.0000
  S   S999      1.0  0.61318  0.27020  0.64003  1.0000
  S   S1000     1.0  0.64664  0.20988  0.66309  1.0000
  S   S1001     1.0  0.64430  0.23758  0.63518  1.0000
  C   C2950     1.0  0.69829  0.45175  0.61979  1.0000
  Fe  Fe504     1.0  0.55373  0.28749  0.59939  1.0000
  H   H2951     1.0  0.97481  0.17250  0.73836  1.0000
  S   S1002     1.0  0.55458  0.27497  0.62211  1.0000
  H   H2952     1.0  0.84810  0.22588  0.76078  1.0000
  S   S1003     1.0  0.79516  0.19306  0.59899  1.0000
  S   S1004     1.0  0.53680  0.30754  0.59636  1.0000
  Fe  Fe505     1.0  0.76729  0.15911  0.63644  1.0000
  S   S1005     1.0  0.79064  0.15656  0.62543  1.0000
  S   S1006     1.0  0.75259  0.14894  0.63018  1.0000
  Fe  Fe506     1.0  0.76810  0.18232  0.65091  1.0000
  S   S1007     1.0  0.79129  0.18200  0.64098  1.0000
  S   S1008     1.0  0.75706  0.19922  0.66395  1.0000
  Fe  Fe507     1.0  0.78574  0.18074  0.62070  1.0000
  H   H2953     1.0  0.79933  0.21487  0.64582  1.0000
  Fe  Fe508     1.0  0.79403  0.15789  0.64687  1.0000
  S   S1009     1.0  0.81368  0.14725  0.65648  1.0000
  S   S1010     1.0  0.76220  0.18325  0.63013  1.0000
  S   S1011     1.0  0.77098  0.15826  0.65848  1.0000
  Fe  Fe509     1.0  0.84303  0.06292  0.73159  1.0000
  S   S1012     1.0  0.86651  0.05322  0.72528  1.0000
  S   S1013     1.0  0.83184  0.06084  0.75503  1.0000
  Fe  Fe510     1.0  0.83916  0.07278  0.70047  1.0000
  S   S1014     1.0  0.86239  0.06420  0.69153  1.0000
  S   S1015     1.0  0.82273  0.08079  0.68631  1.0000
  Fe  Fe511     1.0  0.85982  0.04467  0.70936  1.0000
  Fe  Fe512     1.0  0.86685  0.07364  0.70820  1.0000
  S   S1016     1.0  0.88453  0.08626  0.70216  1.0000
  S   S1017     1.0  0.83635  0.05258  0.71723  1.0000
  S   S1018     1.0  0.84366  0.08401  0.71561  1.0000
  C   C2951     1.0  0.85705  0.01320  0.70118  1.0000
  C   C2952     1.0  0.73958  0.09014  0.75189  1.0000
  C   C2953     1.0  0.87450  0.19620  0.76670  1.0000
  Fe  Fe513     1.0  0.94360  0.13161  0.73936  1.0000
  S   S1019     1.0  0.92663  0.12730  0.75958  1.0000
  Fe  Fe514     1.0  0.92111  0.14693  0.72090  1.0000
  S   S1020     1.0  0.90282  0.14418  0.73991  1.0000
  S   S1021     1.0  0.91442  0.15846  0.69973  1.0000
  Fe  Fe515     1.0  0.91594  0.15034  0.75190  1.0000
  S   S1022     1.0  0.90655  0.16815  0.76440  1.0000
  Fe  Fe516     1.0  0.91529  0.12158  0.74525  1.0000
  S   S1023     1.0  0.90195  0.10443  0.75189  1.0000
  S   S1024     1.0  0.93336  0.15492  0.73243  1.0000
  S   S1025     1.0  0.93313  0.12390  0.72556  1.0000
  Fe  Fe517     1.0  0.81164  0.20245  0.69971  1.0000
  S   S1026     1.0  0.83441  0.19088  0.69290  1.0000
  S   S1027     1.0  0.79464  0.18952  0.71008  1.0000
  Fe  Fe518     1.0  0.81858  0.23195  0.68757  1.0000
  S   S1028     1.0  0.84195  0.22294  0.67987  1.0000
  S   S1029     1.0  0.81256  0.25607  0.68207  1.0000
  Fe  Fe519     1.0  0.83390  0.20762  0.67223  1.0000
  Fe  Fe520     1.0  0.84007  0.20739  0.70124  1.0000
  S   S1030     1.0  0.85609  0.20260  0.71544  1.0000
  S   S1031     1.0  0.81062  0.21773  0.67827  1.0000
  S   S1032     1.0  0.81722  0.21773  0.70980  1.0000
  Fe  Fe521     1.0  0.84402  0.25507  0.74426  1.0000
  S   S1033     1.0  0.85517  0.26069  0.75859  1.0000
  C   C2954     1.0  0.77034  0.35982  0.59540  1.0000
  Fe  Fe522     1.0  0.86479  0.26561  0.71656  1.0000
  S   S1034     1.0  0.87799  0.27188  0.72851  1.0000
  S   S1035     1.0  0.86628  0.27233  0.69252  1.0000
  Fe  Fe523     1.0  0.87542  0.25094  0.74446  1.0000
  S   S1036     1.0  0.89231  0.23274  0.75339  1.0000
  Fe  Fe524     1.0  0.85651  0.28097  0.74135  1.0000
  S   S1037     1.0  0.85033  0.30332  0.74591  1.0000
  S   S1038     1.0  0.86401  0.24386  0.73121  1.0000
  S   S1039     1.0  0.84359  0.27592  0.72841  1.0000
  S   S1040     1.0  0.82772  0.25279  0.59734  1.0000
  H   H2954     1.0  0.86176  0.01991  0.73756  1.0000
  C   C2955     1.0  0.66767  0.19493  0.59513  1.0000
  H   H2955     1.0  0.81409  0.05288  0.66204  1.0000
  C   C2956     1.0  0.49921  0.37263  0.64196  1.0000
  Fe  Fe525     1.0  0.79174  0.32866  0.68663  1.0000
  S   S1041     1.0  0.79054  0.35125  0.68838  1.0000
  S   S1042     1.0  0.77744  0.31424  0.70194  1.0000
  Fe  Fe526     1.0  0.81470  0.33102  0.65918  1.0000
  S   S1043     1.0  0.81564  0.35379  0.65864  1.0000
  S   S1044     1.0  0.82837  0.31791  0.64299  1.0000
  Fe  Fe527     1.0  0.81459  0.34563  0.68263  1.0000
  S   S1045     1.0  0.82680  0.35207  0.69559  1.0000
  Fe  Fe528     1.0  0.79150  0.35719  0.66445  1.0000
  S   S1046     1.0  0.77463  0.37618  0.65687  1.0000
  S   S1047     1.0  0.81576  0.32253  0.68257  1.0000
  S   S1048     1.0  0.79061  0.33500  0.66321  1.0000
  H   H2956     1.0  0.61057  0.27372  0.67109  1.0000
  Fe  Fe529     1.0  0.67984  0.35446  0.75099  1.0000
  S   S1049     1.0  0.69843  0.34189  0.73732  1.0000
  S   S1050     1.0  0.66119  0.36844  0.74118  1.0000
  C   C2957     1.0  0.81150  0.27354  0.75826  1.0000
  S   S1051     1.0  0.71165  0.32846  0.76691  1.0000
  C   C2958     1.0  0.99054  0.15575  0.74827  1.0000
  Fe  Fe530     1.0  0.71176  0.34814  0.74916  1.0000
  S   S1052     1.0  0.73261  0.35533  0.73989  1.0000
  Fe  Fe531     1.0  0.69635  0.32348  0.75656  1.0000
  H   H2957     1.0  0.77180  0.15863  0.59231  1.0000
  S   S1053     1.0  0.69340  0.36219  0.76137  1.0000
  H   H2958     1.0  0.71874  0.12368  0.75301  1.0000
  Fe  Fe532     1.0  0.65351  0.44202  0.69117  1.0000
  S   S1054     1.0  0.63074  0.44861  0.70286  1.0000
  S   S1055     1.0  0.67168  0.42889  0.70211  1.0000
  Fe  Fe533     1.0  0.62469  0.44479  0.68363  1.0000
  S   S1056     1.0  0.60731  0.43190  0.68797  1.0000
  S   S1057     1.0  0.64750  0.43650  0.67296  1.0000
  Fe  Fe534     1.0  0.63142  0.27763  0.70742  1.0000
  S   S1058     1.0  0.65125  0.28276  0.71020  1.0000
  S   S1059     1.0  0.62292  0.28821  0.68715  1.0000
  S   S1060     1.0  0.64933  0.25787  0.74033  1.0000
  Fe  Fe535     1.0  0.63984  0.28126  0.73346  1.0000
  S   S1061     1.0  0.63798  0.29768  0.74620  1.0000
  Fe  Fe536     1.0  0.65856  0.25874  0.71662  1.0000
  S   S1062     1.0  0.68138  0.24809  0.70812  1.0000
  S   S1063     1.0  0.63948  0.25369  0.71198  1.0000
  Fe  Fe537     1.0  0.58375  0.38666  0.64650  1.0000
  S   S1064     1.0  0.56519  0.38413  0.66536  1.0000
  S   S1065     1.0  0.59642  0.40442  0.64060  1.0000
  Fe  Fe538     1.0  0.58275  0.35922  0.63765  1.0000
  S   S1066     1.0  0.56449  0.35426  0.65616  1.0000
  S   S1067     1.0  0.59277  0.34291  0.62349  1.0000
  Fe  Fe539     1.0  0.55505  0.37792  0.65030  1.0000
  Fe  Fe540     1.0  0.57633  0.36074  0.66929  1.0000
  S   S1068     1.0  0.58040  0.34847  0.69120  1.0000
  S   S1069     1.0  0.57271  0.38259  0.63086  1.0000
  S   S1070     1.0  0.59550  0.36362  0.65135  1.0000
  C   C2959     1.0  0.61149  0.30516  0.68817  1.0000
  C   C2960     1.0  0.60811  0.31050  0.70086  1.0000
  C   C2961     1.0  0.59842  0.32374  0.70180  1.0000
  C   C2962     1.0  0.59226  0.33178  0.68997  1.0000
  C   C2963     1.0  0.59578  0.32652  0.67720  1.0000
  C   C2964     1.0  0.60531  0.31317  0.67634  1.0000
  H   H2959     1.0  0.61296  0.30450  0.70996  1.0000
  H   H2960     1.0  0.59578  0.32779  0.71167  1.0000
  H   H2961     1.0  0.59107  0.33267  0.66801  1.0000
  H   H2962     1.0  0.60789  0.30910  0.66649  1.0000
  C   C2965     1.0  0.60435  0.42450  0.67460  1.0000
  C   C2966     1.0  0.59423  0.41563  0.67858  1.0000
  C   C2967     1.0  0.59186  0.40920  0.66834  1.0000
  C   C2968     1.0  0.59944  0.41181  0.65396  1.0000
  C   C2969     1.0  0.60946  0.42079  0.64995  1.0000
  C   C2970     1.0  0.61200  0.42702  0.66024  1.0000
  H   H2963     1.0  0.58829  0.41360  0.68968  1.0000
  H   H2964     1.0  0.58415  0.40228  0.67158  1.0000
  H   H2965     1.0  0.61531  0.42291  0.63882  1.0000
  H   H2966     1.0  0.61978  0.43387  0.65706  1.0000
  C   C2971     1.0  0.68102  0.29943  0.75382  1.0000
  C   C2972     1.0  0.67741  0.28602  0.75598  1.0000
  C   C2973     1.0  0.66437  0.28537  0.75314  1.0000
  C   C2974     1.0  0.65464  0.29816  0.74896  1.0000
  C   C2975     1.0  0.65809  0.31152  0.74723  1.0000
  C   C2976     1.0  0.67140  0.31214  0.74934  1.0000
  C   C2977     1.0  0.82641  0.02596  0.74825  1.0000
  H   H2967     1.0  0.66174  0.27502  0.75448  1.0000
  H   H2968     1.0  0.65058  0.32142  0.74396  1.0000
  H   H2969     1.0  0.67421  0.32252  0.74731  1.0000
  C   C2978     1.0  0.66412  0.38530  0.73050  1.0000
  C   C2979     1.0  0.65354  0.39443  0.72313  1.0000
  C   C2980     1.0  0.65577  0.40785  0.71436  1.0000
  C   C2981     1.0  0.66856  0.41222  0.71307  1.0000
  C   C2982     1.0  0.67906  0.40318  0.72057  1.0000
  C   C2983     1.0  0.67688  0.38971  0.72921  1.0000
  H   H2970     1.0  0.64360  0.39110  0.72427  1.0000
  H   H2971     1.0  0.64759  0.41481  0.70866  1.0000
  H   H2972     1.0  0.68887  0.40662  0.71974  1.0000
  H   H2973     1.0  0.68502  0.38278  0.73496  1.0000
  C   C2984     1.0  0.60497  0.25458  0.60005  1.0000
  C   C2985     1.0  0.56433  0.42707  0.64712  1.0000
  H   H2974     1.0  0.81030  0.18296  0.66737  1.0000
  H   H2975     1.0  0.70071  0.21638  0.62666  1.0000
  C   C2986     1.0  0.85349  0.99197  0.69507  1.0000
  C   C2987     1.0  0.68084  0.44766  0.64757  1.0000
  H   H2976     1.0  0.67420  0.44598  0.65833  1.0000
  C   C2988     1.0  0.76539  0.32414  0.71427  1.0000
  C   C2989     1.0  0.76972  0.33460  0.71850  1.0000
  C   C2990     1.0  0.75963  0.34401  0.72661  1.0000
  C   C2991     1.0  0.74526  0.34268  0.73088  1.0000
  C   C2992     1.0  0.74109  0.33155  0.72757  1.0000
  C   C2993     1.0  0.75117  0.32228  0.71920  1.0000
  H   H2977     1.0  0.78083  0.33556  0.71539  1.0000
  H   H2978     1.0  0.76294  0.35246  0.72936  1.0000
  H   H2979     1.0  0.73003  0.33034  0.73104  1.0000
  H   H2980     1.0  0.74783  0.31408  0.71608  1.0000
  C   C2994     1.0  0.85395  0.33472  0.66725  1.0000
  N   N246      1.0  0.67652  0.43151  0.61291  1.0000
  H   H2981     1.0  0.86895  0.04218  0.67146  1.0000
  C   C2995     1.0  0.80372  0.21801  0.62242  1.0000
  C   C2996     1.0  0.84129  0.00778  0.73584  1.0000
  H   H2982     1.0  0.62959  0.46563  0.72705  1.0000
  C   C2997     1.0  0.72230  0.47805  0.60665  1.0000
  H   H2983     1.0  0.82173  0.27643  0.75300  1.0000
  C   C2998     1.0  0.73088  0.10180  0.75779  1.0000
  C   C2999     1.0  0.61635  0.37708  0.67325  1.0000
  C   C3000     1.0  0.85056  0.02282  0.66149  1.0000
  C   C3001     1.0  0.84351  0.31674  0.73195  1.0000
  C   C3002     1.0  0.83877  0.33109  0.73360  1.0000
  C   C3003     1.0  0.83349  0.34190  0.72247  1.0000
  C   C3004     1.0  0.83246  0.33835  0.70986  1.0000
  C   C3005     1.0  0.83705  0.32400  0.70828  1.0000
  C   C3006     1.0  0.84293  0.31333  0.71910  1.0000
  H   H2984     1.0  0.83940  0.33391  0.74337  1.0000
  H   H2985     1.0  0.83014  0.35304  0.72366  1.0000
  H   H2986     1.0  0.83686  0.32125  0.69835  1.0000
  H   H2987     1.0  0.84750  0.30264  0.71715  1.0000
  C   C3007     1.0  0.90037  0.23477  0.76663  1.0000
  C   C3008     1.0  0.91013  0.22295  0.77271  1.0000
  C   C3009     1.0  0.75768  0.48394  0.58330  1.0000
  H   H2988     1.0  0.64621  0.22085  0.58321  1.0000
  H   H2989     1.0  0.59427  0.26033  0.60430  1.0000
  H   H2990     1.0  0.65170  0.44732  0.72035  1.0000
  H   H2991     1.0  0.79072  0.36207  0.59791  1.0000
  H   H2992     1.0  0.75075  0.09745  0.70853  1.0000
  H   H2993     1.0  0.91259  0.21283  0.76922  1.0000
  H   H2994     1.0  0.88985  0.25702  0.76643  1.0000
  C   C3010     1.0  0.82679  0.26141  0.68541  1.0000
  C   C3011     1.0  0.83438  0.25232  0.69579  1.0000
  C   C3012     1.0  0.84647  0.25577  0.69791  1.0000
  C   C3013     1.0  0.85123  0.26817  0.68945  1.0000
  C   C3014     1.0  0.84361  0.27734  0.67904  1.0000
  C   C3015     1.0  0.83128  0.27404  0.67714  1.0000
  H   H2995     1.0  0.83099  0.24256  0.70224  1.0000
  H   H2996     1.0  0.85232  0.24858  0.70588  1.0000
  H   H2997     1.0  0.84708  0.28705  0.67255  1.0000
  H   H2998     1.0  0.82550  0.28112  0.66903  1.0000
  N   N247      1.0  0.83977  0.01816  0.74344  1.0000
  N   N248      1.0  0.51147  0.29052  0.62370  1.0000
  C   C3016     1.0  0.64132  0.47954  0.73091  1.0000
  C   C3017     1.0  0.86405  0.23528  0.64660  1.0000
  H   H2999     1.0  0.67481  0.44040  0.59085  1.0000
  H   H3000     1.0  0.68120  0.42127  0.63383  1.0000
  C   C3018     1.0  0.76831  0.20841  0.59452  1.0000
  C   C3019     1.0  0.85814  0.19236  0.75417  1.0000
  H   H3001     1.0  0.62199  0.27546  0.76424  1.0000
  H   H3002     1.0  0.74366  0.47902  0.61815  1.0000
  C   C3020     1.0  0.89822  0.17090  0.70361  1.0000
  C   C3021     1.0  0.89473  0.17586  0.71649  1.0000
  C   C3022     1.0  0.88182  0.18562  0.71989  1.0000
  C   C3023     1.0  0.87218  0.19043  0.71053  1.0000
  C   C3024     1.0  0.87566  0.18564  0.69749  1.0000
  C   C3025     1.0  0.88878  0.17594  0.69397  1.0000
  H   H3003     1.0  0.90217  0.17248  0.72374  1.0000
  H   H3004     1.0  0.87941  0.18958  0.72975  1.0000
  H   H3005     1.0  0.86830  0.18945  0.69013  1.0000
  H   H3006     1.0  0.89153  0.17229  0.68387  1.0000
  C   C3026     1.0  0.84318  0.02040  0.69925  1.0000
  C   C3027     1.0  0.83457  0.01346  0.69511  1.0000
  H   H3007     1.0  0.83914  0.03137  0.70072  1.0000
  H   H3008     1.0  0.82393  0.01918  0.69343  1.0000
  C   C3028     1.0  0.89037  0.08962  0.71636  1.0000
  C   C3029     1.0  0.88311  0.08633  0.73080  1.0000
  C   C3030     1.0  0.88702  0.09058  0.74168  1.0000
  C   C3031     1.0  0.89807  0.09827  0.73817  1.0000
  C   C3032     1.0  0.90552  0.10129  0.72376  1.0000
  C   C3033     1.0  0.90175  0.09686  0.71293  1.0000
  H   H3009     1.0  0.87432  0.08075  0.73356  1.0000
  H   H3010     1.0  0.88128  0.08813  0.75281  1.0000
  H   H3011     1.0  0.91416  0.10704  0.72097  1.0000
  H   H3012     1.0  0.90750  0.09931  0.70180  1.0000
  C   C3034     1.0  0.76759  0.19681  0.67661  1.0000
  C   C3035     1.0  0.76802  0.20846  0.68210  1.0000
  C   C3036     1.0  0.77645  0.20628  0.69236  1.0000
  C   C3037     1.0  0.78402  0.19238  0.69742  1.0000
  C   C3038     1.0  0.78336  0.18074  0.69208  1.0000
  C   C3039     1.0  0.77538  0.18301  0.68149  1.0000
  H   H3013     1.0  0.76195  0.21914  0.67836  1.0000
  H   H3014     1.0  0.77697  0.21529  0.69650  1.0000
  H   H3015     1.0  0.78902  0.16995  0.69610  1.0000
  H   H3016     1.0  0.77497  0.17395  0.67741  1.0000
  H   H3017     1.0  0.60981  0.24446  0.62117  1.0000
  S   S1071     1.0  0.84373  0.20286  0.65012  1.0000
  C   C3040     1.0  0.98741  0.13128  0.75139  1.0000
  C   C3041     1.0  0.83977  0.99932  0.69279  1.0000
  H   H3018     1.0  0.87347  0.31517  0.70680  1.0000
  H   H3019     1.0  0.90785  0.13134  0.69406  1.0000
  C   C3042     1.0  0.61028  0.36567  0.68232  1.0000
  C   C3043     1.0  0.90739  0.20177  0.73833  1.0000
  C   C3044     1.0  0.86211  0.99891  0.69924  1.0000
  C   C3045     1.0  0.81580  0.12883  0.66494  1.0000
  C   C3046     1.0  0.82723  0.12238  0.67215  1.0000
  C   C3047     1.0  0.82931  0.10768  0.67889  1.0000
  C   C3048     1.0  0.82005  0.09932  0.67832  1.0000
  C   C3049     1.0  0.80863  0.10574  0.67108  1.0000
  C   C3050     1.0  0.80644  0.12051  0.66446  1.0000
  H   H3020     1.0  0.83452  0.12873  0.67248  1.0000
  H   H3021     1.0  0.83819  0.10277  0.68437  1.0000
  H   H3022     1.0  0.80143  0.09931  0.67061  1.0000
  H   H3023     1.0  0.79762  0.12541  0.65889  1.0000
  C   C3051     1.0  0.56720  0.34073  0.59149  1.0000
  C   C3052     1.0  0.57657  0.32848  0.59734  1.0000
  C   C3053     1.0  0.58477  0.32941  0.60671  1.0000
  C   C3054     1.0  0.58335  0.34253  0.61063  1.0000
  C   C3055     1.0  0.57413  0.35489  0.60466  1.0000
  C   C3056     1.0  0.56625  0.35402  0.59491  1.0000
  H   H3024     1.0  0.57757  0.31825  0.59471  1.0000
  H   H3025     1.0  0.59194  0.31985  0.61126  1.0000
  H   H3026     1.0  0.57312  0.36510  0.60750  1.0000
  H   H3027     1.0  0.71589  0.47202  0.61634  1.0000
  C   C3057     1.0  0.67994  0.23190  0.66927  1.0000
  C   C3058     1.0  0.69230  0.23627  0.66948  1.0000
  C   C3059     1.0  0.69323  0.24046  0.68182  1.0000
  C   C3060     1.0  0.68187  0.24002  0.69395  1.0000
  C   C3061     1.0  0.67027  0.23423  0.69416  1.0000
  C   C3062     1.0  0.66919  0.23033  0.68179  1.0000
  H   H3028     1.0  0.70079  0.23707  0.65988  1.0000
  H   H3029     1.0  0.70235  0.24472  0.68168  1.0000
  H   H3030     1.0  0.66206  0.23289  0.70382  1.0000
  H   H3031     1.0  0.65989  0.22638  0.68187  1.0000
  C   C3063     1.0  0.65310  0.20133  0.61764  1.0000
  C   C3064     1.0  0.65528  0.19442  0.60619  1.0000
  C   C3065     1.0  0.50112  0.29746  0.61577  1.0000
  H   H3032     1.0  0.74460  0.32488  0.76268  1.0000
  C   C3066     1.0  0.67574  0.20915  0.60707  1.0000
  C   C3067     1.0  0.66353  0.20832  0.61827  1.0000
  H   H3033     1.0  0.64730  0.18889  0.60571  1.0000
  H   H3034     1.0  0.65679  0.18195  0.77605  1.0000
  H   H3035     1.0  0.68362  0.21485  0.60745  1.0000
  H   H3036     1.0  0.66223  0.21312  0.62737  1.0000
  C   C3068     1.0  0.59678  0.27147  0.63532  1.0000
  C   C3069     1.0  0.59178  0.28338  0.62500  1.0000
  C   C3070     1.0  0.57884  0.28449  0.62087  1.0000
  C   C3071     1.0  0.57076  0.27380  0.62720  1.0000
  C   C3072     1.0  0.57558  0.26208  0.63780  1.0000
  C   C3073     1.0  0.58861  0.26087  0.64179  1.0000
  H   H3037     1.0  0.59796  0.29172  0.62011  1.0000
  H   H3038     1.0  0.57504  0.29379  0.61302  1.0000
  H   H3039     1.0  0.56928  0.25385  0.64284  1.0000
  H   H3040     1.0  0.59216  0.25186  0.65004  1.0000
  C   C3074     1.0  0.80786  0.06677  0.74371  1.0000
  C   C3075     1.0  0.81367  0.06146  0.75616  1.0000
  H   H3041     1.0  0.81417  0.07167  0.73366  1.0000
  C   C3076     1.0  0.70770  0.15684  0.65865  1.0000
  C   C3077     1.0  0.71968  0.15670  0.66388  1.0000
  C   C3078     1.0  0.73347  0.15452  0.65504  1.0000
  C   C3079     1.0  0.73535  0.15204  0.64115  1.0000
  C   C3080     1.0  0.72336  0.15217  0.63591  1.0000
  C   C3081     1.0  0.70950  0.15480  0.64458  1.0000
  H   H3042     1.0  0.71833  0.15847  0.67466  1.0000
  H   H3043     1.0  0.74269  0.15437  0.65915  1.0000
  H   H3044     1.0  0.72477  0.15020  0.62519  1.0000
  H   H3045     1.0  0.70026  0.15488  0.64052  1.0000
  C   C3082     1.0  0.64273  0.17871  0.72458  1.0000
  C   C3083     1.0  0.64927  0.18641  0.71136  1.0000
  C   C3084     1.0  0.64097  0.19794  0.70316  1.0000
  C   C3085     1.0  0.62606  0.20166  0.70806  1.0000
  C   C3086     1.0  0.61953  0.19406  0.72134  1.0000
  C   C3087     1.0  0.62784  0.18258  0.72957  1.0000
  H   H3046     1.0  0.66075  0.18368  0.70752  1.0000
  H   H3047     1.0  0.64615  0.20400  0.69314  1.0000
  H   H3048     1.0  0.60800  0.19694  0.72520  1.0000
  H   H3049     1.0  0.62274  0.17671  0.73983  1.0000
  C   C3088     1.0  0.79477  0.21794  0.63619  1.0000
  H   H3050     1.0  0.57410  0.43130  0.64319  1.0000
  C   C3089     1.0  0.85428  0.21498  0.76065  1.0000
  C   C3090     1.0  0.86646  0.21020  0.76683  1.0000
  H   H3051     1.0  0.73266  0.47074  0.60313  1.0000
  C   C3091     1.0  0.72730  0.99368  0.77500  1.0000
  H   H3052     1.0  0.72799  0.10081  0.76947  1.0000
  H   H3053     1.0  0.52435  0.27014  0.63191  1.0000
  H   H3054     1.0  0.58674  0.28096  0.72305  1.0000
  C   C3092     1.0  0.62033  0.38645  0.67938  1.0000
  C   C3093     1.0  0.54512  0.42037  0.66697  1.0000
  H   H3055     1.0  0.74931  0.08206  0.73245  1.0000
  S   S1072     1.0  0.86823  0.02167  0.70617  1.0000
  N   N249      1.0  0.86700  0.32387  0.68644  1.0000
  C   C3094     1.0  0.76847  0.16972  0.59449  1.0000
  H   H3056     1.0  0.92099  0.20818  0.68710  1.0000
  C   C3095     1.0  0.86207  0.02634  0.66468  1.0000
  H   H3057     1.0  0.54217  0.41371  0.63563  1.0000
  H   H3058     1.0  0.85029  0.15906  0.64808  1.0000
  S   S1073     1.0  0.96707  0.12430  0.74129  1.0000
  C   C3096     1.0  0.89735  0.13356  0.69074  1.0000
  H   H3059     1.0  0.69256  0.03245  0.76902  1.0000
  C   C3097     1.0  0.97529  0.13654  0.74500  1.0000
  C   C3098     1.0  0.80952  0.30767  0.61616  1.0000
  C   C3099     1.0  0.56610  0.42377  0.62262  1.0000
  H   H3060     1.0  0.89334  0.14023  0.71623  1.0000
  H   H3061     1.0  0.87549  0.13341  0.73855  1.0000
  H   H3062     1.0  0.71632  0.18748  0.75807  1.0000
  C   C3100     1.0  0.80773  0.22281  0.59597  1.0000
  H   H3063     1.0  0.89881  0.12674  0.68279  1.0000
  N   N250      1.0  0.74662  0.18766  0.71353  1.0000
  C   C3101     1.0  0.74372  0.19833  0.72114  1.0000
  C   C3102     1.0  0.74080  0.18991  0.70164  1.0000
  C   C3103     1.0  0.73497  0.21177  0.71675  1.0000
  C   C3104     1.0  0.73221  0.20330  0.69680  1.0000
  C   C3105     1.0  0.72925  0.21426  0.70445  1.0000
  C   C3106     1.0  0.75551  0.17358  0.71863  1.0000
  H   H3064     1.0  0.74802  0.19639  0.73079  1.0000
  H   H3065     1.0  0.74283  0.18136  0.69577  1.0000
  H   H3066     1.0  0.73232  0.22003  0.72308  1.0000
  H   H3067     1.0  0.72780  0.20508  0.68725  1.0000
  H   H3068     1.0  0.72223  0.22453  0.70108  1.0000
  H   H3069     1.0  0.75905  0.16684  0.71029  1.0000
  H   H3070     1.0  0.76535  0.17500  0.72120  1.0000
  H   H3071     1.0  0.74928  0.16757  0.72847  1.0000
  H   H3072     1.0  0.52713  0.27565  0.61248  1.0000
  H   H3073     1.0  0.77023  0.34975  0.60338  1.0000
  N   N251      1.0  0.83555  0.04555  0.66596  1.0000
  C   C3107     1.0  0.72566  0.11456  0.74861  1.0000
  C   C3108     1.0  0.75871  0.21704  0.58571  1.0000
  H   H3074     1.0  0.67790  0.19336  0.74527  1.0000
  H   H3075     1.0  0.81636  0.05470  0.67922  1.0000
  H   H3076     1.0  0.52391  0.29225  0.63784  1.0000
  H   H3077     1.0  0.80153  0.29472  0.76275  1.0000
  H   H3078     1.0  0.84887  0.22673  0.59908  1.0000
  H   H3079     1.0  0.51994  0.35564  0.61901  1.0000
  H   H3080     1.0  0.85189  0.00150  0.73212  1.0000
  N   N252      1.0  0.63244  0.23992  0.58920  1.0000
  H   H3081     1.0  0.67728  0.47367  0.72638  1.0000
  C   C3109     1.0  0.50290  0.35771  0.64714  1.0000
  C   C3110     1.0  0.83757  0.21154  0.74784  1.0000
  C   C3111     1.0  0.68903  0.19580  0.64672  1.0000
  C   C3112     1.0  0.85616  0.32125  0.66386  1.0000
  H   H3082     1.0  0.77775  0.17520  0.59017  1.0000
  H   H3083     1.0  0.69171  0.18579  0.64241  1.0000
  H   H3084     1.0  0.68286  0.19371  0.65809  1.0000
  S   S1074     1.0  0.74392  0.41338  0.59524  1.0000
  C   C3113     1.0  0.66593  0.45940  0.72283  1.0000
  S   S1075     1.0  0.71831  0.22223  0.59105  1.0000
  C   C3114     1.0  0.73154  0.34518  0.78111  1.0000
  C   C3115     1.0  0.87034  0.18719  0.76035  1.0000
  N   N253      1.0  0.75599  0.17775  0.58811  1.0000
  C   C3116     1.0  0.64709  0.21675  0.77300  1.0000
  C   C3117     1.0  0.81571  0.01376  0.73671  1.0000
  S   S1076     1.0  0.68734  0.24443  0.58574  1.0000
  H   H3085     1.0  0.85543  0.01218  0.75647  1.0000
  C   C3118     1.0  0.74046  0.10477  0.71225  1.0000
  H   H3086     1.0  0.74127  0.11591  0.70610  1.0000
  H   H3087     1.0  0.66165  0.45156  0.61377  1.0000
  H   H3088     1.0  0.86025  0.22505  0.64871  1.0000
  H   H3089     1.0  0.74112  0.16769  0.60543  1.0000
  N   N254      1.0  0.69692  0.27854  0.72722  1.0000
  C   C3119     1.0  0.70831  0.27542  0.73390  1.0000
  C   C3120     1.0  0.68986  0.26799  0.72797  1.0000
  C   C3121     1.0  0.71254  0.26156  0.74205  1.0000
  C   C3122     1.0  0.69384  0.25401  0.73596  1.0000
  C   C3123     1.0  0.70520  0.25081  0.74310  1.0000
  C   C3124     1.0  0.69232  0.29317  0.71899  1.0000
  H   H3090     1.0  0.71388  0.28380  0.73337  1.0000
  H   H3091     1.0  0.68096  0.27040  0.72252  1.0000
  H   H3092     1.0  0.72131  0.25924  0.74766  1.0000
  H   H3093     1.0  0.74755  0.22056  0.59054  1.0000
  H   H3094     1.0  0.74352  0.08009  0.75890  1.0000
  Fe  Fe541     1.0  0.70596  0.24393  0.59528  1.0000
  H   H3095     1.0  0.68035  0.29632  0.72097  1.0000
  H   H3096     1.0  0.69596  0.30132  0.72246  1.0000
  H   H3097     1.0  0.67232  0.17375  0.76403  1.0000
  C   C3125     1.0  0.91780  0.16784  0.77581  1.0000
  C   C3126     1.0  0.86020  0.03957  0.66849  1.0000
  C   C3127     1.0  0.84678  0.04910  0.66909  1.0000
  H   H3098     1.0  0.58840  0.28945  0.69662  1.0000
  S   S1077     1.0  0.61654  0.23876  0.74992  1.0000
  C   C3128     1.0  0.81421  0.02407  0.74479  1.0000
  C   C3129     1.0  0.78511  0.26612  0.77274  1.0000
  N   N255      1.0  0.73765  0.10391  0.72792  1.0000
  H   H3099     1.0  0.77884  0.22942  0.60178  1.0000
  H   H3100     1.0  0.63399  0.23113  0.61131  1.0000
  H   H3101     1.0  0.88399  0.19236  0.77142  1.0000
  C   C3130     1.0  0.77988  0.22188  0.63744  1.0000
  H   H3102     1.0  0.55920  0.36362  0.59024  1.0000
  H   H3103     1.0  0.60696  0.24660  0.69024  1.0000
  H   H3104     1.0  0.87225  0.01864  0.66472  1.0000
  C   C3131     1.0  0.88546  0.13450  0.71589  1.0000
  N   N256      1.0  0.65787  0.27282  0.65409  1.0000
  C   C3132     1.0  0.66814  0.26638  0.64392  1.0000
  C   C3133     1.0  0.64520  0.28117  0.65069  1.0000
  C   C3134     1.0  0.66577  0.26812  0.63000  1.0000
  C   C3135     1.0  0.64261  0.28336  0.63678  1.0000
  C   C3136     1.0  0.65292  0.27667  0.62643  1.0000
  C   C3137     1.0  0.66001  0.27012  0.66896  1.0000
  H   H3105     1.0  0.67820  0.25968  0.64653  1.0000
  H   H3106     1.0  0.63696  0.28614  0.65875  1.0000
  H   H3107     1.0  0.67383  0.26272  0.62210  1.0000
  H   H3108     1.0  0.63250  0.28994  0.63417  1.0000
  H   H3109     1.0  0.65089  0.27801  0.61571  1.0000
  H   H3110     1.0  0.67161  0.26668  0.66943  1.0000
  H   H3111     1.0  0.65554  0.28003  0.67353  1.0000
  H   H3112     1.0  0.65442  0.26146  0.67595  1.0000
  H   H3113     1.0  0.72376  0.99906  0.76496  1.0000
  H   H3114     1.0  0.85833  0.11282  0.71504  1.0000
  H   H3115     1.0  0.97343  0.18450  0.76402  1.0000
  H   H3116     1.0  0.92110  0.18899  0.69210  1.0000
  C   C3138     1.0  0.83118  0.23883  0.61226  1.0000
  H   H3117     1.0  0.90458  0.20159  0.69050  1.0000
  C   C3139     1.0  0.66236  0.43984  0.61860  1.0000
  H   H3118     1.0  0.85518  0.20717  0.61972  1.0000
  C   C3140     1.0  0.51547  0.35189  0.65272  1.0000
  C   C3141     1.0  0.92202  0.19223  0.71757  1.0000
  C   C3142     1.0  0.71062  0.07561  0.76146  1.0000
  H   H3119     1.0  0.92709  0.18583  0.73896  1.0000
  H   H3120     1.0  0.95843  0.18428  0.77946  1.0000
  C   C3143     1.0  0.83727  0.03257  0.66228  1.0000
  H   H3121     1.0  0.86974  0.21735  0.77156  1.0000
  H   H3122     1.0  0.53472  0.35801  0.60363  1.0000
  H   H3123     1.0  0.77277  0.22197  0.64801  1.0000
  N   N257      1.0  0.61823  0.38455  0.69413  1.0000
  C   C3144     1.0  0.61212  0.37348  0.70310  1.0000
  H   H3124     1.0  0.53383  0.35628  0.65763  1.0000
  C   C3145     1.0  0.60808  0.36386  0.69733  1.0000
  C   C3146     1.0  0.62198  0.39467  0.70051  1.0000
  H   H3125     1.0  0.61027  0.37208  0.71479  1.0000
  C   C3147     1.0  0.49461  0.31198  0.61565  1.0000
  H   H3126     1.0  0.60310  0.35514  0.70440  1.0000
  H   H3127     1.0  0.62840  0.38871  0.70889  1.0000
  H   H3128     1.0  0.62845  0.40200  0.69226  1.0000
  H   H3129     1.0  0.61202  0.40159  0.70556  1.0000
  H   H3130     1.0  0.73219  0.25142  0.59862  1.0000
  H   H3131     1.0  0.73150  0.10173  0.70955  1.0000
  C   C3148     1.0  0.65248  0.45702  0.72318  1.0000
  S   S1078     1.0  0.67661  0.33545  0.76939  1.0000
  Fe  Fe542     1.0  0.69210  0.34188  0.77838  1.0000
  C   C3149     1.0  0.66678  0.47190  0.72664  1.0000
  H   H3132     1.0  0.80637  0.01227  0.73379  1.0000
  H   H3133     1.0  0.82795  0.21528  0.75595  1.0000
  C   C3150     1.0  0.78286  0.20395  0.58837  1.0000
  C   C3151     1.0  0.79122  0.05444  0.76971  1.0000
  H   H3134     1.0  0.85050  0.03138  0.74942  1.0000
  C   C3152     1.0  0.84233  0.25456  0.64655  1.0000
  S   S1079     1.0  0.78337  0.40977  0.59120  1.0000
  C   C3153     1.0  0.49848  0.31932  0.62397  1.0000
  H   H3135     1.0  0.76577  0.16881  0.60640  1.0000
  S   S1080     1.0  0.76779  0.29156  0.59796  1.0000
  H   H3136     1.0  0.67124  0.21312  0.72493  1.0000
  C   C3154     1.0  0.54656  0.41723  0.64290  1.0000
  C   C3155     1.0  0.73169  0.25336  0.60913  1.0000
  C   C3156     1.0  0.89731  0.24785  0.77112  1.0000
  C   C3157     1.0  0.50814  0.38162  0.64223  1.0000
  H   H3137     1.0  0.72949  0.19154  0.66409  1.0000
  C   C3158     1.0  0.75898  0.36593  0.58816  1.0000
  C   C3159     1.0  0.82010  0.17487  0.66839  1.0000
  H   H3138     1.0  0.70828  0.24002  0.74943  1.0000
  C   C3160     1.0  0.78698  0.28011  0.77131  1.0000
  C   C3161     1.0  0.91492  0.19986  0.69396  1.0000
  C   C3162     1.0  0.61003  0.25591  0.58509  1.0000
  C   C3163     1.0  0.80966  0.25952  0.75970  1.0000
  N   N258      1.0  0.54031  0.34268  0.62218  1.0000
  C   C3164     1.0  0.54940  0.34280  0.63059  1.0000
  C   C3165     1.0  0.53961  0.32997  0.61939  1.0000
  C   C3166     1.0  0.55803  0.32993  0.63653  1.0000
  C   C3167     1.0  0.54811  0.31689  0.62514  1.0000
  C   C3168     1.0  0.55738  0.31691  0.63375  1.0000
  H   H3139     1.0  0.67558  0.45155  0.71958  1.0000
  H   H3140     1.0  0.55034  0.35292  0.63241  1.0000
  H   H3141     1.0  0.53270  0.33004  0.61236  1.0000
  H   H3142     1.0  0.56563  0.33011  0.64273  1.0000
  H   H3143     1.0  0.54781  0.30684  0.62267  1.0000
  H   H3144     1.0  0.56432  0.30693  0.63796  1.0000
  C   C3169     1.0  0.69822  0.41414  0.61680  1.0000
  H   H3145     1.0  0.51183  0.31780  0.63882  1.0000
  S   S1081     1.0  0.77342  0.29237  0.78002  1.0000
  H   H3146     1.0  0.65372  0.43617  0.61608  1.0000
  H   H3147     1.0  0.83518  0.20318  0.74356  1.0000
  H   H3148     1.0  0.82801  0.27679  0.61838  1.0000
  Fe  Fe543     1.0  0.78701  0.29675  0.60209  1.0000
  H   H3149     1.0  0.96243  0.17134  0.76832  1.0000
  Fe  Fe544     1.0  0.69519  0.20807  0.77032  1.0000
  S   S1082     1.0  0.78417  0.31867  0.60672  1.0000
  C   C3170     1.0  0.51885  0.27563  0.62272  1.0000
  N   N259      1.0  0.77026  0.29391  0.64501  1.0000
  C   C3171     1.0  0.77360  0.28007  0.65275  1.0000
  C   C3172     1.0  0.77719  0.30417  0.64534  1.0000
  C   C3173     1.0  0.78430  0.27620  0.66093  1.0000
  C   C3174     1.0  0.78803  0.30062  0.65327  1.0000
  C   C3175     1.0  0.79150  0.28659  0.66120  1.0000
  C   C3176     1.0  0.75866  0.29800  0.63694  1.0000
  H   H3150     1.0  0.76806  0.27193  0.65253  1.0000
  H   H3151     1.0  0.77445  0.31518  0.63934  1.0000
  H   H3152     1.0  0.78700  0.26523  0.66707  1.0000
  H   H3153     1.0  0.79372  0.30870  0.65327  1.0000
  H   H3154     1.0  0.79970  0.28384  0.66760  1.0000
  H   H3155     1.0  0.76110  0.30622  0.62686  1.0000
  H   H3156     1.0  0.75729  0.28859  0.63351  1.0000
  H   H3157     1.0  0.74837  0.30246  0.64379  1.0000
  N   N260      1.0  0.64736  0.17049  0.66957  1.0000
  C   C3177     1.0  0.65144  0.16234  0.68212  1.0000
  C   C3178     1.0  0.63399  0.17932  0.67001  1.0000
  C   C3179     1.0  0.64192  0.16269  0.69553  1.0000
  C   C3180     1.0  0.62426  0.18005  0.68326  1.0000
  C   C3181     1.0  0.62823  0.17156  0.69606  1.0000
  C   C3182     1.0  0.65772  0.17052  0.65569  1.0000
  H   H3158     1.0  0.66213  0.15557  0.68182  1.0000
  H   H3159     1.0  0.63086  0.18603  0.66011  1.0000
  H   H3160     1.0  0.64523  0.15637  0.70550  1.0000
  H   H3161     1.0  0.61381  0.18737  0.68364  1.0000
  H   H3162     1.0  0.62085  0.17210  0.70641  1.0000
  H   H3163     1.0  0.66535  0.15990  0.65567  1.0000
  H   H3164     1.0  0.65219  0.17278  0.64650  1.0000
  H   H3165     1.0  0.66403  0.17894  0.65377  1.0000
  N   N261      1.0  0.73808  0.37568  0.68986  1.0000
  C   C3183     1.0  0.73674  0.38744  0.67866  1.0000
  C   C3184     1.0  0.72685  0.37390  0.70143  1.0000
  C   C3185     1.0  0.72383  0.39779  0.67884  1.0000
  C   C3186     1.0  0.71379  0.38401  0.70195  1.0000
  C   C3187     1.0  0.71229  0.39605  0.69059  1.0000
  C   C3188     1.0  0.75176  0.36509  0.68938  1.0000
  H   H3166     1.0  0.74572  0.38888  0.66953  1.0000
  H   H3167     1.0  0.72791  0.36466  0.71038  1.0000
  H   H3168     1.0  0.72283  0.40711  0.66992  1.0000
  H   H3169     1.0  0.70494  0.38250  0.71115  1.0000
  H   H3170     1.0  0.70221  0.40402  0.69094  1.0000
  H   H3171     1.0  0.75467  0.36081  0.67929  1.0000
  H   H3172     1.0  0.76047  0.37031  0.68948  1.0000
  H   H3173     1.0  0.75130  0.35575  0.69872  1.0000
  H   H3174     1.0  0.85765  0.34638  0.68121  1.0000
  H   H3175     1.0  0.84769  0.34421  0.66135  1.0000
  H   H3176     1.0  0.88355  0.32792  0.69405  1.0000
  N   N262      1.0  0.55895  0.42245  0.63796  1.0000
  N   N263      1.0  0.85443  0.24713  0.63888  1.0000
  Fe  Fe545     1.0  0.76234  0.42456  0.58742  1.0000
  C   C3189     1.0  0.84244  0.16155  0.65767  1.0000
  H   H3177     1.0  0.82004  0.19014  0.64224  1.0000
  H   H3178     1.0  0.66033  0.43872  0.63057  1.0000
  H   H3179     1.0  0.76256  0.22893  0.62591  1.0000
  H   H3180     1.0  0.53272  0.36568  0.61909  1.0000
  H   H3181     1.0  0.57796  0.42224  0.62127  1.0000
  C   C3190     1.0  0.78996  0.38076  0.62846  1.0000
  N   N264      1.0  0.80187  0.27656  0.72425  1.0000
  C   C3191     1.0  0.81283  0.28311  0.71592  1.0000
  C   C3192     1.0  0.79041  0.28399  0.73267  1.0000
  C   C3193     1.0  0.81283  0.29723  0.71635  1.0000
  C   C3194     1.0  0.79001  0.29819  0.73325  1.0000
  C   C3195     1.0  0.80138  0.30480  0.72510  1.0000
  C   C3196     1.0  0.80235  0.26164  0.72374  1.0000
  H   H3182     1.0  0.82176  0.27735  0.70903  1.0000
  H   H3183     1.0  0.78159  0.27892  0.73913  1.0000
  H   H3184     1.0  0.82168  0.30223  0.70990  1.0000
  H   H3185     1.0  0.78092  0.30405  0.73994  1.0000
  H   H3186     1.0  0.80121  0.31582  0.72537  1.0000
  H   H3187     1.0  0.79962  0.26140  0.71348  1.0000
  H   H3188     1.0  0.81331  0.25492  0.72428  1.0000
  H   H3189     1.0  0.79483  0.25656  0.73313  1.0000
  N   N265      1.0  0.85027  0.20610  0.75442  1.0000
  H   H3190     1.0  0.93150  0.18500  0.71294  1.0000
  C   C3197     1.0  0.79185  0.38838  0.61392  1.0000
  N   N266      1.0  0.70228  0.20029  0.64610  1.0000
  H   H3191     1.0  0.83062  0.99740  0.72601  1.0000
  C   C3198     1.0  0.85965  0.33588  0.67851  1.0000
  S   S1083     1.0  0.69185  0.14071  0.73407  1.0000
  S   S1084     1.0  0.69772  0.30037  0.75618  1.0000
  H   H3192     1.0  0.51113  0.26914  0.62276  1.0000
  H   H3193     1.0  0.76261  0.47255  0.58493  1.0000
  H   H3194     1.0  0.83996  0.25199  0.65831  1.0000
  C   C3199     1.0  0.87272  0.32530  0.69831  1.0000
  H   H3195     1.0  0.62480  0.39545  0.67225  1.0000
  S   S1085     1.0  0.65546  0.46461  0.67954  1.0000
  H   H3196     1.0  0.81362  0.23166  0.59368  1.0000
  H   H3197     1.0  0.87527  0.23380  0.64018  1.0000
  S   S1086     1.0  0.70112  0.10241  0.72448  1.0000
  C   C3200     1.0  0.84629  0.21616  0.62165  1.0000
  H   H3198     1.0  0.78954  0.06949  0.73440  1.0000
  H   H3199     1.0  0.86545  0.33394  0.70383  1.0000
  H   H3200     1.0  0.80535  0.34035  0.63334  1.0000
  S   S1087     1.0  0.82920  0.99173  0.68602  1.0000
  C   C3201     1.0  0.53151  0.35619  0.61566  1.0000
  C   C3202     1.0  0.79388  0.06562  0.74415  1.0000
  H   H3201     1.0  0.71609  0.07550  0.73861  1.0000
  C   C3203     1.0  0.68439  0.46031  0.62244  1.0000
  C   C3204     1.0  0.83555  0.26872  0.62420  1.0000
  H   H3202     1.0  0.49349  0.33061  0.62395  1.0000
  S   S1088     1.0  0.61936  0.27792  0.73027  1.0000
  H   H3203     1.0  0.83590  0.15029  0.69437  1.0000
  C   C3205     1.0  0.81774  0.31920  0.63070  1.0000
  C   C3206     1.0  0.89771  0.21034  0.72973  1.0000
  C   C3207     1.0  0.69471  0.43914  0.64492  1.0000
  C   C3208     1.0  0.80650  0.33118  0.62863  1.0000
  C   C3209     1.0  0.71014  0.19349  0.65656  1.0000
  H   H3204     1.0  0.70628  0.18527  0.66552  1.0000
  C   C3210     1.0  0.74341  0.25786  0.62608  1.0000
  H   H3205     1.0  0.50527  0.39314  0.63810  1.0000
  C   C3211     1.0  0.87527  0.13083  0.72848  1.0000
  H   H3206     1.0  0.69863  0.43090  0.65364  1.0000
  S   S1089     1.0  0.72464  0.15756  0.72272  1.0000
  C   C3212     1.0  0.55758  0.42599  0.66177  1.0000
  H   H3207     1.0  0.60714  0.35829  0.67778  1.0000
  H   H3208     1.0  0.70760  0.18477  0.71120  1.0000
  C   C3213     1.0  0.70126  0.09512  0.74293  1.0000
  C   C3214     1.0  0.86937  0.31063  0.68307  1.0000
  H   H3209     1.0  0.85170  0.32018  0.65522  1.0000
  C   C3215     1.0  0.72320  0.19705  0.65586  1.0000
  H   H3210     1.0  0.87521  0.30106  0.68930  1.0000
  H   H3211     1.0  0.85780  0.11965  0.73800  1.0000
  C   C3216     1.0  0.64020  0.22537  0.76187  1.0000
  H   H3212     1.0  0.84528  0.05924  0.67235  1.0000
  H   H3213     1.0  0.87665  0.11933  0.69322  1.0000
  C   C3217     1.0  0.86534  0.12312  0.72816  1.0000
  H   H3214     1.0  0.82254  0.06677  0.66268  1.0000
  C   C3218     1.0  0.78559  0.05939  0.75711  1.0000
  C   C3219     1.0  0.70336  0.44101  0.63099  1.0000
  C   C3220     1.0  0.86406  0.30915  0.67171  1.0000
  S   S1090     1.0  0.62399  0.46789  0.67157  1.0000
  C   C3221     1.0  0.86558  0.11936  0.71526  1.0000
  C   C3222     1.0  0.82720  0.22857  0.63815  1.0000
  C   C3223     1.0  0.77413  0.22579  0.62501  1.0000
  C   C3224     1.0  0.80534  0.05536  0.76919  1.0000
  C   C3225     1.0  0.70985  0.08147  0.74688  1.0000
  H   H3215     1.0  0.72870  0.35173  0.77101  1.0000
  Fe  Fe546     1.0  0.80583  0.26742  0.59856  1.0000
  H   H3216     1.0  0.68188  0.20438  0.64035  1.0000
  H   H3217     1.0  0.86599  0.29862  0.66911  1.0000
  C   C3226     1.0  0.72813  0.20772  0.64441  1.0000
  C   C3227     1.0  0.83441  0.15644  0.68369  1.0000
  S   S1091     1.0  0.76853  0.05727  0.75709  1.0000
  H   H3218     1.0  0.85517  0.18542  0.74893  1.0000
  C   C3228     1.0  0.71742  0.17335  0.72944  1.0000
  C   C3229     1.0  0.70937  0.18529  0.72150  1.0000
  C   C3230     1.0  0.70708  0.21071  0.63479  1.0000
  C   C3231     1.0  0.87603  0.12308  0.70292  1.0000
  Fe  Fe547     1.0  0.64729  0.45984  0.66239  1.0000
  H   H3219     1.0  0.93162  0.14758  0.77210  1.0000
  H   H3220     1.0  0.68611  0.11305  0.75076  1.0000
  C   C3232     1.0  0.92939  0.15623  0.77777  1.0000
  C   C3233     1.0  0.69310  0.10271  0.75368  1.0000
  C   C3234     1.0  0.91964  0.19266  0.73224  1.0000
  H   H3221     1.0  0.73817  0.21070  0.64378  1.0000
  N   N267      1.0  0.88598  0.13029  0.70346  1.0000
  H   H3222     1.0  0.89480  0.14515  0.68542  1.0000
  C   C3235     1.0  0.74390  0.25588  0.61225  1.0000
  N   N268      1.0  0.91234  0.20053  0.70928  1.0000
  C   C3236     1.0  0.77749  0.38510  0.63851  1.0000
  C   C3237     1.0  0.62740  0.23826  0.60388  1.0000
  H   H3223     1.0  0.99103  0.11974  0.75489  1.0000
  N   N269      1.0  0.83033  0.17211  0.65635  1.0000
  C   C3238     1.0  0.70421  0.19821  0.72650  1.0000
  H   H3224     1.0  0.75347  0.33976  0.75911  1.0000
  H   H3225     1.0  0.69829  0.20757  0.72018  1.0000
  H   H3226     1.0  0.61768  0.37883  0.66156  1.0000
  C   C3239     1.0  0.81952  0.30764  0.62412  1.0000
  H   H3227     1.0  0.82837  0.29854  0.62559  1.0000
  C   C3240     1.0  0.72006  0.21457  0.63379  1.0000
  H   H3228     1.0  0.76448  0.20551  0.60606  1.0000
  S   S1092     1.0  0.71997  0.42910  0.62769  1.0000
  C   C3241     1.0  0.67557  0.45808  0.63628  1.0000
  H   H3229     1.0  0.82412  0.17290  0.63695  1.0000
  C   C3242     1.0  0.78188  0.36665  0.59226  1.0000
  H   H3230     1.0  0.82519  0.03383  0.75465  1.0000
  H   H3231     1.0  0.83819  0.18255  0.63474  1.0000
  H   H3232     1.0  0.75728  0.40037  0.64164  1.0000
  H   H3233     1.0  0.68818  0.24567  0.73655  1.0000
  C   C3243     1.0  0.82801  0.17981  0.64182  1.0000
  H   H3234     1.0  0.71739  0.06516  0.76430  1.0000
  H   H3235     1.0  0.52991  0.41148  0.66138  1.0000
  H   H3236     1.0  0.70859  0.25566  0.64152  1.0000
  C   C3244     1.0  0.85248  0.02048  0.74695  1.0000
  H   H3237     1.0  0.64656  0.22990  0.75172  1.0000
  H   H3238     1.0  0.80184  0.22475  0.58714  1.0000
  H   H3239     1.0  0.85171  0.01231  0.65912  1.0000
  C   C3245     1.0  0.97831  0.16099  0.74213  1.0000
  H   H3240     1.0  0.68476  0.27617  0.75963  1.0000
  H   H3241     1.0  0.86646  0.24390  0.61793  1.0000
  C   C3246     1.0  0.74257  0.17527  0.59507  1.0000
  C   C3247     1.0  0.76692  0.39691  0.63395  1.0000
  C   C3248     1.0  0.69366  0.09671  0.76832  1.0000
  H   H3242     1.0  0.79818  0.37166  0.63193  1.0000
  H   H3243     1.0  0.85424  0.14514  0.67231  1.0000
  H   H3244     1.0  0.72492  0.12532  0.72659  1.0000
  H   H3245     1.0  0.80155  0.38513  0.60620  1.0000
  C   C3249     1.0  0.84472  0.15362  0.67135  1.0000
  H   H3246     1.0  0.60558  0.23768  0.71662  1.0000
  H   H3247     1.0  0.69668  0.29367  0.70722  1.0000
  H   H3248     1.0  0.89276  0.21636  0.70855  1.0000
  H   H3249     1.0  0.87667  0.17633  0.76005  1.0000
  H   H3250     1.0  0.72375  0.22292  0.62489  1.0000
  S   S1093     1.0  0.53211  0.38729  0.64728  1.0000
  C   C3250     1.0  0.80008  0.28390  0.76386  1.0000
  C   C3251     1.0  0.53950  0.41605  0.65747  1.0000
  C   C3252     1.0  0.84794  0.26115  0.61648  1.0000
  C   C3253     1.0  0.70315  0.41553  0.60186  1.0000
  C   C3254     1.0  0.79641  0.25587  0.76681  1.0000
  C   C3255     1.0  0.79653  0.33123  0.62070  1.0000
  C   C3256     1.0  0.82203  0.16713  0.68223  1.0000
  Fe  Fe548     1.0  0.62970  0.25446  0.73522  1.0000
  C   C3257     1.0  0.70671  0.19897  0.73969  1.0000
  H   H3251     1.0  0.82310  0.27129  0.64547  1.0000
  H   H3252     1.0  0.68036  0.46841  0.61370  1.0000
  H   H3253     1.0  0.63433  0.18884  0.76022  1.0000
  C   C3258     1.0  0.62528  0.22751  0.76363  1.0000
  H   H3254     1.0  0.72605  0.16487  0.74883  1.0000
  H   H3255     1.0  0.70499  0.40719  0.62417  1.0000
  C   C3259     1.0  0.82142  0.05540  0.66751  1.0000
  C   C3260     1.0  0.52433  0.36088  0.65307  1.0000
  H   H3256     1.0  0.96150  0.15564  0.73546  1.0000
  C   C3261     1.0  0.85720  0.25015  0.62403  1.0000
  S   S1094     1.0  0.70344  0.24990  0.61653  1.0000
  Fe  Fe549     1.0  0.77429  0.27007  0.61218  1.0000
  C   C3262     1.0  0.73057  0.18243  0.58891  1.0000
  C   C3263     1.0  0.60238  0.25416  0.69741  1.0000
  H   H3257     1.0  0.56190  0.43459  0.61635  1.0000
  C   C3264     1.0  0.64878  0.21200  0.73101  1.0000
  C   C3265     1.0  0.90044  0.20972  0.71510  1.0000
  H   H3258     1.0  0.81067  0.29861  0.61131  1.0000
  H   H3259     1.0  0.76061  0.41367  0.61623  1.0000
  N   N270      1.0  0.79800  0.22215  0.61026  1.0000
  C   C3266     1.0  0.64247  0.19408  0.75245  1.0000
  S   S1095     1.0  0.78824  0.25992  0.59387  1.0000
  H   H3260     1.0  0.65864  0.21493  0.77138  1.0000
  S   S1096     1.0  0.65766  0.46749  0.63922  1.0000
  C   C3267     1.0  0.97068  0.15145  0.74055  1.0000
  C   C3268     1.0  0.76878  0.40445  0.61948  1.0000
  H   H3261     1.0  0.81445  0.24847  0.62821  1.0000
  H   H3262     1.0  0.60951  0.26959  0.78065  1.0000
  N   N271      1.0  0.59750  0.26847  0.69192  1.0000
  C   C3269     1.0  0.63837  0.20528  0.74112  1.0000
  H   H3263     1.0  0.73030  0.25904  0.64735  1.0000
  C   C3270     1.0  0.60160  0.24904  0.71233  1.0000
  H   H3264     1.0  0.82825  0.02943  0.66039  1.0000
  H   H3265     1.0  0.71667  0.48115  0.59743  1.0000
  H   H3266     1.0  0.62717  0.20877  0.74021  1.0000
  C   C3271     1.0  0.52081  0.37577  0.64765  1.0000
  H   H3267     1.0  0.82134  0.22930  0.64901  1.0000
  H   H3268     1.0  0.90541  0.20216  0.74970  1.0000
  H   H3269     1.0  0.81400  0.16940  0.69178  1.0000
  C   C3272     1.0  0.84269  0.22720  0.60996  1.0000
  H   H3270     1.0  0.59527  0.25489  0.73322  1.0000
  C   C3273     1.0  0.59908  0.27359  0.67617  1.0000
  N   N272      1.0  0.65657  0.18972  0.75368  1.0000
  H   H3271     1.0  0.77497  0.26314  0.77854  1.0000
  H   H3272     1.0  0.84998  0.26336  0.60471  1.0000
  C   C3274     1.0  0.59583  0.25870  0.72164  1.0000
  H   H3273     1.0  0.88815  0.21743  0.73438  1.0000
  H   H3274     1.0  0.82675  0.30879  0.76939  1.0000
  C   C3275     1.0  0.71845  0.25556  0.63338  1.0000
  N   N273      1.0  0.65456  0.48181  0.73055  1.0000
  S   S1097     1.0  0.69991  0.21486  0.74620  1.0000
  H   H3275     1.0  0.64564  0.22057  0.72215  1.0000
  C   C3276     1.0  0.71996  0.17415  0.74260  1.0000
  C   C3277     1.0  0.59094  0.27329  0.71595  1.0000
  C   C3278     1.0  0.66680  0.19655  0.74406  1.0000
  C   C3279     1.0  0.82930  0.00541  0.73237  1.0000
  C   C3280     1.0  0.72916  0.11542  0.73362  1.0000
  H   H3276     1.0  0.59541  0.26644  0.67140  1.0000
  C   C3281     1.0  0.66309  0.20774  0.73254  1.0000
  C   C3282     1.0  0.59186  0.27802  0.70098  1.0000
  C   C3283     1.0  0.82329  0.23944  0.62636  1.0000
  C   C3284     1.0  0.83866  0.21685  0.63577  1.0000
  H   H3277     1.0  0.86434  0.23749  0.65711  1.0000
  H   H3278     1.0  0.59276  0.28474  0.67325  1.0000
  Fe  Fe550     1.0  0.63227  0.47098  0.68975  1.0000
  H   H3279     1.0  0.81561  0.21238  0.59563  1.0000
  H   H3280     1.0  0.51834  0.34037  0.65684  1.0000
  C   C3285     1.0  0.78124  0.40027  0.60941  1.0000
  H   H3281     1.0  0.56215  0.42928  0.66906  1.0000
  C   C3286     1.0  0.78340  0.22603  0.61141  1.0000
  C   C3287     1.0  0.61368  0.24568  0.60952  1.0000
  H   H3282     1.0  0.75375  0.25594  0.60410  1.0000
  S   S1098     1.0  0.75862  0.26011  0.63076  1.0000
  C   C3288     1.0  0.74280  0.09134  0.73686  1.0000
  C   C3289     1.0  0.50888  0.31213  0.63223  1.0000
  C   C3290     1.0  0.71444  0.18692  0.74782  1.0000
  H   H3283     1.0  0.83940  0.22075  0.73857  1.0000
  C   C3291     1.0  0.79787  0.31935  0.61472  1.0000
  C   C3292     1.0  0.71890  0.25331  0.61971  1.0000
  C   C3293     1.0  0.73072  0.25757  0.63664  1.0000
  H   H3284     1.0  0.53990  0.41923  0.67835  1.0000
  C   C3294     1.0  0.68478  0.42222  0.62219  1.0000
  H   H3285     1.0  0.87281  0.99324  0.70078  1.0000
  H   H3286     1.0  0.70495  0.45334  0.60907  1.0000
  H   H3287     1.0  0.78753  0.34029  0.61967  1.0000
  S   S1099     1.0  0.82388  0.24644  0.75289  1.0000
  S   S1100     1.0  0.79227  0.27596  0.61799  1.0000
  S   S1101     1.0  0.75115  0.44306  0.59846  1.0000
  Fe  Fe551     1.0  0.73215  0.43267  0.60460  1.0000
  C   C3295     1.0  0.75098  0.32987  0.76709  1.0000
  C   C3296     1.0  0.67773  0.20257  0.59542  1.0000
  C   C3297     1.0  0.51548  0.29768  0.63179  1.0000
  C   C3298     1.0  0.70256  0.08322  0.77221  1.0000
  H   H3288     1.0  0.56437  0.41531  0.61798  1.0000
  C   C3299     1.0  0.64009  0.46718  0.72714  1.0000
  H   H3289     1.0  0.79495  0.24502  0.76803  1.0000
  C   C3300     1.0  0.83273  0.26550  0.63934  1.0000
  N   N274      1.0  0.74279  0.33349  0.78100  1.0000
  C   C3301     1.0  0.69467  0.42499  0.59247  1.0000
  H   H3290     1.0  0.76138  0.32220  0.76818  1.0000
  H   H3291     1.0  0.71362  0.40944  0.59753  1.0000
  C   C3302     1.0  0.66049  0.17800  0.76573  1.0000
  H   H3292     1.0  0.71990  0.18056  0.59443  1.0000
  H   H3293     1.0  0.65545  0.16881  0.76664  1.0000
  H   H3294     1.0  0.81528  0.21485  0.62146  1.0000
  H   H3295     1.0  0.80369  0.03065  0.74827  1.0000
  H   H3296     1.0  0.74998  0.36068  0.59051  1.0000
  C   C3303     1.0  0.96736  0.17748  0.77308  1.0000
  C   C3304     1.0  0.68130  0.43297  0.59821  1.0000
  H   H3297     1.0  0.66926  0.18976  0.58615  1.0000
  H   H3298     1.0  0.49813  0.29187  0.60915  1.0000
  N   N275      1.0  0.63150  0.26084  0.78137  1.0000
  S   S1102     1.0  0.68667  0.18800  0.78116  1.0000
  H   H3299     1.0  0.73094  0.01316  0.77862  1.0000
  H   H3300     1.0  0.68722  0.10258  0.77661  1.0000
  H   H3301     1.0  0.69523  0.05213  0.77924  1.0000
  H   H3302     1.0  0.61881  0.25757  0.76834  1.0000
  S   S1103     1.0  0.57142  0.29764  0.58440  1.0000
  H   H3303     1.0  0.65444  0.23091  0.59059  1.0000
  C   C3305     1.0  0.81994  0.30270  0.77816  1.0000
  C   C3306     1.0  0.61729  0.22068  0.77646  1.0000
  S   S1104     1.0  0.49271  0.34583  0.64597  1.0000
  H   H3304     1.0  0.83322  0.28216  0.77507  1.0000
  H   H3305     1.0  0.60575  0.22217  0.77783  1.0000
  H   H3306     1.0  0.78488  0.04949  0.77969  1.0000
  H   H3307     1.0  0.81002  0.05084  0.77868  1.0000
  H   H3308     1.0  0.63817  0.28099  0.77538  1.0000
  C   C3307     1.0  0.61986  0.26614  0.77329  1.0000
  S   S1105     1.0  0.72325  0.44407  0.58476  1.0000
  C   C3308     1.0  0.82358  0.28760  0.78149  1.0000
  C   C3309     1.0  0.64681  0.23190  0.58357  1.0000
  H   H3309     1.0  0.97314  0.14851  0.77948  1.0000
  Fe  Fe552     1.0  0.75510  0.05145  0.77925  1.0000
  C   C3310     1.0  0.69485  0.03007  0.77979  1.0000
  S   S1106     1.0  0.73556  0.04346  0.77991  1.0000
  C   C3311     1.0  0.90415  0.24913  0.78156  1.0000
  S   S1107     1.0  0.80249  0.28888  0.58309  1.0000
  H   H3310     1.0  0.90628  0.18821  0.78156  1.0000
  C   C3312     1.0  0.63996  0.26989  0.78140  1.0000
  N   N276      1.0  0.97700  0.16785  0.78243  1.0000
  S   S1108     1.0  0.54920  0.27856  0.58255  1.0000
  C   C3313     1.0  0.69638  0.04109  0.78548  1.0000
  C   C3314     1.0  0.70866  0.31702  0.80655  1.0000
  N   N277      1.0  0.69943  0.01286  0.80157  1.0000
  C   C3315     1.0  0.98818  0.14395  0.79333  1.0000
  S   S1109     1.0  0.72700  0.04468  0.81439  1.0000
  C   C3316     1.0  0.93540  0.16679  0.79465  1.0000
  C   C3317     1.0  0.80874  0.08562  0.81434  1.0000
  S   S1110     1.0  0.76095  0.03541  0.79909  1.0000
  C   C3318     1.0  0.81705  0.14480  0.92503  1.0000
  Fe  Fe553     1.0  0.74026  0.02867  0.80064  1.0000
  Fe  Fe554     1.0  0.74725  0.05273  0.81114  1.0000
  S   S1111     1.0  0.75083  0.05809  0.83104  1.0000
  H   H3311     1.0  0.70354  0.27398  0.82354  1.0000
  H   H3312     1.0  0.74163  0.11411  0.82889  1.0000
  H   H3313     1.0  0.79583  0.28069  0.80894  1.0000
  H   H3314     1.0  0.78816  0.11660  0.95070  1.0000
  S   S1112     1.0  0.92868  0.19483  0.86324  1.0000
  H   H3315     1.0  0.79181  0.10381  0.93075  1.0000
  S   S1113     1.0  0.73827  0.00507  0.80732  1.0000
  H   H3316     1.0  0.85690  0.14511  0.96701  1.0000
  H   H3317     1.0  0.92208  0.18743  0.79798  1.0000
  Fe  Fe555     1.0  0.81459  0.20778  0.90158  1.0000
  S   S1114     1.0  0.83151  0.20079  0.88305  1.0000
  S   S1115     1.0  0.79246  0.21961  0.89854  1.0000
  Fe  Fe556     1.0  0.83307  0.19217  0.92385  1.0000
  S   S1116     1.0  0.85186  0.18381  0.90712  1.0000
  S   S1117     1.0  0.83055  0.18397  0.94808  1.0000
  Fe  Fe557     1.0  0.84653  0.20617  0.89361  1.0000
  S   S1118     1.0  0.86190  0.21894  0.87754  1.0000
  Fe  Fe558     1.0  0.83526  0.17926  0.89796  1.0000
  S   S1119     1.0  0.83746  0.15843  0.89134  1.0000
  S   S1120     1.0  0.82914  0.21506  0.91111  1.0000
  S   S1121     1.0  0.81696  0.18569  0.91564  1.0000
  Fe  Fe559     1.0  0.75848  0.25062  0.81948  1.0000
  S   S1122     1.0  0.75517  0.25702  0.84062  1.0000
  S   S1123     1.0  0.75691  0.22853  0.81865  1.0000
  Fe  Fe560     1.0  0.76537  0.27923  0.80171  1.0000
  S   S1124     1.0  0.76262  0.28824  0.82123  1.0000
  Fe  Fe561     1.0  0.77484  0.26642  0.83029  1.0000
  S   S1125     1.0  0.79474  0.26383  0.83864  1.0000
  Fe  Fe562     1.0  0.74326  0.27816  0.82956  1.0000
  S   S1126     1.0  0.72270  0.28996  0.84139  1.0000
  S   S1127     1.0  0.77918  0.25813  0.81002  1.0000
  S   S1128     1.0  0.74493  0.27099  0.80907  1.0000
  Fe  Fe563     1.0  0.78224  0.14507  0.85929  1.0000
  S   S1129     1.0  0.76478  0.14546  0.87919  1.0000
  S   S1130     1.0  0.79392  0.16347  0.85178  1.0000
  Fe  Fe564     1.0  0.77572  0.11838  0.85317  1.0000
  S   S1131     1.0  0.75812  0.11642  0.87318  1.0000
  S   S1132     1.0  0.78074  0.10660  0.83459  1.0000
  Fe  Fe565     1.0  0.75161  0.14052  0.86624  1.0000
  S   S1133     1.0  0.72898  0.15286  0.86536  1.0000
  Fe  Fe566     1.0  0.77315  0.12151  0.88430  1.0000
  S   S1134     1.0  0.77805  0.11007  0.90653  1.0000
  S   S1135     1.0  0.76841  0.14229  0.84583  1.0000
  S   S1136     1.0  0.79152  0.12130  0.86477  1.0000
  H   H3318     1.0  0.72645  0.18766  0.81588  1.0000
  C   C3319     1.0  0.88261  0.25107  0.84146  1.0000
  S   S1137     1.0  0.74330  0.06924  0.79109  1.0000
  H   H3319     1.0  0.70351  0.98999  0.80351  1.0000
  Fe  Fe567     1.0  0.70087  0.18484  0.79684  1.0000
  S   S1138     1.0  0.94647  0.16549  0.80655  1.0000
  H   H3320     1.0  0.98969  0.13233  0.79489  1.0000
  S   S1139     1.0  0.68402  0.19729  0.81205  1.0000
  S   S1140     1.0  0.69487  0.23393  0.80848  1.0000
  C   C3320     1.0  0.90920  0.17135  0.85151  1.0000
  S   S1141     1.0  0.71506  0.16311  0.80346  1.0000
  H   H3321     1.0  0.79625  0.05760  0.80189  1.0000
  H   H3322     1.0  0.98270  0.18532  0.78727  1.0000
  H   H3323     1.0  0.89568  0.17498  0.87192  1.0000
  C   C3321     1.0  0.74601  0.32492  0.79376  1.0000
  H   H3324     1.0  0.66999  0.31162  0.82780  1.0000
  H   H3325     1.0  0.74287  0.13062  0.95119  1.0000
  H   H3326     1.0  0.70377  0.10290  0.79842  1.0000
  S   S1142     1.0  0.76877  0.14369  0.95648  1.0000
  C   C3322     1.0  0.79184  0.05339  0.83069  1.0000
  H   H3327     1.0  0.80316  0.16578  0.96684  1.0000
  C   C3323     1.0  0.89592  0.17365  0.86118  1.0000
  C   C3324     1.0  0.91396  0.23732  0.78760  1.0000
  Fe  Fe568     1.0  0.93848  0.19909  0.83932  1.0000
  C   C3325     1.0  0.90964  0.16971  0.83762  1.0000
  H   H3328     1.0  0.72193  0.21403  0.80131  1.0000
  C   C3326     1.0  0.79868  0.30190  0.79723  1.0000
  S   S1143     1.0  0.70356  0.07604  0.79052  1.0000
  C   C3327     1.0  0.71834  0.19728  0.84073  1.0000
  C   C3328     1.0  0.80260  0.15177  0.92656  1.0000
  H   H3329     1.0  0.62647  0.23996  0.78970  1.0000
  H   H3330     1.0  0.87292  0.25510  0.83706  1.0000
  H   H3331     1.0  0.89704  0.25169  0.82048  1.0000
  Fe  Fe569     1.0  0.67069  0.20206  0.79527  1.0000
  C   C3329     1.0  0.89683  0.17059  0.83352  1.0000
  S   S1144     1.0  0.92585  0.20000  0.82296  1.0000
  C   C3330     1.0  0.73546  0.99502  0.79599  1.0000
  H   H3332     1.0  0.89710  0.16946  0.82267  1.0000
  C   C3331     1.0  0.77017  0.08588  0.95189  1.0000
  C   C3332     1.0  0.86959  0.17733  0.86728  1.0000
  C   C3333     1.0  0.70991  0.11852  0.80631  1.0000
  H   H3333     1.0  0.70379  0.02112  0.81776  1.0000
  C   C3334     1.0  0.73123  0.11112  0.83502  1.0000
  H   H3334     1.0  0.91679  0.23567  0.85748  1.0000
  S   S1145     1.0  0.95758  0.18343  0.83022  1.0000
  C   C3335     1.0  0.80267  0.28682  0.80030  1.0000
  H   H3335     1.0  0.74437  0.12245  0.93641  1.0000
  H   H3336     1.0  0.75457  0.31533  0.79372  1.0000
  H   H3337     1.0  0.88202  0.23533  0.88359  1.0000
  H   H3338     1.0  0.68965  0.99710  0.81765  1.0000
  N   N278      1.0  0.81501  0.27986  0.79251  1.0000
  C   C3336     1.0  0.68695  0.29743  0.79801  1.0000
  H   H3339     1.0  0.71744  0.13132  0.81632  1.0000
  C   C3337     1.0  0.85263  0.15624  0.96896  1.0000
  N   N279      1.0  0.88342  0.17434  0.85714  1.0000
  C   C3338     1.0  0.92408  0.17869  0.79241  1.0000
  C   C3339     1.0  0.77749  0.12057  0.91897  1.0000
  C   C3340     1.0  0.76867  0.13436  0.91854  1.0000
  C   C3341     1.0  0.76665  0.14160  0.92980  1.0000
  C   C3342     1.0  0.77335  0.13509  0.94164  1.0000
  C   C3343     1.0  0.78280  0.12165  0.94171  1.0000
  C   C3344     1.0  0.78486  0.11442  0.93040  1.0000
  H   H3340     1.0  0.76279  0.13916  0.90994  1.0000
  H   H3341     1.0  0.75938  0.15204  0.92962  1.0000
  C   C3345     1.0  0.64436  0.24175  0.79732  1.0000
  C   C3346     1.0  0.72446  0.15454  0.84867  1.0000
  C   C3347     1.0  0.71171  0.16392  0.84552  1.0000
  C   C3348     1.0  0.70860  0.16640  0.83174  1.0000
  C   C3349     1.0  0.71819  0.15947  0.82109  1.0000
  C   C3350     1.0  0.73060  0.14959  0.82446  1.0000
  C   C3351     1.0  0.73368  0.14706  0.83825  1.0000
  H   H3342     1.0  0.70433  0.16941  0.85369  1.0000
  H   H3343     1.0  0.69875  0.17362  0.82944  1.0000
  H   H3344     1.0  0.73802  0.14408  0.81631  1.0000
  H   H3345     1.0  0.74317  0.13931  0.84079  1.0000
  C   C3352     1.0  0.73956  0.22960  0.81649  1.0000
  C   C3353     1.0  0.72802  0.24011  0.82162  1.0000
  C   C3354     1.0  0.71424  0.24119  0.81936  1.0000
  C   C3355     1.0  0.71202  0.23191  0.81186  1.0000
  C   C3356     1.0  0.72352  0.22127  0.80700  1.0000
  C   C3357     1.0  0.73727  0.22009  0.80933  1.0000
  H   H3346     1.0  0.72969  0.24728  0.82747  1.0000
  H   H3347     1.0  0.70528  0.24915  0.82349  1.0000
  H   H3348     1.0  0.81596  0.25957  0.80743  1.0000
  C   C3358     1.0  0.75679  0.10784  0.96692  1.0000
  C   C3359     1.0  0.71363  0.30461  0.83025  1.0000
  C   C3360     1.0  0.69510  0.32650  0.82775  1.0000
  C   C3361     1.0  0.70284  0.31499  0.83650  1.0000
  H   H3349     1.0  0.68681  0.33455  0.83263  1.0000
  H   H3350     1.0  0.70046  0.31413  0.84813  1.0000
  C   C3362     1.0  0.83262  0.19413  0.95955  1.0000
  H   H3351     1.0  0.94674  0.14636  0.78905  1.0000
  H   H3352     1.0  0.64596  0.23068  0.80349  1.0000
  S   S1146     1.0  0.64738  0.20096  0.80058  1.0000
  C   C3363     1.0  0.84538  0.20943  0.96512  1.0000
  C   C3364     1.0  0.84235  0.20336  0.95496  1.0000
  H   H3353     1.0  0.78883  0.30729  0.80343  1.0000
  H   H3354     1.0  0.71086  0.31755  0.79511  1.0000
  H   H3355     1.0  0.85320  0.21626  0.96161  1.0000
  H   H3356     1.0  0.84791  0.20542  0.94372  1.0000
  C   C3365     1.0  0.82544  0.15986  0.88025  1.0000
  C   C3366     1.0  0.81791  0.14886  0.88272  1.0000
  C   C3367     1.0  0.80816  0.14996  0.87407  1.0000
  C   C3368     1.0  0.80622  0.16186  0.86261  1.0000
  C   C3369     1.0  0.81396  0.17273  0.85994  1.0000
  C   C3370     1.0  0.82342  0.17183  0.86886  1.0000
  H   H3357     1.0  0.81952  0.13950  0.89139  1.0000
  H   H3358     1.0  0.80222  0.14153  0.87623  1.0000
  H   H3359     1.0  0.81259  0.18188  0.85101  1.0000
  H   H3360     1.0  0.82936  0.18024  0.86671  1.0000
  C   C3371     1.0  0.79295  0.23357  0.88306  1.0000
  C   C3372     1.0  0.80607  0.23690  0.87485  1.0000
  C   C3373     1.0  0.80651  0.24669  0.86143  1.0000
  C   C3374     1.0  0.79384  0.25316  0.85624  1.0000
  C   C3375     1.0  0.78068  0.25028  0.86476  1.0000
  C   C3376     1.0  0.78023  0.24047  0.87813  1.0000
  H   H3361     1.0  0.81591  0.23174  0.87870  1.0000
  H   H3362     1.0  0.81672  0.24898  0.85494  1.0000
  H   H3363     1.0  0.77082  0.25559  0.86108  1.0000
  H   H3364     1.0  0.77005  0.23800  0.88450  1.0000
  Fe  Fe570     1.0  0.94570  0.18606  0.81281  1.0000
  H   H3365     1.0  0.71652  0.27168  0.79878  1.0000
  S   S1147     1.0  0.68794  0.34191  0.80211  1.0000
  C   C3377     1.0  0.83869  0.20632  0.97986  1.0000
  H   H3366     1.0  0.70056  0.04639  0.80379  1.0000
  H   H3367     1.0  0.82201  0.13873  0.91653  1.0000
  H   H3368     1.0  0.87063  0.17233  0.87869  1.0000
  C   C3378     1.0  0.88167  0.24743  0.85649  1.0000
  S   S1148     1.0  0.94795  0.21848  0.82723  1.0000
  C   C3379     1.0  0.67706  0.30413  0.82125  1.0000
  C   C3380     1.0  0.90985  0.20018  0.86719  1.0000
  C   C3381     1.0  0.90252  0.20804  0.85619  1.0000
  C   C3382     1.0  0.88758  0.21278  0.85937  1.0000
  C   C3383     1.0  0.87987  0.20995  0.87365  1.0000
  C   C3384     1.0  0.88703  0.20165  0.88469  1.0000
  C   C3385     1.0  0.90207  0.19681  0.88146  1.0000
  H   H3369     1.0  0.90836  0.21115  0.84531  1.0000
  H   H3370     1.0  0.88207  0.21921  0.85081  1.0000
  H   H3371     1.0  0.88111  0.19959  0.89580  1.0000
  H   H3372     1.0  0.90771  0.19074  0.89004  1.0000
  S   S1149     1.0  0.99033  0.19943  0.81035  1.0000
  Fe  Fe571     1.0  0.69314  0.21640  0.79851  1.0000
  H   H3373     1.0  0.90091  0.22808  0.88087  1.0000
  C   C3386     1.0  0.90846  0.24376  0.83798  1.0000
  C   C3387     1.0  0.75755  0.07292  0.83162  1.0000
  C   C3388     1.0  0.75740  0.07537  0.84521  1.0000
  C   C3389     1.0  0.76371  0.08626  0.84627  1.0000
  C   C3390     1.0  0.77039  0.09471  0.83371  1.0000
  C   C3391     1.0  0.77012  0.09259  0.82009  1.0000
  C   C3392     1.0  0.76363  0.08181  0.81903  1.0000
  H   H3374     1.0  0.75269  0.06854  0.85502  1.0000
  H   H3375     1.0  0.76394  0.08771  0.85681  1.0000
  H   H3376     1.0  0.77532  0.09906  0.81031  1.0000
  H   H3377     1.0  0.76380  0.08005  0.80850  1.0000
  H   H3378     1.0  0.85843  0.17961  0.97345  1.0000
  H   H3379     1.0  0.91988  0.16788  0.83001  1.0000
  C   C3393     1.0  0.69794  0.32749  0.81275  1.0000
  H   H3380     1.0  0.79987  0.18110  0.95224  1.0000
  H   H3381     1.0  0.78612  0.05703  0.84096  1.0000
  N   N280      1.0  0.73259  0.18939  0.83467  1.0000
  H   H3382     1.0  0.92442  0.21505  0.78778  1.0000
  H   H3383     1.0  0.78526  0.16540  0.93837  1.0000
  H   H3384     1.0  0.72492  0.29774  0.81035  1.0000
  H   H3385     1.0  0.61792  0.20720  0.79779  1.0000
  C   C3394     1.0  0.82517  0.14592  0.93428  1.0000
  H   H3386     1.0  0.71013  0.19770  0.83459  1.0000
  C   C3395     1.0  0.75991  0.17512  0.82308  1.0000
  H   H3387     1.0  0.75053  0.17470  0.80559  1.0000
  Fe  Fe572     1.0  0.93635  0.21844  0.81018  1.0000
  H   H3388     1.0  0.74143  0.18937  0.85240  1.0000
  H   H3389     1.0  0.84071  0.15868  0.97033  1.0000
  H   H3390     1.0  0.87379  0.17379  0.84015  1.0000
  H   H3391     1.0  0.77553  0.07754  0.94572  1.0000
  C   C3396     1.0  0.89611  0.24914  0.83217  1.0000
  C   C3397     1.0  0.75730  0.17926  0.83630  1.0000
  C   C3398     1.0  0.79647  0.15987  0.93734  1.0000
  C   C3399     1.0  0.79983  0.06539  0.80546  1.0000
  C   C3400     1.0  0.80609  0.07607  0.79504  1.0000
  C   C3401     1.0  0.72328  0.09504  0.82458  1.0000
  C   C3402     1.0  0.89270  0.23794  0.87785  1.0000
  H   H3392     1.0  0.75732  0.09804  0.93625  1.0000
  H   H3393     1.0  0.72466  0.11995  0.84063  1.0000
  C   C3403     1.0  0.69600  0.28301  0.81868  1.0000
  H   H3394     1.0  0.81521  0.09471  0.79161  1.0000
  H   H3395     1.0  0.73354  0.10131  0.84357  1.0000
  H   H3396     1.0  0.85697  0.16388  0.95915  1.0000
  H   H3397     1.0  0.91908  0.17102  0.85471  1.0000
  H   H3398     1.0  0.65803  0.27205  0.78873  1.0000
  H   H3399     1.0  0.70119  0.26649  0.79625  1.0000
  Fe  Fe573     1.0  0.72416  0.06002  0.79334  1.0000
  H   H3400     1.0  0.71415  0.35773  0.79430  1.0000
  H   H3401     1.0  0.81206  0.26005  0.79019  1.0000
  C   C3404     1.0  0.74248  0.12043  0.94845  1.0000
  C   C3405     1.0  0.65113  0.26494  0.78905  1.0000
  H   H3402     1.0  0.71884  0.20857  0.84033  1.0000
  C   C3406     1.0  0.63340  0.24702  0.78942  1.0000
  C   C3407     1.0  0.65335  0.25075  0.79702  1.0000
  H   H3403     1.0  0.70472  0.12786  0.79925  1.0000
  C   C3408     1.0  0.70941  0.10457  0.80583  1.0000
  C   C3409     1.0  0.75980  0.09750  0.94661  1.0000
  H   H3404     1.0  0.91897  0.24213  0.83080  1.0000
  N   N281      1.0  0.78786  0.19909  0.86947  1.0000
  C   C3410     1.0  0.79561  0.20967  0.86322  1.0000
  C   C3411     1.0  0.77823  0.19715  0.86265  1.0000
  C   C3412     1.0  0.79367  0.21880  0.84990  1.0000
  C   C3413     1.0  0.77606  0.20606  0.84927  1.0000
  C   C3414     1.0  0.78376  0.21702  0.84294  1.0000
  C   C3415     1.0  0.78921  0.19040  0.88397  1.0000
  H   H3405     1.0  0.80324  0.21118  0.86863  1.0000
  H   H3406     1.0  0.77225  0.18861  0.86750  1.0000
  H   H3407     1.0  0.79963  0.22737  0.84514  1.0000
  H   H3408     1.0  0.76840  0.20461  0.84383  1.0000
  H   H3409     1.0  0.78199  0.22413  0.83269  1.0000
  H   H3410     1.0  0.78095  0.19557  0.89232  1.0000
  H   H3411     1.0  0.78796  0.17920  0.88508  1.0000
  H   H3412     1.0  0.79997  0.18958  0.88615  1.0000
  C   C3416     1.0  0.71616  0.09274  0.81499  1.0000
  H   H3413     1.0  0.86128  0.17275  0.86520  1.0000
  C   C3417     1.0  0.72338  0.34875  0.79422  1.0000
  H   H3414     1.0  0.71584  0.08184  0.81468  1.0000
  H   H3415     1.0  0.80440  0.32158  0.78351  1.0000
  C   C3418     1.0  0.70026  0.99816  0.81042  1.0000
  N   N282      1.0  0.80447  0.16078  0.94649  1.0000
  N   N283      1.0  0.75341  0.10839  0.95403  1.0000
  H   H3416     1.0  0.68666  0.29016  0.83887  1.0000
  C   C3419     1.0  0.68640  0.29211  0.82745  1.0000
  C   C3420     1.0  0.80260  0.07470  0.82445  1.0000
  H   H3417     1.0  0.72847  0.08574  0.83166  1.0000
  C   C3421     1.0  0.67733  0.30685  0.80643  1.0000
  C   C3422     1.0  0.70108  0.02359  0.80717  1.0000
  H   H3418     1.0  0.72032  0.34272  0.81753  1.0000
  C   C3423     1.0  0.74872  0.17811  0.81574  1.0000
  H   H3419     1.0  0.86566  0.18920  0.86634  1.0000
  H   H3420     1.0  0.77055  0.16939  0.81869  1.0000
  N   N284      1.0  0.89384  0.24187  0.86209  1.0000
  C   C3424     1.0  0.73507  0.18537  0.82169  1.0000
  H   H3421     1.0  0.80100  0.07451  0.83593  1.0000
  H   H3422     1.0  0.82506  0.15498  0.95210  1.0000
  C   C3425     1.0  0.90714  0.24021  0.85306  1.0000
  C   C3426     1.0  0.71665  0.30572  0.81524  1.0000
  C   C3427     1.0  0.93802  0.15559  0.78733  1.0000
  H   H3423     1.0  0.71465  0.19185  0.85216  1.0000
  H   H3424     1.0  0.78189  0.07646  0.96918  1.0000
  H   H3425     1.0  0.79621  0.15098  0.91939  1.0000
  H   H3426     1.0  0.68709  0.29967  0.78649  1.0000
  C   C3428     1.0  0.74347  0.18638  0.84200  1.0000
  N   N285      1.0  0.72359  0.10877  0.82509  1.0000
  C   C3429     1.0  0.81850  0.26402  0.79553  1.0000
  N   N286      1.0  0.69623  0.28578  0.80414  1.0000
  H   H3427     1.0  0.76589  0.17671  0.84221  1.0000
  H   H3428     1.0  0.98277  0.22256  0.82657  1.0000
  C   C3430     1.0  0.81866  0.15398  0.94504  1.0000
  C   C3431     1.0  0.70606  0.27583  0.79524  1.0000
  C   C3432     1.0  0.71712  0.12043  0.81603  1.0000
  C   C3433     1.0  0.80738  0.30987  0.78607  1.0000
  C   C3434     1.0  0.97886  0.15317  0.78457  1.0000
  H   H3429     1.0  0.78637  0.17031  0.96102  1.0000
  C   C3435     1.0  0.79812  0.16995  0.95719  1.0000
  N   N287      1.0  0.79806  0.06488  0.81995  1.0000
  C   C3436     1.0  0.88372  0.17301  0.84345  1.0000
  H   H3430     1.0  0.83649  0.14077  0.93295  1.0000
  Fe  Fe574     1.0  0.96600  0.20280  0.81636  1.0000
  H   H3431     1.0  0.80748  0.07649  0.78354  1.0000
  H   H3432     1.0  0.80044  0.04373  0.83304  1.0000
  H   H3433     1.0  0.89418  0.24698  0.88177  1.0000
  H   H3434     1.0  0.75182  0.11653  0.97274  1.0000
  H   H3435     1.0  0.87110  0.24857  0.86365  1.0000
  H   H3436     1.0  0.69503  0.00742  0.78363  1.0000
  C   C3437     1.0  0.62416  0.21220  0.78772  1.0000
  C   C3438     1.0  0.81051  0.08626  0.79956  1.0000
  S   S1150     1.0  0.92253  0.23914  0.80054  1.0000
  H   H3437     1.0  0.74055  0.32130  0.81720  1.0000
  C   C3439     1.0  0.77379  0.08532  0.96496  1.0000
  H   H3438     1.0  0.73160  0.11801  0.95315  1.0000
  C   C3440     1.0  0.73819  0.32828  0.80707  1.0000
  S   S1151     1.0  0.95516  0.20453  0.79819  1.0000
  H   H3439     1.0  0.78369  0.05029  0.82672  1.0000
  Fe  Fe575     1.0  0.77748  0.13354  0.97696  1.0000
  S   S1152     1.0  0.79859  0.11786  0.97791  1.0000
  H   H3440     1.0  0.83011  0.25978  0.79149  1.0000
  S   S1153     1.0  0.67814  0.22246  0.78320  1.0000
  C   C3441     1.0  0.82552  0.19153  0.97413  1.0000
  H   H3441     1.0  0.74622  0.21204  0.80527  1.0000
  C   C3442     1.0  0.76703  0.09632  0.97256  1.0000
  H   H3442     1.0  0.81174  0.09372  0.81803  1.0000
  C   C3443     1.0  0.69626  0.01595  0.78810  1.0000
  C   C3444     1.0  0.69944  0.03786  0.79927  1.0000
  H   H3443     1.0  0.70852  0.99555  0.81714  1.0000
  H   H3444     1.0  0.66206  0.24669  0.80293  1.0000
  H   H3445     1.0  0.81776  0.18464  0.97763  1.0000
  C   C3445     1.0  0.72684  0.34031  0.80727  1.0000
  H   H3446     1.0  0.90191  0.25932  0.78489  1.0000
  C   C3446     1.0  0.98409  0.17370  0.78901  1.0000
  H   H3447     1.0  0.67041  0.31643  0.80145  1.0000
  C   C3447     1.0  0.63904  0.21043  0.78607  1.0000
  C   C3448     1.0  0.91686  0.22420  0.78321  1.0000
  C   C3449     1.0  0.91516  0.17913  0.78310  1.0000
  N   N288      1.0  0.85635  0.15771  0.98201  1.0000
  S   S1154     1.0  0.71107  0.20366  0.78439  1.0000
  C   C3450     1.0  0.73141  0.00171  0.78271  1.0000
  H   H3448     1.0  0.70842  0.28129  0.78360  1.0000
  H   H3449     1.0  0.78640  0.70452  0.02561  1.0000
  Fe  Fe576     1.0  0.91073  0.78987  0.07154  1.0000
  S   S1155     1.0  0.92314  0.76827  0.08092  1.0000
  S   S1156     1.0  0.90064  0.79367  0.05218  1.0000
  Fe  Fe577     1.0  0.91556  0.80444  0.09355  1.0000
  S   S1157     1.0  0.92792  0.78387  0.10489  1.0000
  S   S1158     1.0  0.91111  0.82490  0.10170  1.0000
  Fe  Fe578     1.0  0.93884  0.78070  0.08234  1.0000
  Fe  Fe579     1.0  0.91105  0.77379  0.10235  1.0000
  S   S1159     1.0  0.89947  0.75934  0.12104  1.0000
  S   S1160     1.0  0.92737  0.80196  0.07110  1.0000
  S   S1161     1.0  0.89764  0.79472  0.09285  1.0000
  Fe  Fe580     1.0  0.82033  0.76327  0.12474  1.0000
  S   S1162     1.0  0.79826  0.77663  0.13093  1.0000
  S   S1163     1.0  0.83770  0.77193  0.10726  1.0000
  Fe  Fe581     1.0  0.81201  0.73531  0.14355  1.0000
  C   C3451     1.0  0.97422  0.77936  0.08225  1.0000
  H   H3450     1.0  0.73800  0.79667  0.11450  1.0000
  Fe  Fe582     1.0  0.79058  0.75816  0.12822  1.0000
  S   S1164     1.0  0.77469  0.76144  0.11438  1.0000
  C   C3452     1.0  0.80909  0.79175  0.15841  1.0000
  S   S1165     1.0  0.78069  0.91647  0.10454  1.0000
  S   S1166     1.0  0.81248  0.74590  0.12026  1.0000
  S   S1167     1.0  0.82192  0.75163  0.14741  1.0000
  Fe  Fe583     1.0  0.98072  0.85351  0.15178  1.0000
  S   S1168     1.0  0.97789  0.86367  0.12898  1.0000
  H   H3451     1.0  0.75086  0.81033  0.12320  1.0000
  H   H3452     1.0  0.88522  0.74712  0.06882  1.0000
  S   S1169     1.0  0.94317  0.86398  0.14112  1.0000
  Fe  Fe584     1.0  0.96302  0.84864  0.13282  1.0000
  S   S1170     1.0  0.96569  0.83448  0.11725  1.0000
  Fe  Fe585     1.0  0.95828  0.87816  0.13941  1.0000
  S   S1171     1.0  0.95124  0.90168  0.12976  1.0000
  C   C3453     1.0  0.83791  0.97553  0.08264  1.0000
  H   H3453     1.0  0.89917  0.92457  0.09935  1.0000
  H   H3454     1.0  0.78211  0.86209  0.12805  1.0000
  S   S1172     1.0  0.85236  0.93502  0.14270  1.0000
  H   H3455     1.0  0.72897  0.86684  0.11534  1.0000
  Fe  Fe586     1.0  0.84298  0.75392  0.00599  1.0000
  S   S1173     1.0  0.87752  0.95306  0.12330  1.0000
  H   H3456     1.0  0.76276  0.77265  0.15525  1.0000
  Fe  Fe587     1.0  0.85708  0.94886  0.12059  1.0000
  S   S1174     1.0  0.85425  0.94340  0.10064  1.0000
  Fe  Fe588     1.0  0.87170  0.94068  0.14617  1.0000
  S   S1175     1.0  0.88602  0.92232  0.15844  1.0000
  H   H3457     1.0  0.83453  0.78654  0.06312  1.0000
  H   H3458     1.0  0.78379  0.78882  0.04782  1.0000
  Fe  Fe589     1.0  0.70637  0.80331  0.10316  1.0000
  S   S1176     1.0  0.71080  0.77977  0.10288  1.0000
  S   S1177     1.0  0.72337  0.81608  0.09099  1.0000
  Fe  Fe590     1.0  0.67714  0.80273  0.12364  1.0000
  S   S1178     1.0  0.67917  0.77925  0.12485  1.0000
  S   S1179     1.0  0.65768  0.81541  0.13627  1.0000
  Fe  Fe591     1.0  0.70182  0.77695  0.12677  1.0000
  S   S1180     1.0  0.71059  0.75760  0.14264  1.0000
  Fe  Fe592     1.0  0.68771  0.78449  0.10097  1.0000
  S   S1181     1.0  0.67861  0.77573  0.08725  1.0000
  S   S1182     1.0  0.69924  0.80021  0.12736  1.0000
  S   S1183     1.0  0.68388  0.80834  0.09937  1.0000
  S   S1184     1.0  0.74446  0.81006  0.02542  1.0000
  C   C3454     1.0  0.84490  0.73752  0.16927  1.0000
  H   H3459     1.0  0.79054  0.64461  0.17244  1.0000
  C   C3455     1.0  0.80586  0.82150  0.99641  1.0000
  C   C3456     1.0  0.67977  0.71028  0.16101  1.0000
  C   C3457     1.0  0.74340  0.79146  0.12349  1.0000
  C   C3458     1.0  0.71941  0.82391  0.99993  1.0000
  N   N289      1.0  0.97319  0.82960  0.07825  1.0000
  Fe  Fe593     1.0  0.75115  0.83000  0.01047  1.0000
  Fe  Fe594     1.0  0.84811  0.80565  0.18076  1.0000
  H   H3460     1.0  0.81309  0.87728  0.14056  1.0000
  C   C3459     1.0  0.80569  0.93287  0.13283  1.0000
  N   N290      1.0  0.80462  0.70967  0.02957  1.0000
  Fe  Fe595     1.0  0.75016  0.67924  0.08146  1.0000
  S   S1185     1.0  0.73733  0.68721  0.10138  1.0000
  S   S1186     1.0  0.75273  0.65539  0.08431  1.0000
  Fe  Fe596     1.0  0.75291  0.70938  0.06472  1.0000
  S   S1187     1.0  0.73998  0.71986  0.08330  1.0000
  S   S1188     1.0  0.76267  0.72221  0.04335  1.0000
  Fe  Fe597     1.0  0.75313  0.70132  0.09653  1.0000
  S   S1189     1.0  0.76265  0.70137  0.11500  1.0000
  Fe  Fe598     1.0  0.72551  0.70456  0.08645  1.0000
  S   S1190     1.0  0.70149  0.70870  0.09330  1.0000
  S   S1191     1.0  0.76716  0.69190  0.07777  1.0000
  S   S1192     1.0  0.73713  0.69572  0.06661  1.0000
  S   S1193     1.0  0.80300  0.75868  0.05129  1.0000
  H   H3461     1.0  0.71566  0.70635  0.12179  1.0000
  S   S1194     1.0  0.69498  0.63378  0.15041  1.0000
  C   C3460     1.0  0.97843  0.78551  0.10308  1.0000
  C   C3461     1.0  0.75726  0.77786  0.14635  1.0000
  H   H3462     1.0  0.84817  0.71616  0.16508  1.0000
  H   H3463     1.0  0.81406  0.87650  0.01101  1.0000
  H   H3464     1.0  0.92082  0.88903  0.12762  1.0000
  S   S1195     1.0  0.72934  0.64942  0.15093  1.0000
  C   C3462     1.0  0.83935  0.76207  0.17378  1.0000
  H   H3465     1.0  0.83389  0.96636  0.08159  1.0000
  C   C3463     1.0  0.92506  0.77593  0.14662  1.0000
  H   H3466     1.0  0.73799  0.77099  0.12614  1.0000
  Fe  Fe599     1.0  0.78817  0.89758  0.07220  1.0000
  S   S1196     1.0  0.79280  0.88403  0.05511  1.0000
  Fe  Fe600     1.0  0.80086  0.90158  0.09614  1.0000
  S   S1197     1.0  0.81814  0.89577  0.10927  1.0000
  Fe  Fe601     1.0  0.76910  0.90105  0.10140  1.0000
  S   S1198     1.0  0.75053  0.89448  0.11890  1.0000
  S   S1199     1.0  0.78924  0.88516  0.09499  1.0000
  H   H3467     1.0  0.85471  0.73974  0.16174  1.0000
  S   S1200     1.0  0.72064  0.81528  0.17649  1.0000
  H   H3468     1.0  0.78954  0.92774  0.12517  1.0000
  H   H3469     1.0  0.90840  0.87979  0.15097  1.0000
  C   C3464     1.0  0.82861  0.72127  0.18067  1.0000
  H   H3470     1.0  0.77082  0.79948  0.03685  1.0000
  C   C3465     1.0  0.79948  0.71392  0.00586  1.0000
  H   H3471     1.0  0.67327  0.79832  0.15737  1.0000
  Fe  Fe602     1.0  0.74271  0.82011  0.16683  1.0000
  S   S1201     1.0  0.75125  0.82780  0.14293  1.0000
  H   H3472     1.0  0.74298  0.75082  0.14456  1.0000
  C   C3466     1.0  0.77191  0.95353  0.12002  1.0000
  C   C3467     1.0  0.92769  0.77111  0.03574  1.0000
  H   H3473     1.0  0.95840  0.78132  0.10194  1.0000
  H   H3474     1.0  0.73302  0.87394  0.05334  1.0000
  C   C3468     1.0  0.75111  0.87590  0.12559  1.0000
  C   C3469     1.0  0.75888  0.86582  0.11706  1.0000
  C   C3470     1.0  0.75873  0.85108  0.12245  1.0000
  C   C3471     1.0  0.75101  0.84635  0.13645  1.0000
  C   C3472     1.0  0.74331  0.85640  0.14499  1.0000
  C   C3473     1.0  0.74325  0.87117  0.13950  1.0000
  H   H3475     1.0  0.76478  0.86940  0.10623  1.0000
  H   H3476     1.0  0.76464  0.84334  0.11577  1.0000
  H   H3477     1.0  0.73724  0.85286  0.15575  1.0000
  H   H3478     1.0  0.73714  0.87895  0.14608  1.0000
  H   H3479     1.0  0.94192  0.73953  0.05558  1.0000
  C   C3474     1.0  0.94924  0.75929  0.05148  1.0000
  C   C3475     1.0  0.92055  0.74771  0.04131  1.0000
  H   H3480     1.0  0.74747  0.75357  0.16019  1.0000
  H   H3481     1.0  0.92177  0.90756  0.10493  1.0000
  Fe  Fe603     1.0  0.78101  0.92674  0.08116  1.0000
  H   H3482     1.0  0.75676  0.67801  0.14388  1.0000
  C   C3476     1.0  0.74889  0.64970  0.10323  1.0000
  C   C3477     1.0  0.73729  0.64290  0.11007  1.0000
  C   C3478     1.0  0.73146  0.64228  0.12493  1.0000
  C   C3479     1.0  0.73749  0.64812  0.13296  1.0000
  C   C3480     1.0  0.74979  0.65385  0.12636  1.0000
  C   C3481     1.0  0.75539  0.65476  0.11149  1.0000
  H   H3483     1.0  0.73220  0.63900  0.10372  1.0000
  H   H3484     1.0  0.72212  0.63760  0.13004  1.0000
  H   H3485     1.0  0.75453  0.65833  0.13251  1.0000
  H   H3486     1.0  0.76426  0.66017  0.10622  1.0000
  C   C3482     1.0  0.77346  0.73280  0.04554  1.0000
  C   C3483     1.0  0.77402  0.73372  0.05942  1.0000
  C   C3484     1.0  0.78300  0.74187  0.06108  1.0000
  C   C3485     1.0  0.79185  0.74864  0.04890  1.0000
  C   C3486     1.0  0.79145  0.74760  0.03502  1.0000
  C   C3487     1.0  0.78203  0.73991  0.03333  1.0000
  H   H3487     1.0  0.76752  0.72820  0.06889  1.0000
  H   H3488     1.0  0.78318  0.74278  0.07183  1.0000
  H   H3489     1.0  0.79819  0.75293  0.02558  1.0000
  H   H3490     1.0  0.78155  0.73930  0.02257  1.0000
  H   H3491     1.0  0.72127  0.84710  0.10962  1.0000
  C   C3488     1.0  0.75065  0.79912  0.12834  1.0000
  C   C3489     1.0  0.74336  0.77698  0.13017  1.0000
  C   C3490     1.0  0.63413  0.70577  0.14286  1.0000
  C   C3491     1.0  0.64072  0.69601  0.15369  1.0000
  C   C3492     1.0  0.65005  0.68307  0.15077  1.0000
  C   C3493     1.0  0.79579  0.95518  0.08811  1.0000
  C   C3494     1.0  0.80484  0.84403  0.15019  1.0000
  C   C3495     1.0  0.63679  0.70251  0.12915  1.0000
  H   H3492     1.0  0.92694  0.73968  0.03464  1.0000
  S   S1202     1.0  0.60228  0.74162  0.17757  1.0000
  S   S1203     1.0  0.62286  0.72230  0.14591  1.0000
  C   C3496     1.0  0.79056  0.85994  0.13398  1.0000
  S   S1204     1.0  0.82241  0.71188  0.14884  1.0000
  H   H3493     1.0  0.80017  0.94371  0.08919  1.0000
  S   S1205     1.0  0.75890  0.83081  0.98655  1.0000
  S   S1206     1.0  0.83707  0.77211  0.03832  1.0000
  C   C3497     1.0  0.75768  0.79227  0.13979  1.0000
  H   H3494     1.0  0.84427  0.72407  0.09954  1.0000
  C   C3498     1.0  0.94710  0.77392  0.04486  1.0000
  C   C3499     1.0  0.75686  0.89068  0.03887  1.0000
  C   C3500     1.0  0.76649  0.89194  0.04669  1.0000
  C   C3501     1.0  0.77947  0.88183  0.04718  1.0000
  C   C3502     1.0  0.78253  0.87029  0.04009  1.0000
  H   H3495     1.0  0.74699  0.89874  0.03827  1.0000
  H   H3496     1.0  0.76408  0.90098  0.05193  1.0000
  C   C3503     1.0  0.73668  0.87605  0.09287  1.0000
  C   C3504     1.0  0.68488  0.75706  0.08920  1.0000
  C   C3505     1.0  0.67760  0.74896  0.08489  1.0000
  C   C3506     1.0  0.68249  0.73398  0.08651  1.0000
  C   C3507     1.0  0.69495  0.72722  0.09195  1.0000
  C   C3508     1.0  0.70212  0.73527  0.09643  1.0000
  C   C3509     1.0  0.69695  0.75016  0.09527  1.0000
  H   H3497     1.0  0.66825  0.75429  0.08020  1.0000
  H   H3498     1.0  0.67694  0.72772  0.08307  1.0000
  H   H3499     1.0  0.71163  0.73001  0.10082  1.0000
  H   H3500     1.0  0.70251  0.75631  0.09873  1.0000
  C   C3510     1.0  0.71448  0.76199  0.15728  1.0000
  C   C3511     1.0  0.71672  0.75127  0.16964  1.0000
  H   H3501     1.0  0.83009  0.72479  0.00394  1.0000
  C   C3512     1.0  0.72254  0.76848  0.17993  1.0000
  C   C3513     1.0  0.72031  0.77914  0.16761  1.0000
  C   C3514     1.0  0.71610  0.77593  0.15641  1.0000
  H   H3502     1.0  0.71553  0.74041  0.17044  1.0000
  C   C3515     1.0  0.92352  0.78054  0.15939  1.0000
  H   H3503     1.0  0.72198  0.78983  0.16658  1.0000
  H   H3504     1.0  0.71484  0.78414  0.14684  1.0000
  C   C3516     1.0  0.64437  0.80560  0.14616  1.0000
  C   C3517     1.0  0.64795  0.79071  0.15164  1.0000
  C   C3518     1.0  0.63715  0.78309  0.15953  1.0000
  C   C3519     1.0  0.62268  0.79026  0.16161  1.0000
  C   C3520     1.0  0.61913  0.80519  0.15643  1.0000
  C   C3521     1.0  0.62996  0.81286  0.14884  1.0000
  H   H3505     1.0  0.65904  0.78508  0.15006  1.0000
  H   H3506     1.0  0.64007  0.77173  0.16409  1.0000
  H   H3507     1.0  0.60798  0.81085  0.15822  1.0000
  H   H3508     1.0  0.62714  0.82441  0.14477  1.0000
  C   C3522     1.0  0.72882  0.81474  0.07266  1.0000
  C   C3523     1.0  0.73908  0.82236  0.06332  1.0000
  C   C3524     1.0  0.74361  0.82128  0.04869  1.0000
  C   C3525     1.0  0.73821  0.81225  0.04346  1.0000
  C   C3526     1.0  0.72808  0.80451  0.05282  1.0000
  C   C3527     1.0  0.72322  0.80594  0.06734  1.0000
  H   H3509     1.0  0.74357  0.82905  0.06740  1.0000
  H   H3510     1.0  0.75148  0.82723  0.04154  1.0000
  H   H3511     1.0  0.72385  0.79754  0.04883  1.0000
  H   H3512     1.0  0.71517  0.80016  0.07439  1.0000
  H   H3513     1.0  0.68085  0.77200  0.16088  1.0000
  S   S1207     1.0  0.96279  0.77517  0.07340  1.0000
  S   S1208     1.0  0.96233  0.86930  0.16205  1.0000
  C   C3528     1.0  0.76003  0.87925  0.03161  1.0000
  C   C3529     1.0  0.96925  0.78208  0.09625  1.0000
  H   H3514     1.0  0.76384  0.79062  0.06922  1.0000
  S   S1209     1.0  0.83992  0.74143  0.02923  1.0000
  C   C3530     1.0  0.82775  0.90931  0.10700  1.0000
  C   C3531     1.0  0.82736  0.92108  0.09524  1.0000
  C   C3532     1.0  0.83548  0.93151  0.09340  1.0000
  C   C3533     1.0  0.84367  0.93050  0.10355  1.0000
  C   C3534     1.0  0.84381  0.91888  0.11549  1.0000
  C   C3535     1.0  0.83605  0.90820  0.11709  1.0000
  H   H3515     1.0  0.82110  0.92196  0.08735  1.0000
  H   H3516     1.0  0.83541  0.94034  0.08404  1.0000
  H   H3517     1.0  0.85024  0.91784  0.12326  1.0000
  H   H3518     1.0  0.83644  0.89909  0.12618  1.0000
  C   C3536     1.0  0.93360  0.90847  0.13841  1.0000
  C   C3537     1.0  0.92547  0.92132  0.13170  1.0000
  C   C3538     1.0  0.91089  0.92599  0.13793  1.0000
  C   C3539     1.0  0.90455  0.91794  0.15103  1.0000
  C   C3540     1.0  0.91290  0.90548  0.15804  1.0000
  C   C3541     1.0  0.92731  0.90063  0.15165  1.0000
  H   H3519     1.0  0.93033  0.92745  0.12148  1.0000
  H   H3520     1.0  0.90457  0.93568  0.13253  1.0000
  C   C3542     1.0  0.79740  0.70406  0.16660  1.0000
  H   H3521     1.0  0.93353  0.89078  0.15698  1.0000
  C   C3543     1.0  0.77142  0.74476  0.11450  1.0000
  C   C3544     1.0  0.76328  0.74391  0.10512  1.0000
  C   C3545     1.0  0.76063  0.73056  0.10514  1.0000
  C   C3546     1.0  0.76590  0.71812  0.11472  1.0000
  C   C3547     1.0  0.77390  0.71901  0.12423  1.0000
  C   C3548     1.0  0.77684  0.73229  0.12398  1.0000
  H   H3522     1.0  0.75917  0.75352  0.09772  1.0000
  H   H3523     1.0  0.75449  0.72997  0.09777  1.0000
  H   H3524     1.0  0.77803  0.70938  0.13165  1.0000
  H   H3525     1.0  0.78334  0.73281  0.13110  1.0000
  C   C3549     1.0  0.87820  0.75940  0.04917  1.0000
  C   C3550     1.0  0.77576  0.78834  0.04189  1.0000
  H   H3526     1.0  0.79257  0.86245  0.04036  1.0000
  S   S1210     1.0  0.86995  0.74601  0.04784  1.0000
  H   H3527     1.0  0.76349  0.79808  0.14354  1.0000
  C   C3551     1.0  0.72784  0.85427  0.08644  1.0000
  C   C3552     1.0  0.94036  0.75085  0.05020  1.0000
  C   C3553     1.0  0.92572  0.82666  0.10782  1.0000
  C   C3554     1.0  0.92452  0.83844  0.11396  1.0000
  C   C3555     1.0  0.93656  0.84058  0.11768  1.0000
  C   C3556     1.0  0.94982  0.83095  0.11520  1.0000
  C   C3557     1.0  0.95084  0.81897  0.10951  1.0000
  C   C3558     1.0  0.93885  0.81680  0.10584  1.0000
  H   H3528     1.0  0.91437  0.84610  0.11553  1.0000
  H   H3529     1.0  0.93570  0.84993  0.12195  1.0000
  H   H3530     1.0  0.96111  0.81167  0.10738  1.0000
  H   H3531     1.0  0.94005  0.80791  0.10078  1.0000
  C   C3559     1.0  0.89192  0.78042  0.05133  1.0000
  C   C3560     1.0  0.88507  0.78270  0.03977  1.0000
  C   C3561     1.0  0.87810  0.77231  0.03876  1.0000
  H   H3532     1.0  0.74354  0.88255  0.06981  1.0000
  C   C3562     1.0  0.89196  0.76755  0.06177  1.0000
  H   H3533     1.0  0.88514  0.79254  0.03153  1.0000
  H   H3534     1.0  0.87284  0.77421  0.02980  1.0000
  H   H3535     1.0  0.89742  0.76557  0.07057  1.0000
  C   C3563     1.0  0.88238  0.76154  0.11751  1.0000
  C   C3564     1.0  0.88047  0.76629  0.10323  1.0000
  C   C3565     1.0  0.86674  0.76922  0.10020  1.0000
  C   C3566     1.0  0.85480  0.76746  0.11149  1.0000
  C   C3567     1.0  0.85669  0.76256  0.12585  1.0000
  C   C3568     1.0  0.87051  0.75950  0.12886  1.0000
  H   H3536     1.0  0.88964  0.76766  0.09447  1.0000
  H   H3537     1.0  0.86543  0.77279  0.08908  1.0000
  H   H3538     1.0  0.84751  0.76144  0.13462  1.0000
  H   H3539     1.0  0.87193  0.75593  0.13995  1.0000
  C   C3569     1.0  0.73601  0.86310  0.06030  1.0000
  H   H3540     1.0  0.90500  0.74414  0.15022  1.0000
  H   H3541     1.0  0.85109  0.76162  0.16993  1.0000
  S   S1211     1.0  0.78926  0.74614  0.15142  1.0000
  C   C3570     1.0  0.72062  0.75456  0.18104  1.0000
  H   H3542     1.0  0.90809  0.89932  0.16827  1.0000
  H   H3543     1.0  0.69447  0.72197  0.17113  1.0000
  C   C3571     1.0  0.78958  0.69379  0.17588  1.0000
  H   H3544     1.0  0.68985  0.73644  0.13297  1.0000
  C   C3572     1.0  0.73847  0.87486  0.07850  1.0000
  C   C3573     1.0  0.72600  0.85504  0.10094  1.0000
  S   S1212     1.0  0.80196  0.91258  0.07269  1.0000
  C   C3574     1.0  0.72951  0.69403  0.13667  1.0000
  H   H3545     1.0  0.76930  0.88953  0.99228  1.0000
  C   C3575     1.0  0.77283  0.86894  0.03243  1.0000
  S   S1213     1.0  0.83180  0.81611  0.16694  1.0000
  H   H3546     1.0  0.95371  0.78064  0.04607  1.0000
  H   H3547     1.0  0.74461  0.77891  0.08590  1.0000
  C   C3576     1.0  0.91150  0.90670  0.11230  1.0000
  N   N291      1.0  0.79433  0.89176  0.00920  1.0000
  S   S1214     1.0  0.76723  0.91272  0.07865  1.0000
  C   C3577     1.0  0.75051  0.75511  0.14819  1.0000
  C   C3578     1.0  0.93625  0.77990  0.03696  1.0000
  H   H3548     1.0  0.76145  0.74867  0.14508  1.0000
  H   H3549     1.0  0.87163  0.98457  0.15471  1.0000
  H   H3550     1.0  0.79413  0.88175  0.12652  1.0000
  Fe  Fe604     1.0  0.82255  0.76076  0.03350  1.0000
  S   S1215     1.0  0.77606  0.95122  0.07459  1.0000
  H   H3551     1.0  0.74747  0.85839  0.05616  1.0000
  H   H3552     1.0  0.72923  0.85622  0.05905  1.0000
  H   H3553     1.0  0.84692  0.74093  0.07519  1.0000
  N   N292      1.0  0.75017  0.77041  0.14151  1.0000
  C   C3579     1.0  0.89888  0.91628  0.10923  1.0000
  S   S1216     1.0  0.60889  0.78096  0.17119  1.0000
  H   H3554     1.0  0.93421  0.79135  0.03209  1.0000
  C   C3580     1.0  0.88512  0.75707  0.06070  1.0000
  N   N293      1.0  0.82745  0.73478  0.08800  1.0000
  C   C3581     1.0  0.81367  0.73553  0.08691  1.0000
  C   C3582     1.0  0.83356  0.72433  0.09831  1.0000
  C   C3583     1.0  0.80577  0.72544  0.09605  1.0000
  C   C3584     1.0  0.82586  0.71420  0.10781  1.0000
  C   C3585     1.0  0.81189  0.71477  0.10661  1.0000
  C   C3586     1.0  0.83537  0.74582  0.07884  1.0000
  H   H3555     1.0  0.80861  0.74410  0.07911  1.0000
  H   H3556     1.0  0.79482  0.72614  0.09519  1.0000
  H   H3557     1.0  0.83051  0.70627  0.11635  1.0000
  H   H3558     1.0  0.80571  0.70715  0.11406  1.0000
  H   H3559     1.0  0.83463  0.75410  0.08505  1.0000
  H   H3560     1.0  0.83102  0.75124  0.06888  1.0000
  N   N294      1.0  0.69982  0.67337  0.10147  1.0000
  C   C3587     1.0  0.71213  0.67060  0.09128  1.0000
  C   C3588     1.0  0.68676  0.67837  0.09751  1.0000
  C   C3589     1.0  0.71163  0.67306  0.07664  1.0000
  C   C3590     1.0  0.68585  0.68109  0.08294  1.0000
  C   C3591     1.0  0.69840  0.67844  0.07245  1.0000
  C   C3592     1.0  0.70050  0.67028  0.11683  1.0000
  H   H3561     1.0  0.72246  0.66659  0.09438  1.0000
  H   H3562     1.0  0.67698  0.68040  0.10562  1.0000
  H   H3563     1.0  0.72150  0.67085  0.06866  1.0000
  H   H3564     1.0  0.67549  0.68524  0.07986  1.0000
  H   H3565     1.0  0.69788  0.68055  0.06111  1.0000
  H   H3566     1.0  0.71125  0.67062  0.11820  1.0000
  H   H3567     1.0  0.69239  0.67838  0.12244  1.0000
  H   H3568     1.0  0.69822  0.65938  0.12215  1.0000
  N   N295      1.0  0.85147  0.79809  0.05783  1.0000
  C   C3593     1.0  0.84985  0.80380  0.04382  1.0000
  C   C3594     1.0  0.86014  0.80294  0.06355  1.0000
  C   C3595     1.0  0.85682  0.81483  0.03523  1.0000
  C   C3596     1.0  0.86719  0.81403  0.05530  1.0000
  C   C3597     1.0  0.86554  0.81996  0.04104  1.0000
  C   C3598     1.0  0.84458  0.78613  0.06649  1.0000
  H   H3569     1.0  0.84329  0.79975  0.03910  1.0000
  H   H3570     1.0  0.86185  0.79807  0.07447  1.0000
  H   H3571     1.0  0.85562  0.81914  0.02406  1.0000
  H   H3572     1.0  0.87433  0.81759  0.05977  1.0000
  H   H3573     1.0  0.87125  0.82830  0.03442  1.0000
  H   H3574     1.0  0.67859  0.72467  0.12051  1.0000
  H   H3575     1.0  0.74618  0.70795  0.15403  1.0000
  S   S1217     1.0  0.86759  0.79198  0.16964  1.0000
  C   C3599     1.0  0.76060  0.63741  0.16702  1.0000
  C   C3600     1.0  0.73230  0.72049  0.13953  1.0000
  S   S1218     1.0  0.85967  0.76434  0.00878  1.0000
  C   C3601     1.0  0.98674  0.82754  0.08283  1.0000
  C   C3602     1.0  0.80239  0.95790  0.13363  1.0000
  Fe  Fe605     1.0  0.86330  0.97224  0.13219  1.0000
  Fe  Fe606     1.0  0.67678  0.65325  0.15102  1.0000
  C   C3603     1.0  0.79306  0.93629  0.12752  1.0000
  C   C3604     1.0  0.88566  0.90480  0.13193  1.0000
  H   H3576     1.0  0.77928  0.64448  0.15241  1.0000
  C   C3605     1.0  0.79716  0.90133  0.01693  1.0000
  H   H3577     1.0  0.95597  0.81152  0.06549  1.0000
  Fe  Fe607     1.0  0.68515  0.62749  0.17410  1.0000
  H   H3578     1.0  0.78702  0.90645  0.02358  1.0000
  C   C3606     1.0  0.80431  0.87948  0.00678  1.0000
  N   N296      1.0  0.86616  0.82188  0.13753  1.0000
  C   C3607     1.0  0.88079  0.81983  0.13546  1.0000
  C   C3608     1.0  0.86008  0.81160  0.13569  1.0000
  C   C3609     1.0  0.88974  0.80727  0.13144  1.0000
  C   C3610     1.0  0.86875  0.79897  0.13148  1.0000
  C   C3611     1.0  0.88366  0.79681  0.12945  1.0000
  C   C3612     1.0  0.85700  0.83477  0.14257  1.0000
  H   H3579     1.0  0.88568  0.82780  0.13715  1.0000
  H   H3580     1.0  0.84848  0.81303  0.13768  1.0000
  H   H3581     1.0  0.90133  0.80572  0.12996  1.0000
  H   H3582     1.0  0.86394  0.79085  0.12997  1.0000
  H   H3583     1.0  0.89052  0.78705  0.12635  1.0000
  H   H3584     1.0  0.84601  0.83696  0.14038  1.0000
  H   H3585     1.0  0.85598  0.83312  0.15447  1.0000
  H   H3586     1.0  0.86165  0.84445  0.13698  1.0000
  S   S1219     1.0  0.75888  0.86515  0.98403  1.0000
  H   H3587     1.0  0.98905  0.83801  0.08293  1.0000
  C   C3613     1.0  0.96244  0.84139  0.08051  1.0000
  S   S1220     1.0  0.84430  0.80445  0.00785  1.0000
  C   C3614     1.0  0.94904  0.84287  0.07721  1.0000
  H   H3588     1.0  0.81178  0.92183  0.13461  1.0000
  C   C3615     1.0  0.92228  0.83660  0.17679  1.0000
  H   H3589     1.0  0.72867  0.68369  0.13526  1.0000
  H   H3590     1.0  0.96396  0.84936  0.08554  1.0000
  C   C3616     1.0  0.80118  0.70409  0.04528  1.0000
  H   H3591     1.0  0.94035  0.85190  0.07960  1.0000
  H   H3592     1.0  0.78741  0.86731  0.98763  1.0000
  C   C3617     1.0  0.70976  0.68639  0.18043  1.0000
  S   S1221     1.0  0.81788  0.95750  0.16282  1.0000
  H   H3593     1.0  0.74084  0.67226  0.15579  1.0000
  N   N297      1.0  0.63767  0.75750  0.12052  1.0000
  C   C3618     1.0  0.62525  0.76121  0.13028  1.0000
  C   C3619     1.0  0.64640  0.76717  0.11390  1.0000
  C   C3620     1.0  0.62113  0.77506  0.13334  1.0000
  C   C3621     1.0  0.64262  0.78110  0.11667  1.0000
  C   C3622     1.0  0.62985  0.78507  0.12641  1.0000
  C   C3623     1.0  0.64196  0.74284  0.11769  1.0000
  H   H3594     1.0  0.61850  0.75342  0.13583  1.0000
  H   H3595     1.0  0.65633  0.76416  0.10637  1.0000
  H   H3596     1.0  0.61133  0.77795  0.14118  1.0000
  H   H3597     1.0  0.64959  0.78874  0.11130  1.0000
  H   H3598     1.0  0.62682  0.79584  0.12870  1.0000
  H   H3599     1.0  0.64663  0.73524  0.12674  1.0000
  H   H3600     1.0  0.63247  0.73918  0.11688  1.0000
  H   H3601     1.0  0.64996  0.74226  0.10733  1.0000
  N   N298      1.0  0.76455  0.78106  0.05173  1.0000
  C   C3624     1.0  0.75871  0.77245  0.04691  1.0000
  C   C3625     1.0  0.74866  0.77682  0.07504  1.0000
  C   C3626     1.0  0.74793  0.76553  0.05616  1.0000
  C   C3627     1.0  0.74288  0.76775  0.07032  1.0000
  H   H3602     1.0  0.76245  0.77082  0.03587  1.0000
  H   H3603     1.0  0.74353  0.75849  0.05236  1.0000
  H   H3604     1.0  0.73440  0.76258  0.07755  1.0000
  H   H3605     1.0  0.78181  0.78239  0.03316  1.0000
  C   C3628     1.0  0.67283  0.70872  0.13966  1.0000
  C   C3629     1.0  0.83012  0.93457  0.18170  1.0000
  Fe  Fe608     1.0  0.85474  0.75386  0.03233  1.0000
  C   C3630     1.0  0.81760  0.80169  0.15687  1.0000
  Fe  Fe609     1.0  0.79919  0.76344  0.15343  1.0000
  S   S1222     1.0  0.96725  0.83733  0.15479  1.0000
  Fe  Fe610     1.0  0.87987  0.80262  0.17847  1.0000
  C   C3631     1.0  0.77397  0.64133  0.16364  1.0000
  H   H3606     1.0  0.95752  0.75465  0.05787  1.0000
  H   H3607     1.0  0.93613  0.83285  0.06969  1.0000
  C   C3632     1.0  0.91089  0.89623  0.12521  1.0000
  H   H3608     1.0  0.77542  0.86008  0.02692  1.0000
  S   S1223     1.0  0.74785  0.87846  0.02143  1.0000
  C   C3633     1.0  0.80305  0.78470  0.17222  1.0000
  C   C3634     1.0  0.67754  0.79757  0.16674  1.0000
  H   H3609     1.0  0.75574  0.63747  0.15825  1.0000
  C   C3635     1.0  0.67926  0.81020  0.16955  1.0000
  H   H3610     1.0  0.83428  0.97651  0.09418  1.0000
  C   C3636     1.0  0.81097  0.67491  0.17282  1.0000
  C   C3637     1.0  0.89753  0.88449  0.14841  1.0000
  H   H3611     1.0  0.89901  0.76129  0.18124  1.0000
  H   H3612     1.0  0.82999  0.68163  0.15896  1.0000
  H   H3613     1.0  0.67631  0.82056  0.16240  1.0000
  H   H3614     1.0  0.67979  0.70631  0.17247  1.0000
  C   C3638     1.0  0.83056  0.81560  0.99942  1.0000
  H   H3615     1.0  0.63516  0.60990  0.18036  1.0000
  C   C3639     1.0  0.68533  0.72709  0.13897  1.0000
  C   C3640     1.0  0.79607  0.70886  0.02090  1.0000
  N   N299      1.0  0.73388  0.86419  0.07544  1.0000
  H   H3616     1.0  0.97456  0.78736  0.11402  1.0000
  C   C3641     1.0  0.81201  0.69966  0.16047  1.0000
  S   S1224     1.0  0.76811  0.84047  0.01239  1.0000
  N   N300      1.0  0.92969  0.75682  0.04247  1.0000
  N   N301      1.0  0.90820  0.76058  0.15901  1.0000
  H   H3617     1.0  0.74027  0.88456  0.09530  1.0000
  C   C3642     1.0  0.75954  0.78344  0.06553  1.0000
  S   S1225     1.0  0.79317  0.77158  0.17404  1.0000
  H   H3618     1.0  0.78365  0.97198  0.12667  1.0000
  Fe  Fe611     1.0  0.94863  0.85389  0.16291  1.0000
  C   C3643     1.0  0.73035  0.86608  0.10414  1.0000
  H   H3619     1.0  0.72436  0.84569  0.08407  1.0000
  C   C3644     1.0  0.91727  0.76588  0.14663  1.0000
  H   H3620     1.0  0.81953  0.85302  0.15639  1.0000
  C   C3645     1.0  0.73938  0.70754  0.14709  1.0000
  C   C3646     1.0  0.81669  0.71532  0.02362  1.0000
  C   C3647     1.0  0.83371  0.82697  0.98784  1.0000
  H   H3621     1.0  0.91133  0.75416  0.03623  1.0000
  C   C3648     1.0  0.74690  0.68113  0.15203  1.0000
  C   C3649     1.0  0.80798  0.86859  0.14098  1.0000
  S   S1226     1.0  0.73436  0.85047  0.00791  1.0000
  Fe  Fe612     1.0  0.68008  0.65763  0.17921  1.0000
  S   S1227     1.0  0.84346  0.96918  0.12715  1.0000
  H   H3622     1.0  0.66778  0.70358  0.13434  1.0000
  Fe  Fe613     1.0  0.84089  0.78182  0.01472  1.0000
  H   H3623     1.0  0.79512  0.81933  0.99965  1.0000
  C   C3650     1.0  0.78446  0.98496  0.08553  1.0000
  C   C3651     1.0  0.81040  0.94377  0.13584  1.0000
  H   H3624     1.0  0.91914  0.77596  0.02974  1.0000
  C   C3652     1.0  0.71102  0.83424  0.99090  1.0000
  C   C3653     1.0  0.72382  0.72010  0.13029  1.0000
  H   H3625     1.0  0.65509  0.67557  0.15919  1.0000
  H   H3626     1.0  0.63860  0.69835  0.16434  1.0000
  C   C3654     1.0  0.90280  0.82379  0.18205  1.0000
  H   H3627     1.0  0.89082  0.88942  0.15769  1.0000
  H   H3628     1.0  0.80428  0.89521  0.02466  1.0000
  C   C3655     1.0  0.78938  0.87420  0.99363  1.0000
  H   H3629     1.0  0.93646  0.83622  0.15585  1.0000
  C   C3656     1.0  0.72355  0.80733  0.98421  1.0000
  H   H3630     1.0  0.76274  0.95194  0.12930  1.0000
  C   C3657     1.0  0.79730  0.87112  0.13311  1.0000
  H   H3631     1.0  0.89296  0.87563  0.14754  1.0000
  H   H3632     1.0  0.80231  0.90990  0.00910  1.0000
  N   N302      1.0  0.79441  0.84657  0.14239  1.0000
  C   C3658     1.0  0.79642  0.67918  0.17900  1.0000
  H   H3633     1.0  0.66821  0.69463  0.16070  1.0000
  C   C3659     1.0  0.81178  0.85496  0.14962  1.0000
  C   C3660     1.0  0.81181  0.71965  0.99970  1.0000
  H   H3634     1.0  0.81061  0.95855  0.09911  1.0000
  C   C3661     1.0  0.64613  0.68963  0.12622  1.0000
  H   H3635     1.0  0.63160  0.70996  0.12078  1.0000
  H   H3636     1.0  0.77556  0.83793  0.15038  1.0000
  H   H3637     1.0  0.82018  0.94128  0.13997  1.0000
  C   C3662     1.0  0.78660  0.83529  0.14376  1.0000
  H   H3638     1.0  0.73358  0.73075  0.14065  1.0000
  H   H3639     1.0  0.87556  0.90439  0.13973  1.0000
  N   N303      1.0  0.68130  0.78446  0.17560  1.0000
  C   C3663     1.0  0.90649  0.76520  0.17153  1.0000
  H   H3640     1.0  0.76969  0.98155  0.07446  1.0000
  C   C3664     1.0  0.65284  0.67992  0.13699  1.0000
  C   C3665     1.0  0.95772  0.82016  0.06941  1.0000
  C   C3666     1.0  0.89957  0.75062  0.15867  1.0000
  C   C3667     1.0  0.77866  0.97652  0.07980  1.0000
  C   C3668     1.0  0.78971  0.96092  0.12847  1.0000
  Fe  Fe614     1.0  0.84029  0.95566  0.14956  1.0000
  Fe  Fe615     1.0  0.74332  0.85205  0.98389  1.0000
  S   S1228     1.0  0.68922  0.66663  0.15610  1.0000
  C   C3669     1.0  0.91422  0.77513  0.17194  1.0000
  N   N304      1.0  0.89810  0.89550  0.13490  1.0000
  S   S1229     1.0  0.82441  0.77246  0.01013  1.0000
  C   C3670     1.0  0.72219  0.70681  0.12900  1.0000
  S   S1230     1.0  0.85900  0.96017  0.15532  1.0000
  C   C3671     1.0  0.97097  0.81909  0.07277  1.0000
  H   H3641     1.0  0.78573  0.83443  0.13292  1.0000
  H   H3642     1.0  0.92340  0.82214  0.14832  1.0000
  C   C3672     1.0  0.80168  0.96364  0.09370  1.0000
  C   C3673     1.0  0.67891  0.72057  0.13190  1.0000
  H   H3643     1.0  0.79201  0.82450  0.14915  1.0000
  C   C3674     1.0  0.92703  0.83294  0.16316  1.0000
  C   C3675     1.0  0.80195  0.87048  0.99901  1.0000
  H   H3644     1.0  0.79214  0.71529  0.16418  1.0000
  H   H3645     1.0  0.80599  0.96646  0.13591  1.0000
  H   H3646     1.0  0.77923  0.84817  0.17023  1.0000
  Fe  Fe616     1.0  0.62265  0.72881  0.16636  1.0000
  H   H3647     1.0  0.70345  0.73022  0.15391  1.0000
  S   S1231     1.0  0.63575  0.74508  0.16386  1.0000
  H   H3648     1.0  0.91589  0.74194  0.05227  1.0000
  H   H3649     1.0  0.82223  0.80709  0.14614  1.0000
  H   H3650     1.0  0.64814  0.68719  0.11560  1.0000
  N   N305      1.0  0.68590  0.72174  0.15328  1.0000
  H   H3651     1.0  0.92914  0.78867  0.15946  1.0000
  H   H3652     1.0  0.75016  0.68247  0.16155  1.0000
  H   H3653     1.0  0.85211  0.77565  0.06531  1.0000
  C   C3676     1.0  0.81665  0.81285  0.00375  1.0000
  C   C3677     1.0  0.91966  0.82486  0.15893  1.0000
  C   C3678     1.0  0.90756  0.82027  0.16834  1.0000
  H   H3654     1.0  0.84152  0.78669  0.07815  1.0000
  H   H3655     1.0  0.81419  0.80411  0.01277  1.0000
  S   S1232     1.0  0.66521  0.66429  0.13288  1.0000
  H   H3656     1.0  0.93210  0.78027  0.13676  1.0000
  C   C3679     1.0  0.88585  0.91528  0.11904  1.0000
  C   C3680     1.0  0.67313  0.70363  0.15436  1.0000
  H   H3657     1.0  0.80722  0.78958  0.14887  1.0000
  N   N306      1.0  0.73808  0.69455  0.14544  1.0000
  Fe  Fe617     1.0  0.70646  0.64660  0.15780  1.0000
  C   C3681     1.0  0.82042  0.80431  0.16914  1.0000
  C   C3682     1.0  0.78415  0.96157  0.08124  1.0000
  H   H3658     1.0  0.80975  0.86064  0.99721  1.0000
  H   H3659     1.0  0.77397  0.90511  0.00596  1.0000
  H   H3660     1.0  0.80733  0.83373  0.15750  1.0000
  Fe  Fe618     1.0  0.75189  0.86114  0.00835  1.0000
  C   C3683     1.0  0.69274  0.72869  0.16042  1.0000
  H   H3661     1.0  0.68583  0.73929  0.16215  1.0000
  C   C3684     1.0  0.67889  0.77144  0.17273  1.0000
  N   N307      1.0  0.75375  0.63360  0.18116  1.0000
  N   N308      1.0  0.78531  0.95020  0.12528  1.0000
  C   C3685     1.0  0.94667  0.83214  0.07168  1.0000
  S   S1233     1.0  0.89874  0.81011  0.16259  1.0000
  H   H3662     1.0  0.77258  0.94651  0.11248  1.0000
  C   C3686     1.0  0.78200  0.89551  0.00388  1.0000
  H   H3663     1.0  0.89772  0.74290  0.16927  1.0000
  H   H3664     1.0  0.71859  0.73012  0.12413  1.0000
  H   H3665     1.0  0.91848  0.76239  0.13664  1.0000
  H   H3666     1.0  0.87600  0.92272  0.11674  1.0000
  S   S1234     1.0  0.66595  0.64590  0.17416  1.0000
  H   H3667     1.0  0.70643  0.84486  0.99342  1.0000
  C   C3687     1.0  0.77930  0.88676  0.99609  1.0000
  C   C3688     1.0  0.81872  0.68509  0.16363  1.0000
  H   H3668     1.0  0.65857  0.61756  0.17454  1.0000
  C   C3689     1.0  0.78202  0.84110  0.18007  1.0000
  C   C3690     1.0  0.78032  0.64130  0.17485  1.0000
  H   H3669     1.0  0.84986  0.97266  0.07999  1.0000
  H   H3670     1.0  0.68644  0.76166  0.17712  1.0000
  Fe  Fe619     1.0  0.61607  0.75680  0.17686  1.0000
  H   H3671     1.0  0.88896  0.75684  0.15631  1.0000
  H   H3672     1.0  0.73256  0.80249  0.00332  1.0000
  H   H3673     1.0  0.80882  0.69379  0.04832  1.0000
  H   H3674     1.0  0.81631  0.66366  0.17521  1.0000
  H   H3675     1.0  0.79005  0.70206  0.04898  1.0000
  H   H3676     1.0  0.76977  0.96484  0.11374  1.0000
  H   H3677     1.0  0.73769  0.62579  0.17611  1.0000
  H   H3678     1.0  0.83365  0.76961  0.16541  1.0000
  H   H3679     1.0  0.80176  0.71211  0.05120  1.0000
  S   S1235     1.0  0.75429  0.79857  0.17759  1.0000
  H   H3680     1.0  0.82347  0.71598  0.03047  1.0000
  N   N309      1.0  0.83600  0.74775  0.17662  1.0000
  H   H3681     1.0  0.79259  0.71344  0.99904  1.0000
  H   H3682     1.0  0.70141  0.66949  0.17755  1.0000
  S   S1236     1.0  0.93149  0.84699  0.18188  1.0000
  C   C3691     1.0  0.82047  0.72037  0.00862  1.0000
  C   C3692     1.0  0.80915  0.83262  0.98458  1.0000
  H   H3683     1.0  0.72107  0.82635  0.00951  1.0000
  C   C3693     1.0  0.81748  0.94213  0.17689  1.0000
  H   H3684     1.0  0.84009  0.93825  0.17686  1.0000
  H   H3685     1.0  0.97940  0.80966  0.07124  1.0000
  C   C3694     1.0  0.84130  0.72416  0.17114  1.0000
  S   S1237     1.0  0.84856  0.74352  0.98644  1.0000
  Fe  Fe620     1.0  0.77391  0.84369  0.98810  1.0000
  C   C3695     1.0  0.98847  0.78015  0.07511  1.0000
  C   C3696     1.0  0.72581  0.81044  0.99648  1.0000
  H   H3686     1.0  0.81787  0.75572  0.98714  1.0000
  H   H3687     1.0  0.82568  0.71097  0.18214  1.0000
  H   H3688     1.0  0.81465  0.72351  0.98804  1.0000
  H   H3689     1.0  0.79483  0.94312  0.17951  1.0000
  C   C3697     1.0  0.79588  0.97850  0.09266  1.0000
  H   H3690     1.0  0.98609  0.82076  0.09398  1.0000
  H   H3691     1.0  0.77832  0.69714  0.18054  1.0000
  H   H3692     1.0  0.71968  0.68408  0.17268  1.0000
  H   H3693     1.0  0.81796  0.98048  0.06674  1.0000
  H   H3694     1.0  0.91265  0.77903  0.18178  1.0000
  H   H3695     1.0  0.66770  0.77009  0.17788  1.0000
  H   H3696     1.0  0.77209  0.82444  0.17902  1.0000
  S   S1238     1.0  0.69829  0.63861  0.18143  1.0000
  H   H3697     1.0  0.82734  0.98038  0.17389  1.0000
  H   H3698     1.0  0.99067  0.81012  0.13164  1.0000
  C   C3698     1.0  0.68479  0.80937  0.18159  1.0000
  H   H3699     1.0  0.84451  0.82900  0.98444  1.0000
  S   S1239     1.0  0.79357  0.86258  0.18230  1.0000
  C   C3699     1.0  0.65894  0.83210  0.21892  1.0000
  Fe  Fe621     1.0  0.74371  0.68138  0.22811  1.0000
  S   S1240     1.0  0.75648  0.65986  0.22369  1.0000
  S   S1241     1.0  0.74049  0.68591  0.25020  1.0000
  Fe  Fe622     1.0  0.73517  0.69073  0.19919  1.0000
  H   H3700     1.0  0.65789  0.49860  0.23398  1.0000
  C   C3700     1.0  0.77984  0.72773  0.21110  1.0000
  Fe  Fe623     1.0  0.73786  0.65943  0.21482  1.0000
  S   S1242     1.0  0.72735  0.64052  0.21952  1.0000
  H   H3701     1.0  0.70169  0.76367  0.31379  1.0000
  H   H3702     1.0  0.73996  0.62326  0.30726  1.0000
  S   S1243     1.0  0.72443  0.67995  0.22102  1.0000
  S   S1244     1.0  0.75340  0.69420  0.20668  1.0000
  Fe  Fe624     1.0  0.70554  0.57088  0.31224  1.0000
  S   S1245     1.0  0.68583  0.58814  0.31709  1.0000
  C   C3701     1.0  0.74755  0.68219  0.30503  1.0000
  Fe  Fe625     1.0  0.72188  0.59208  0.29024  1.0000
  S   S1246     1.0  0.70345  0.61092  0.29268  1.0000
  S   S1247     1.0  0.74281  0.59458  0.27488  1.0000
  Fe  Fe626     1.0  0.70153  0.60158  0.31654  1.0000
  S   S1248     1.0  0.69762  0.61816  0.33039  1.0000
  Fe  Fe627     1.0  0.68964  0.59591  0.29286  1.0000
  S   S1249     1.0  0.67160  0.60290  0.28048  1.0000
  S   S1250     1.0  0.72090  0.58350  0.31401  1.0000
  S   S1251     1.0  0.70846  0.57799  0.28816  1.0000
  C   C3702     1.0  0.58696  0.70604  0.20202  1.0000
  S   S1252     1.0  0.62164  0.74569  0.19842  1.0000
  C   C3703     1.0  0.68016  0.77260  0.35449  1.0000
  Fe  Fe628     1.0  0.85994  0.79935  0.20768  1.0000
  S   S1253     1.0  0.88058  0.78533  0.19862  1.0000
  S   S1254     1.0  0.85726  0.80140  0.23052  1.0000
  C   C3704     1.0  0.70425  0.62988  0.38245  1.0000
  C   C3705     1.0  0.65702  0.74688  0.20659  1.0000
  H   H3703     1.0  0.98588  0.82214  0.18846  1.0000
  H   H3704     1.0  0.89352  0.82015  0.18940  1.0000
  S   S1255     1.0  0.87053  0.75275  0.18986  1.0000
  S   S1256     1.0  0.84545  0.78890  0.20133  1.0000
  H   H3705     1.0  0.75383  0.54394  0.29118  1.0000
  Fe  Fe629     1.0  0.77571  0.73879  0.25544  1.0000
  S   S1257     1.0  0.78801  0.71608  0.25581  1.0000
  S   S1258     1.0  0.75675  0.74527  0.24497  1.0000
  Fe  Fe630     1.0  0.79687  0.74634  0.26784  1.0000
  S   S1259     1.0  0.81128  0.72432  0.26890  1.0000
  S   S1260     1.0  0.80351  0.76307  0.27489  1.0000
  Fe  Fe631     1.0  0.80727  0.72619  0.24683  1.0000
  S   S1261     1.0  0.82223  0.71868  0.22726  1.0000
  Fe  Fe632     1.0  0.79051  0.71655  0.27781  1.0000
  S   S1262     1.0  0.78867  0.69788  0.29702  1.0000
  S   S1263     1.0  0.79475  0.74897  0.24497  1.0000
  S   S1264     1.0  0.77636  0.73851  0.27828  1.0000
  Fe  Fe633     1.0  0.76986  0.88441  0.22520  1.0000
  S   S1265     1.0  0.77696  0.86141  0.22297  1.0000
  S   S1266     1.0  0.74626  0.89335  0.23207  1.0000
  Fe  Fe634     1.0  0.80040  0.88956  0.21632  1.0000
  S   S1267     1.0  0.80997  0.86684  0.21339  1.0000
  C   C3706     1.0  0.57512  0.62685  0.21952  1.0000
  C   C3707     1.0  0.86414  0.84955  0.20318  1.0000
  C   C3708     1.0  0.60353  0.48981  0.22843  1.0000
  Fe  Fe635     1.0  0.79435  0.86071  0.23401  1.0000
  S   S1268     1.0  0.79999  0.84322  0.25280  1.0000
  H   H3706     1.0  0.78587  0.76515  0.21518  1.0000
  S   S1269     1.0  0.78622  0.88315  0.23794  1.0000
  Fe  Fe636     1.0  0.73176  0.81252  0.29224  1.0000
  S   S1270     1.0  0.71412  0.83210  0.29488  1.0000
  S   S1271     1.0  0.75281  0.81179  0.29728  1.0000
  Fe  Fe637     1.0  0.71374  0.79754  0.28304  1.0000
  S   S1272     1.0  0.69472  0.81590  0.28446  1.0000
  S   S1273     1.0  0.71156  0.77774  0.27724  1.0000
  Fe  Fe638     1.0  0.71067  0.83003  0.27379  1.0000
  S   S1274     1.0  0.70514  0.84877  0.25581  1.0000
  Fe  Fe639     1.0  0.70003  0.81595  0.30533  1.0000
  S   S1275     1.0  0.68181  0.81684  0.32476  1.0000
  S   S1276     1.0  0.72938  0.81163  0.27029  1.0000
  S   S1277     1.0  0.71806  0.79652  0.30463  1.0000
  Fe  Fe640     1.0  0.51128  0.67218  0.24290  1.0000
  S   S1278     1.0  0.51678  0.65644  0.26282  1.0000
  C   C3709     1.0  0.66756  0.78174  0.35072  1.0000
  Fe  Fe641     1.0  0.54284  0.67245  0.22922  1.0000
  S   S1279     1.0  0.55093  0.65659  0.24802  1.0000
  S   S1280     1.0  0.55815  0.68090  0.20917  1.0000
  Fe  Fe642     1.0  0.53434  0.64488  0.24755  1.0000
  S   S1281     1.0  0.53725  0.62111  0.24869  1.0000
  Fe  Fe643     1.0  0.53262  0.66971  0.26143  1.0000
  S   S1282     1.0  0.53176  0.67639  0.28193  1.0000
  S   S1283     1.0  0.52767  0.65967  0.22756  1.0000
  S   S1284     1.0  0.52577  0.68654  0.24266  1.0000
  Fe  Fe644     1.0  0.62018  0.54149  0.24311  1.0000
  S   S1285     1.0  0.62316  0.54895  0.26184  1.0000
  S   S1286     1.0  0.61997  0.51756  0.24884  1.0000
  Fe  Fe645     1.0  0.62345  0.57024  0.22270  1.0000
  S   S1287     1.0  0.62649  0.57985  0.23973  1.0000
  S   S1288     1.0  0.62475  0.58585  0.20119  1.0000
  Fe  Fe646     1.0  0.64083  0.55861  0.24607  1.0000
  S   S1289     1.0  0.66210  0.55620  0.25184  1.0000
  Fe  Fe647     1.0  0.60850  0.56966  0.25398  1.0000
  S   S1290     1.0  0.59377  0.58307  0.26958  1.0000
  S   S1291     1.0  0.63931  0.54942  0.22794  1.0000
  S   S1292     1.0  0.60392  0.56171  0.23641  1.0000
  Fe  Fe648     1.0  0.64357  0.78398  0.26508  1.0000
  S   S1293     1.0  0.62517  0.79846  0.25545  1.0000
  S   S1294     1.0  0.64511  0.78230  0.28798  1.0000
  Fe  Fe649     1.0  0.65988  0.77532  0.23677  1.0000
  S   S1295     1.0  0.64307  0.78903  0.22450  1.0000
  S   S1296     1.0  0.67992  0.76239  0.22556  1.0000
  Fe  Fe650     1.0  0.64237  0.80556  0.23673  1.0000
  H   H3707     1.0  0.95972  0.83208  0.19008  1.0000
  Fe  Fe651     1.0  0.62763  0.78045  0.24425  1.0000
  S   S1297     1.0  0.61002  0.77133  0.24185  1.0000
  S   S1298     1.0  0.66064  0.79266  0.24725  1.0000
  S   S1299     1.0  0.64457  0.76522  0.25558  1.0000
  Fe  Fe652     1.0  0.54579  0.72520  0.32454  1.0000
  S   S1300     1.0  0.56604  0.70798  0.32479  1.0000
  Fe  Fe653     1.0  0.56206  0.74862  0.30776  1.0000
  S   S1301     1.0  0.58357  0.73347  0.30585  1.0000
  S   S1302     1.0  0.56048  0.77203  0.29765  1.0000
  Fe  Fe654     1.0  0.57220  0.71861  0.30136  1.0000
  S   S1303     1.0  0.58047  0.70684  0.28295  1.0000
  Fe  Fe655     1.0  0.57557  0.72445  0.32939  1.0000
  H   H3708     1.0  0.52957  0.72133  0.30363  1.0000
  S   S1304     1.0  0.55148  0.73485  0.30085  1.0000
  S   S1305     1.0  0.55462  0.74067  0.33157  1.0000
  H   H3709     1.0  0.60313  0.72233  0.26454  1.0000
  N   N310      1.0  0.73542  0.55098  0.28174  1.0000
  S   S1306     1.0  0.64153  0.82876  0.22596  1.0000
  H   H3710     1.0  0.68619  0.81910  0.18389  1.0000
  S   S1307     1.0  0.71941  0.66862  0.36496  1.0000
  C   C3710     1.0  0.80231  0.78962  0.23097  1.0000
  C   C3711     1.0  0.49445  0.72362  0.30369  1.0000
  C   C3712     1.0  0.66071  0.75401  0.21533  1.0000
  H   H3711     1.0  0.57816  0.59890  0.22449  1.0000
  C   C3713     1.0  0.68437  0.69163  0.20116  1.0000
  H   H3712     1.0  0.83802  0.86757  0.24508  1.0000
  C   C3714     1.0  0.59548  0.77229  0.25666  1.0000
  C   C3715     1.0  0.59167  0.78386  0.26372  1.0000
  C   C3716     1.0  0.58037  0.78418  0.27593  1.0000
  C   C3717     1.0  0.57317  0.77272  0.28129  1.0000
  C   C3718     1.0  0.57684  0.76126  0.27409  1.0000
  C   C3719     1.0  0.58780  0.76119  0.26161  1.0000
  H   H3713     1.0  0.59731  0.79264  0.25972  1.0000
  H   H3714     1.0  0.57749  0.79307  0.28147  1.0000
  H   H3715     1.0  0.57126  0.75241  0.27815  1.0000
  H   H3716     1.0  0.59058  0.75234  0.25605  1.0000
  C   C3720     1.0  0.61489  0.50788  0.23875  1.0000
  H   H3717     1.0  0.84156  0.88059  0.21071  1.0000
  C   C3721     1.0  0.50072  0.75623  0.31437  1.0000
  H   H3718     1.0  0.76389  0.68668  0.34764  1.0000
  C   C3722     1.0  0.59754  0.50470  0.22675  1.0000
  C   C3723     1.0  0.60319  0.51374  0.23190  1.0000
  C   C3724     1.0  0.71868  0.63894  0.34626  1.0000
  C   C3725     1.0  0.67945  0.79328  0.37822  1.0000
  H   H3719     1.0  0.58816  0.50917  0.22194  1.0000
  H   H3720     1.0  0.59806  0.52503  0.23120  1.0000
  C   C3726     1.0  0.64142  0.59112  0.19654  1.0000
  C   C3727     1.0  0.66796  0.59963  0.18977  1.0000
  N   N311      1.0  0.84326  0.86011  0.22545  1.0000
  C   C3728     1.0  0.54597  0.68380  0.28240  1.0000
  C   C3729     1.0  0.55834  0.68365  0.27135  1.0000
  C   C3730     1.0  0.56928  0.69020  0.27181  1.0000
  C   C3731     1.0  0.56770  0.69714  0.28315  1.0000
  C   C3732     1.0  0.55541  0.69705  0.29428  1.0000
  C   C3733     1.0  0.54463  0.69034  0.29394  1.0000
  H   H3721     1.0  0.55951  0.67846  0.26250  1.0000
  H   H3722     1.0  0.57884  0.68995  0.26333  1.0000
  H   H3723     1.0  0.55408  0.70227  0.30312  1.0000
  H   H3724     1.0  0.53513  0.69041  0.30256  1.0000
  C   C3734     1.0  0.55274  0.61048  0.25488  1.0000
  C   C3735     1.0  0.55841  0.59670  0.25174  1.0000
  C   C3736     1.0  0.57114  0.58830  0.25604  1.0000
  C   C3737     1.0  0.57801  0.59352  0.26383  1.0000
  C   C3738     1.0  0.57218  0.60718  0.26720  1.0000
  C   C3739     1.0  0.55967  0.61573  0.26258  1.0000
  H   H3725     1.0  0.55305  0.59257  0.24583  1.0000
  H   H3726     1.0  0.57547  0.57768  0.25357  1.0000
  H   H3727     1.0  0.57740  0.61122  0.27331  1.0000
  H   H3728     1.0  0.55526  0.62627  0.26522  1.0000
  C   C3740     1.0  0.50924  0.75600  0.33592  1.0000
  C   C3741     1.0  0.67518  0.75289  0.21532  1.0000
  Fe  Fe656     1.0  0.75230  0.80947  0.19562  1.0000
  H   H3729     1.0  0.78534  0.71720  0.21616  1.0000
  H   H3730     1.0  0.69724  0.60187  0.36527  1.0000
  H   H3731     1.0  0.59368  0.71155  0.19270  1.0000
  H   H3732     1.0  0.60801  0.64127  0.19451  1.0000
  C   C3742     1.0  0.56943  0.69064  0.21200  1.0000
  H   H3733     1.0  0.82536  0.87593  0.23338  1.0000
  C   C3743     1.0  0.67088  0.82074  0.21692  1.0000
  C   C3744     1.0  0.73626  0.55993  0.26829  1.0000
  C   C3745     1.0  0.70778  0.74842  0.33268  1.0000
  C   C3746     1.0  0.98114  0.83238  0.19176  1.0000
  C   C3747     1.0  0.69337  0.77660  0.28236  1.0000
  C   C3748     1.0  0.68408  0.78315  0.29347  1.0000
  C   C3749     1.0  0.66918  0.78407  0.29600  1.0000
  C   C3750     1.0  0.66362  0.77850  0.28734  1.0000
  C   C3751     1.0  0.67297  0.77127  0.27682  1.0000
  C   C3752     1.0  0.68780  0.77032  0.27433  1.0000
  H   H3734     1.0  0.68829  0.78787  0.29989  1.0000
  H   H3735     1.0  0.66198  0.78973  0.30413  1.0000
  H   H3736     1.0  0.66874  0.76681  0.27020  1.0000
  H   H3737     1.0  0.69474  0.76549  0.26558  1.0000
  C   C3753     1.0  0.66925  0.51401  0.23555  1.0000
  C   C3754     1.0  0.69338  0.77674  0.34840  1.0000
  C   C3755     1.0  0.69398  0.79010  0.33879  1.0000
  H   H3738     1.0  0.70314  0.76978  0.35139  1.0000
  H   H3739     1.0  0.70415  0.79349  0.33465  1.0000
  C   C3756     1.0  0.74358  0.55211  0.29183  1.0000
  H   H3740     1.0  0.51557  0.76532  0.27852  1.0000
  H   H3741     1.0  0.70427  0.81385  0.23382  1.0000
  H   H3742     1.0  0.51360  0.72421  0.28687  1.0000
  H   H3743     1.0  0.58501  0.65857  0.20132  1.0000
  C   C3757     1.0  0.62030  0.73268  0.25132  1.0000
  C   C3758     1.0  0.76523  0.75476  0.19923  1.0000
  Fe  Fe657     1.0  0.76437  0.67249  0.20151  1.0000
  C   C3759     1.0  0.69916  0.60953  0.37044  1.0000
  C   C3760     1.0  0.73522  0.88058  0.23879  1.0000
  C   C3761     1.0  0.74068  0.86606  0.24457  1.0000
  C   C3762     1.0  0.73140  0.85629  0.25043  1.0000
  C   C3763     1.0  0.71677  0.86092  0.24997  1.0000
  C   C3764     1.0  0.71138  0.87536  0.24407  1.0000
  C   C3765     1.0  0.72052  0.88521  0.23875  1.0000
  H   H3744     1.0  0.75192  0.86246  0.24504  1.0000
  H   H3745     1.0  0.73561  0.84515  0.25509  1.0000
  H   H3746     1.0  0.70008  0.87899  0.24371  1.0000
  H   H3747     1.0  0.71622  0.89642  0.23440  1.0000
  H   H3748     1.0  0.61486  0.71735  0.35687  1.0000
  H   H3749     1.0  0.60183  0.50342  0.28300  1.0000
  C   C3766     1.0  0.69499  0.69962  0.19869  1.0000
  C   C3767     1.0  0.68167  0.83521  0.24525  1.0000
  H   H3750     1.0  0.81633  0.75320  0.19158  1.0000
  H   H3751     1.0  0.59411  0.59833  0.23069  1.0000
  C   C3768     1.0  0.77748  0.82798  0.18533  1.0000
  C   C3769     1.0  0.81968  0.73171  0.18819  1.0000
  H   H3752     1.0  0.64218  0.72282  0.22068  1.0000
  C   C3770     1.0  0.51263  0.72088  0.32271  1.0000
  C   C3771     1.0  0.78914  0.77639  0.28105  1.0000
  C   C3772     1.0  0.77520  0.77754  0.27926  1.0000
  C   C3773     1.0  0.76390  0.78839  0.28427  1.0000
  C   C3774     1.0  0.76662  0.79810  0.29096  1.0000
  C   C3775     1.0  0.78058  0.79699  0.29263  1.0000
  C   C3776     1.0  0.79182  0.78616  0.28767  1.0000
  H   H3753     1.0  0.77314  0.77018  0.27391  1.0000
  H   H3754     1.0  0.75313  0.78923  0.28295  1.0000
  H   H3755     1.0  0.78270  0.80444  0.29784  1.0000
  H   H3756     1.0  0.80258  0.78526  0.28909  1.0000
  C   C3777     1.0  0.77394  0.70055  0.31153  1.0000
  C   C3778     1.0  0.74879  0.71046  0.32073  1.0000
  C   C3779     1.0  0.76087  0.70983  0.30922  1.0000
  H   H3757     1.0  0.73859  0.71725  0.31877  1.0000
  H   H3758     1.0  0.75994  0.71606  0.29846  1.0000
  C   C3780     1.0  0.84077  0.81218  0.23675  1.0000
  C   C3781     1.0  0.83161  0.81996  0.22728  1.0000
  C   C3782     1.0  0.81888  0.82935  0.23227  1.0000
  C   C3783     1.0  0.81523  0.83074  0.24675  1.0000
  C   C3784     1.0  0.82417  0.82260  0.25632  1.0000
  C   C3785     1.0  0.83702  0.81343  0.25128  1.0000
  H   H3759     1.0  0.83445  0.81898  0.21605  1.0000
  H   H3760     1.0  0.81189  0.83549  0.22493  1.0000
  H   H3761     1.0  0.82136  0.82368  0.26752  1.0000
  H   H3762     1.0  0.84414  0.80744  0.25859  1.0000
  C   C3786     1.0  0.85756  0.74315  0.20131  1.0000
  C   C3787     1.0  0.85787  0.72944  0.19938  1.0000
  C   C3788     1.0  0.84710  0.72194  0.20760  1.0000
  C   C3789     1.0  0.83607  0.72799  0.21797  1.0000
  C   C3790     1.0  0.83592  0.74154  0.22023  1.0000
  C   C3791     1.0  0.84665  0.74914  0.21185  1.0000
  H   H3763     1.0  0.86633  0.72467  0.19136  1.0000
  H   H3764     1.0  0.84729  0.71143  0.20589  1.0000
  H   H3765     1.0  0.82752  0.74610  0.22840  1.0000
  H   H3766     1.0  0.84660  0.75951  0.21364  1.0000
  Fe  Fe658     1.0  0.73791  0.65024  0.36876  1.0000
  S   S1308     1.0  0.78317  0.89328  0.20376  1.0000
  C   C3792     1.0  0.49836  0.69091  0.29582  1.0000
  C   C3793     1.0  0.62480  0.71275  0.23420  1.0000
  H   H3767     1.0  0.76959  0.71919  0.19923  1.0000
  C   C3794     1.0  0.71931  0.54915  0.26301  1.0000
  C   C3795     1.0  0.65785  0.83253  0.25871  1.0000
  H   H3768     1.0  0.60949  0.77580  0.21030  1.0000
  S   S1309     1.0  0.67290  0.67160  0.19557  1.0000
  H   H3769     1.0  0.94877  0.85564  0.19727  1.0000
  H   H3770     1.0  0.81662  0.77288  0.22050  1.0000
  H   H3771     1.0  0.74348  0.61070  0.29549  1.0000
  H   H3772     1.0  0.66939  0.80980  0.21908  1.0000
  H   H3773     1.0  0.59334  0.70795  0.25126  1.0000
  H   H3774     1.0  0.72662  0.53357  0.29638  1.0000
  C   C3796     1.0  0.60874  0.72836  0.35552  1.0000
  S   S1310     1.0  0.72112  0.70670  0.18527  1.0000
  H   H3775     1.0  0.70898  0.82184  0.24616  1.0000
  H   H3776     1.0  0.72846  0.56665  0.24831  1.0000
  C   C3797     1.0  0.61906  0.80120  0.19547  1.0000
  C   C3798     1.0  0.68962  0.54636  0.30413  1.0000
  C   C3799     1.0  0.68281  0.53939  0.29787  1.0000
  H   H3777     1.0  0.68812  0.55800  0.30136  1.0000
  H   H3778     1.0  0.67626  0.54569  0.29016  1.0000
  C   C3800     1.0  0.66920  0.59019  0.27198  1.0000
  C   C3801     1.0  0.65725  0.59324  0.26555  1.0000
  C   C3802     1.0  0.65487  0.58292  0.25929  1.0000
  C   C3803     1.0  0.66464  0.56966  0.25915  1.0000
  C   C3804     1.0  0.67682  0.56689  0.26505  1.0000
  C   C3805     1.0  0.67897  0.57700  0.27162  1.0000
  H   H3779     1.0  0.64973  0.60352  0.26559  1.0000
  H   H3780     1.0  0.64556  0.58525  0.25455  1.0000
  H   H3781     1.0  0.68445  0.55670  0.26485  1.0000
  H   H3782     1.0  0.68817  0.57446  0.27645  1.0000
  C   C3806     1.0  0.71139  0.62250  0.33598  1.0000
  Fe  Fe659     1.0  0.67822  0.49202  0.29680  1.0000
  C   C3807     1.0  0.69318  0.51618  0.31123  1.0000
  C   C3808     1.0  0.74422  0.70275  0.24890  1.0000
  C   C3809     1.0  0.74837  0.70532  0.26047  1.0000
  C   C3810     1.0  0.75206  0.71848  0.25931  1.0000
  C   C3811     1.0  0.75138  0.72918  0.24665  1.0000
  C   C3812     1.0  0.74665  0.72686  0.23530  1.0000
  C   C3813     1.0  0.74317  0.71360  0.23638  1.0000
  H   H3783     1.0  0.74915  0.69696  0.27015  1.0000
  H   H3784     1.0  0.75554  0.72032  0.26818  1.0000
  H   H3785     1.0  0.74585  0.73526  0.22565  1.0000
  H   H3786     1.0  0.73953  0.71183  0.22761  1.0000
  C   C3814     1.0  0.81702  0.91750  0.19939  1.0000
  C   C3815     1.0  0.80442  0.92485  0.19437  1.0000
  C   C3816     1.0  0.51422  0.76356  0.29019  1.0000
  H   H3787     1.0  0.83600  0.76647  0.18383  1.0000
  C   C3817     1.0  0.68223  0.73726  0.19810  1.0000
  S   S1311     1.0  0.67522  0.51632  0.29345  1.0000
  H   H3788     1.0  0.65172  0.85509  0.21715  1.0000
  S   S1312     1.0  0.74423  0.63255  0.35583  1.0000
  H   H3789     1.0  0.83958  0.91679  0.19697  1.0000
  H   H3790     1.0  0.59865  0.80260  0.22874  1.0000
  C   C3818     1.0  0.78942  0.84547  0.18797  1.0000
  H   H3791     1.0  0.63790  0.74089  0.23602  1.0000
  C   C3819     1.0  0.77093  0.72886  0.20168  1.0000
  C   C3820     1.0  0.73208  0.62739  0.23452  1.0000
  C   C3821     1.0  0.72182  0.61984  0.24380  1.0000
  C   C3822     1.0  0.72518  0.60960  0.25610  1.0000
  C   C3823     1.0  0.73895  0.60668  0.25899  1.0000
  C   C3824     1.0  0.74943  0.61385  0.24944  1.0000
  C   C3825     1.0  0.74594  0.62435  0.23729  1.0000
  H   H3792     1.0  0.71116  0.62215  0.24166  1.0000
  H   H3793     1.0  0.71708  0.60399  0.26333  1.0000
  H   H3794     1.0  0.76014  0.61151  0.25159  1.0000
  H   H3795     1.0  0.75403  0.62992  0.23000  1.0000
  N   N312      1.0  0.61402  0.71266  0.24637  1.0000
  H   H3796     1.0  0.74341  0.64825  0.25428  1.0000
  C   C3826     1.0  0.66777  0.73831  0.19811  1.0000
  N   N313      1.0  0.58772  0.61741  0.21556  1.0000
  H   H3797     1.0  0.61831  0.74058  0.25797  1.0000
  C   C3827     1.0  0.67799  0.81225  0.25932  1.0000
  H   H3798     1.0  0.71275  0.54864  0.25586  1.0000
  C   C3828     1.0  0.60465  0.77676  0.30318  1.0000
  H   H3799     1.0  0.65233  0.76025  0.22215  1.0000
  N   N314      1.0  0.82202  0.78314  0.24880  1.0000
  C   C3829     1.0  0.82445  0.77568  0.23808  1.0000
  C   C3830     1.0  0.72716  0.54077  0.28578  1.0000
  H   H3800     1.0  0.71044  0.63864  0.30191  1.0000
  C   C3831     1.0  0.50118  0.68663  0.30981  1.0000
  H   H3801     1.0  0.50817  0.61202  0.25239  1.0000
  C   C3832     1.0  0.83219  0.77909  0.25851  1.0000
  H   H3802     1.0  0.83391  0.76709  0.23672  1.0000
  C   C3833     1.0  0.76349  0.74245  0.19576  1.0000
  C   C3834     1.0  0.85017  0.84590  0.22768  1.0000
  C   C3835     1.0  0.52446  0.76619  0.29616  1.0000
  C   C3836     1.0  0.58888  0.74643  0.34736  1.0000
  H   H3803     1.0  0.82881  0.78568  0.26695  1.0000
  H   H3804     1.0  0.83278  0.76760  0.26422  1.0000
  H   H3805     1.0  0.84308  0.78051  0.25222  1.0000
  C   C3837     1.0  0.74000  0.63422  0.27548  1.0000
  H   H3806     1.0  0.69452  0.50454  0.31408  1.0000
  C   C3838     1.0  0.83255  0.86562  0.23740  1.0000
  C   C3839     1.0  0.75998  0.63344  0.19220  1.0000
  C   C3840     1.0  0.51824  0.72180  0.30785  1.0000
  C   C3841     1.0  0.49881  0.61905  0.24783  1.0000
  S   S1313     1.0  0.73117  0.80395  0.20792  1.0000
  H   H3807     1.0  0.61106  0.82256  0.22564  1.0000
  H   H3808     1.0  0.74602  0.56306  0.28940  1.0000
  H   H3809     1.0  0.74217  0.73517  0.33716  1.0000
  H   H3810     1.0  0.69014  0.78647  0.37792  1.0000
  H   H3811     1.0  0.63059  0.48871  0.24463  1.0000
  C   C3842     1.0  0.73943  0.87810  0.20084  1.0000
  H   H3812     1.0  0.53075  0.76558  0.31579  1.0000
  H   H3813     1.0  0.60710  0.69540  0.24222  1.0000
  C   C3843     1.0  0.70860  0.63562  0.34045  1.0000
  Fe  Fe660     1.0  0.79167  0.87002  0.20258  1.0000
  Fe  Fe661     1.0  0.73373  0.68238  0.36648  1.0000
  H   H3814     1.0  0.60605  0.69496  0.26110  1.0000
  H   H3815     1.0  0.64125  0.81665  0.37796  1.0000
  N   N315      1.0  0.73756  0.84979  0.21466  1.0000
  C   C3844     1.0  0.75074  0.85314  0.20833  1.0000
  C   C3845     1.0  0.72529  0.86030  0.21427  1.0000
  C   C3846     1.0  0.75188  0.86730  0.20121  1.0000
  Fe  Fe662     1.0  0.62579  0.75847  0.37995  1.0000
  H   H3816     1.0  0.75621  0.74349  0.18873  1.0000
  C   C3847     1.0  0.73652  0.83504  0.22257  1.0000
  H   H3817     1.0  0.76048  0.84490  0.20886  1.0000
  H   H3818     1.0  0.71484  0.85770  0.21956  1.0000
  H   H3819     1.0  0.50405  0.76624  0.33968  1.0000
  C   C3848     1.0  0.70748  0.69731  0.18800  1.0000
  C   C3849     1.0  0.62135  0.49319  0.23966  1.0000
  H   H3820     1.0  0.73461  0.83442  0.23441  1.0000
  H   H3821     1.0  0.72747  0.83186  0.22024  1.0000
  H   H3822     1.0  0.74649  0.82708  0.21934  1.0000
  N   N316      1.0  0.55120  0.72692  0.23184  1.0000
  C   C3850     1.0  0.54047  0.71959  0.23907  1.0000
  C   C3851     1.0  0.55890  0.73095  0.23937  1.0000
  C   C3852     1.0  0.53711  0.71621  0.25425  1.0000
  C   C3853     1.0  0.55585  0.72771  0.25457  1.0000
  C   C3854     1.0  0.54473  0.72049  0.26200  1.0000
  C   C3855     1.0  0.55407  0.73084  0.21593  1.0000
  H   H3823     1.0  0.53453  0.71620  0.23308  1.0000
  H   H3824     1.0  0.56765  0.73645  0.23366  1.0000
  H   H3825     1.0  0.52878  0.71015  0.26000  1.0000
  H   H3826     1.0  0.56218  0.73055  0.26057  1.0000
  H   H3827     1.0  0.54222  0.71795  0.27376  1.0000
  H   H3828     1.0  0.54573  0.74021  0.21226  1.0000
  H   H3829     1.0  0.56484  0.73364  0.21136  1.0000
  H   H3830     1.0  0.55408  0.72158  0.21135  1.0000
  N   N317      1.0  0.76539  0.66288  0.32262  1.0000
  C   C3856     1.0  0.75097  0.66673  0.32812  1.0000
  C   C3857     1.0  0.77112  0.66859  0.30855  1.0000
  C   C3858     1.0  0.74184  0.67645  0.31945  1.0000
  C   C3859     1.0  0.71924  0.74047  0.33926  1.0000
  C   C3860     1.0  0.77482  0.65342  0.33224  1.0000
  H   H3831     1.0  0.74651  0.66252  0.33938  1.0000
  H   H3832     1.0  0.78266  0.66624  0.30436  1.0000
  H   H3833     1.0  0.73050  0.67982  0.32403  1.0000
  H   H3834     1.0  0.78530  0.64843  0.32601  1.0000
  H   H3835     1.0  0.77692  0.65976  0.33908  1.0000
  H   H3836     1.0  0.76972  0.64448  0.33946  1.0000
  H   H3837     1.0  0.82550  0.85781  0.24328  1.0000
  H   H3838     1.0  0.71127  0.72904  0.22530  1.0000
  C   C3861     1.0  0.69834  0.53829  0.31392  1.0000
  S   S1314     1.0  0.70771  0.54686  0.32115  1.0000
  H   H3839     1.0  0.67451  0.69377  0.20909  1.0000
  C   C3862     1.0  0.49428  0.63277  0.26672  1.0000
  H   H3840     1.0  0.67847  0.52932  0.24056  1.0000
  H   H3841     1.0  0.65833  0.80239  0.33862  1.0000
  H   H3842     1.0  0.68211  0.80088  0.26315  1.0000
  H   H3843     1.0  0.65220  0.54215  0.30353  1.0000
  C   C3863     1.0  0.71052  0.75727  0.31893  1.0000
  C   C3864     1.0  0.81004  0.79393  0.25067  1.0000
  H   H3844     1.0  0.50584  0.63065  0.26594  1.0000
  H   H3845     1.0  0.78504  0.68511  0.32727  1.0000
  H   H3846     1.0  0.76657  0.76921  0.22141  1.0000
  H   H3847     1.0  0.63388  0.81506  0.18339  1.0000
  H   H3848     1.0  0.50299  0.62672  0.23796  1.0000
  C   C3865     1.0  0.85722  0.86410  0.20108  1.0000
  C   C3866     1.0  0.73610  0.64616  0.26467  1.0000
  S   S1315     1.0  0.72800  0.77236  0.19386  1.0000
  C   C3867     1.0  0.63131  0.73286  0.23895  1.0000
  C   C3868     1.0  0.71769  0.64070  0.29143  1.0000
  H   H3849     1.0  0.57716  0.70179  0.23870  1.0000
  N   N318      1.0  0.67995  0.63084  0.22390  1.0000
  C   C3869     1.0  0.68315  0.61778  0.23310  1.0000
  C   C3870     1.0  0.67100  0.63269  0.21464  1.0000
  C   C3871     1.0  0.67740  0.60617  0.23312  1.0000
  C   C3872     1.0  0.66489  0.62136  0.21454  1.0000
  C   C3873     1.0  0.66815  0.60802  0.22385  1.0000
  C   C3874     1.0  0.68660  0.64275  0.22337  1.0000
  H   H3850     1.0  0.69017  0.61623  0.24050  1.0000
  H   H3851     1.0  0.66862  0.64293  0.20719  1.0000
  H   H3852     1.0  0.68015  0.59577  0.24022  1.0000
  H   H3853     1.0  0.65804  0.62276  0.20698  1.0000
  H   H3854     1.0  0.66367  0.59907  0.22373  1.0000
  H   H3855     1.0  0.69131  0.64101  0.23301  1.0000
  H   H3856     1.0  0.69533  0.64395  0.21352  1.0000
  H   H3857     1.0  0.67850  0.65310  0.22296  1.0000
  C   C3875     1.0  0.75078  0.75117  0.31104  1.0000
  H   H3858     1.0  0.57957  0.74948  0.34243  1.0000
  C   C3876     1.0  0.73533  0.61947  0.30008  1.0000
  N   N319      1.0  0.73080  0.63159  0.28861  1.0000
  S   S1316     1.0  0.60906  0.76579  0.36589  1.0000
  H   H3859     1.0  0.64646  0.83703  0.26186  1.0000
  C   C3877     1.0  0.68444  0.52432  0.30144  1.0000
  C   C3878     1.0  0.72811  0.55924  0.25879  1.0000
  C   C3879     1.0  0.66813  0.79522  0.34129  1.0000
  H   H3860     1.0  0.66502  0.52656  0.26591  1.0000
  C   C3880     1.0  0.67124  0.52184  0.24463  1.0000
  C   C3881     1.0  0.66349  0.52032  0.25897  1.0000
  H   H3861     1.0  0.67496  0.51534  0.22431  1.0000
  H   H3862     1.0  0.90652  0.83473  0.19685  1.0000
  C   C3882     1.0  0.59293  0.75674  0.35229  1.0000
  C   C3883     1.0  0.77944  0.81973  0.19897  1.0000
  H   H3863     1.0  0.59140  0.70389  0.38138  1.0000
  C   C3884     1.0  0.74975  0.70192  0.33459  1.0000
  C   C3885     1.0  0.67748  0.80592  0.36755  1.0000
  H   H3864     1.0  0.78846  0.81781  0.21741  1.0000
  C   C3886     1.0  0.72273  0.65545  0.26738  1.0000
  C   C3887     1.0  0.58583  0.64700  0.20534  1.0000
  H   H3865     1.0  0.59535  0.59570  0.21272  1.0000
  C   C3888     1.0  0.57766  0.70051  0.22792  1.0000
  H   H3866     1.0  0.75453  0.63057  0.20340  1.0000
  N   N320      1.0  0.60906  0.79801  0.20785  1.0000
  H   H3867     1.0  0.86594  0.82904  0.21837  1.0000
  H   H3868     1.0  0.76236  0.86991  0.19618  1.0000
  C   C3889     1.0  0.66335  0.81796  0.26384  1.0000
  C   C3890     1.0  0.64364  0.60360  0.18598  1.0000
  C   C3891     1.0  0.65220  0.50333  0.25537  1.0000
  H   H3869     1.0  0.79037  0.80563  0.24362  1.0000
  C   C3892     1.0  0.64506  0.51057  0.27876  1.0000
  H   H3870     1.0  0.65094  0.57339  0.21180  1.0000
  H   H3871     1.0  0.49350  0.61201  0.24466  1.0000
  H   H3872     1.0  0.73722  0.55035  0.30318  1.0000
  H   H3873     1.0  0.63188  0.54339  0.29236  1.0000
  C   C3893     1.0  0.68594  0.74453  0.20667  1.0000
  S   S1317     1.0  0.75281  0.66403  0.36903  1.0000
  C   C3894     1.0  0.66706  0.84125  0.24941  1.0000
  H   H3874     1.0  0.74480  0.60864  0.34370  1.0000
  H   H3875     1.0  0.66292  0.85259  0.24529  1.0000
  C   C3895     1.0  0.84680  0.86924  0.21243  1.0000
  C   C3896     1.0  0.72603  0.87459  0.20734  1.0000
  C   C3897     1.0  0.68482  0.82356  0.21208  1.0000
  C   C3898     1.0  0.60249  0.76290  0.30475  1.0000
  H   H3876     1.0  0.59937  0.78580  0.29593  1.0000
  H   H3877     1.0  0.60793  0.74046  0.31527  1.0000
  H   H3878     1.0  0.59534  0.76116  0.29888  1.0000
  C   C3899     1.0  0.75458  0.87695  0.26763  1.0000
  H   H3879     1.0  0.75781  0.88660  0.26047  1.0000
  H   H3880     1.0  0.73192  0.88623  0.26966  1.0000
  C   C3900     1.0  0.73473  0.61626  0.34269  1.0000
  S   S1318     1.0  0.74248  0.83141  0.18406  1.0000
  H   H3881     1.0  0.69715  0.74376  0.20645  1.0000
  N   N321      1.0  0.65397  0.51129  0.26410  1.0000
  H   H3882     1.0  0.71623  0.64897  0.34985  1.0000
  C   C3901     1.0  0.91016  0.83199  0.18626  1.0000
  N   N322      1.0  0.68696  0.82088  0.25022  1.0000
  C   C3902     1.0  0.81469  0.77885  0.22896  1.0000
  C   C3903     1.0  0.61173  0.72241  0.25492  1.0000
  C   C3904     1.0  0.59948  0.62245  0.20682  1.0000
  C   C3905     1.0  0.50222  0.75861  0.29933  1.0000
  S   S1319     1.0  0.81703  0.90235  0.21376  1.0000
  H   H3883     1.0  0.71351  0.72959  0.26176  1.0000
  H   H3884     1.0  0.77622  0.86458  0.26690  1.0000
  C   C3906     1.0  0.60959  0.75130  0.31386  1.0000
  C   C3907     1.0  0.74000  0.87675  0.27282  1.0000
  H   H3885     1.0  0.56393  0.64920  0.21738  1.0000
  C   C3908     1.0  0.70012  0.52316  0.31744  1.0000
  H   H3886     1.0  0.69843  0.64314  0.33971  1.0000
  H   H3887     1.0  0.72678  0.60261  0.33380  1.0000
  H   H3888     1.0  0.66197  0.82378  0.35871  1.0000
  C   C3909     1.0  0.76490  0.86446  0.27122  1.0000
  C   C3910     1.0  0.61270  0.73862  0.36055  1.0000
  C   C3911     1.0  0.60168  0.78634  0.20942  1.0000
  C   C3912     1.0  0.70683  0.73007  0.23677  1.0000
  H   H3889     1.0  0.71005  0.71924  0.24363  1.0000
  H   H3890     1.0  0.80994  0.72946  0.19579  1.0000
  C   C3913     1.0  0.59668  0.73215  0.34914  1.0000
  C   C3914     1.0  0.76228  0.67821  0.29951  1.0000
  H   H3891     1.0  0.69490  0.73314  0.23852  1.0000
  H   H3892     1.0  0.64461  0.49622  0.25942  1.0000
  H   H3893     1.0  0.62181  0.73545  0.36573  1.0000
  H   H3894     1.0  0.81624  0.79959  0.19250  1.0000
  C   C3915     1.0  0.58887  0.60184  0.22118  1.0000
  C   C3916     1.0  0.60471  0.75282  0.35912  1.0000
  C   C3917     1.0  0.86062  0.84038  0.21658  1.0000
  H   H3895     1.0  0.56218  0.68675  0.23522  1.0000
  H   H3896     1.0  0.71208  0.53188  0.27998  1.0000
  S   S1320     1.0  0.59118  0.71851  0.34453  1.0000
  C   C3918     1.0  0.71506  0.73926  0.25358  1.0000
  H   H3897     1.0  0.79452  0.79198  0.22415  1.0000
  C   C3919     1.0  0.56913  0.69204  0.22596  1.0000
  S   S1321     1.0  0.59541  0.71988  0.21843  1.0000
  C   C3920     1.0  0.65249  0.58299  0.20366  1.0000
  H   H3898     1.0  0.75840  0.74063  0.31336  1.0000
  C   C3921     1.0  0.61868  0.75380  0.32140  1.0000
  N   N323      1.0  0.71233  0.74107  0.24011  1.0000
  H   H3899     1.0  0.62644  0.70521  0.22725  1.0000
  C   C3922     1.0  0.61372  0.77888  0.31098  1.0000
  H   H3900     1.0  0.72303  0.74806  0.26736  1.0000
  C   C3923     1.0  0.63412  0.55322  0.29352  1.0000
  C   C3924     1.0  0.73589  0.86410  0.28144  1.0000
  H   H3901     1.0  0.62410  0.74474  0.32850  1.0000
  N   N324      1.0  0.76079  0.85219  0.27994  1.0000
  H   H3902     1.0  0.69408  0.81479  0.21085  1.0000
  N   N325      1.0  0.62044  0.76749  0.32009  1.0000
  H   H3903     1.0  0.76699  0.68310  0.28852  1.0000
  C   C3925     1.0  0.49795  0.72072  0.32810  1.0000
  C   C3926     1.0  0.72044  0.74962  0.25684  1.0000
  C   C3927     1.0  0.64555  0.55255  0.29977  1.0000
  C   C3928     1.0  0.71342  0.65271  0.28082  1.0000
  C   C3929     1.0  0.52266  0.76360  0.31125  1.0000
  H   H3904     1.0  0.65632  0.81104  0.27113  1.0000
  H   H3905     1.0  0.72604  0.61467  0.30669  1.0000
  C   C3930     1.0  0.57397  0.64175  0.21438  1.0000
  H   H3906     1.0  0.78238  0.84162  0.28208  1.0000
  H   H3907     1.0  0.61558  0.78964  0.30953  1.0000
  H   H3908     1.0  0.74286  0.56799  0.26505  1.0000
  H   H3909     1.0  0.61684  0.56715  0.28373  1.0000
  C   C3931     1.0  0.63367  0.72279  0.23036  1.0000
  H   H3910     1.0  0.74069  0.69004  0.29827  1.0000
  C   C3932     1.0  0.71431  0.75331  0.22983  1.0000
  C   C3933     1.0  0.62572  0.56667  0.28859  1.0000
  H   H3911     1.0  0.56584  0.62291  0.22661  1.0000
  H   H3912     1.0  0.77279  0.83169  0.27613  1.0000
  H   H3913     1.0  0.63994  0.77256  0.32056  1.0000
  C   C3934     1.0  0.74650  0.85184  0.28489  1.0000
  H   H3914     1.0  0.72457  0.86368  0.28513  1.0000
  H   H3915     1.0  0.50411  0.69854  0.28779  1.0000
  C   C3935     1.0  0.77168  0.83911  0.28341  1.0000
  C   C3936     1.0  0.72270  0.76201  0.24634  1.0000
  H   H3916     1.0  0.71184  0.75491  0.21925  1.0000
  C   C3937     1.0  0.66577  0.58709  0.20013  1.0000
  C   C3938     1.0  0.62987  0.77007  0.32813  1.0000
  C   C3939     1.0  0.73333  0.74148  0.33196  1.0000
  C   C3940     1.0  0.77492  0.69219  0.32542  1.0000
  C   C3941     1.0  0.71955  0.76393  0.23277  1.0000
  N   N326      1.0  0.69199  0.63265  0.37721  1.0000
  H   H3917     1.0  0.76862  0.83338  0.29484  1.0000
  C   C3942     1.0  0.64847  0.56530  0.30099  1.0000
  S   S1322     1.0  0.52343  0.72092  0.33456  1.0000
  H   H3918     1.0  0.64576  0.49916  0.28465  1.0000
  H   H3919     1.0  0.67431  0.58061  0.20559  1.0000
  S   S1323     1.0  0.67963  0.75624  0.36720  1.0000
  N   N327      1.0  0.73595  0.74999  0.31837  1.0000
  C   C3943     1.0  0.70223  0.81475  0.24531  1.0000
  H   H3920     1.0  0.62434  0.77926  0.33359  1.0000
  N   N328      1.0  0.62868  0.57912  0.28976  1.0000
  H   H3921     1.0  0.65752  0.56493  0.30558  1.0000
  Fe  Fe663     1.0  0.86617  0.77616  0.19080  1.0000
  H   H3922     1.0  0.63367  0.51559  0.27809  1.0000
  C   C3944     1.0  0.59870  0.63731  0.20153  1.0000
  C   C3945     1.0  0.57850  0.69748  0.20006  1.0000
  H   H3923     1.0  0.63271  0.76058  0.33683  1.0000
  C   C3946     1.0  0.72457  0.61286  0.33700  1.0000
  H   H3924     1.0  0.74324  0.84201  0.29147  1.0000
  H   H3925     1.0  0.72711  0.76997  0.24871  1.0000
  S   S1324     1.0  0.66348  0.72876  0.18753  1.0000
  H   H3926     1.0  0.62079  0.59426  0.27221  1.0000
  H   H3927     1.0  0.70299  0.65986  0.28303  1.0000
  H   H3928     1.0  0.71970  0.66481  0.25906  1.0000
  C   C3947     1.0  0.63984  0.57858  0.29596  1.0000
  C   C3948     1.0  0.78711  0.82394  0.20676  1.0000
  H   H3929     1.0  0.69678  0.74786  0.33834  1.0000
  C   C3949     1.0  0.61987  0.59302  0.28405  1.0000
  H   H3930     1.0  0.70688  0.51683  0.32500  1.0000
  H   H3931     1.0  0.60834  0.59346  0.28943  1.0000
  H   H3932     1.0  0.75400  0.75943  0.31471  1.0000
  H   H3933     1.0  0.72130  0.77350  0.22453  1.0000
  C   C3950     1.0  0.71891  0.53975  0.27654  1.0000
  H   H3934     1.0  0.80801  0.79978  0.25924  1.0000
  C   C3951     1.0  0.73172  0.62919  0.34761  1.0000
  H   H3935     1.0  0.62321  0.60233  0.28573  1.0000
  H   H3936     1.0  0.64240  0.58844  0.29670  1.0000
  H   H3937     1.0  0.64586  0.74792  0.20658  1.0000
  C   C3952     1.0  0.58639  0.70774  0.21594  1.0000
  H   H3938     1.0  0.71722  0.73350  0.34993  1.0000
  C   C3953     1.0  0.67482  0.84908  0.21100  1.0000
  H   H3939     1.0  0.74021  0.88919  0.19571  1.0000
  H   H3940     1.0  0.65738  0.77845  0.35501  1.0000
  H   H3941     1.0  0.59293  0.78564  0.21928  1.0000
  C   C3954     1.0  0.79998  0.79727  0.24186  1.0000
  C   C3955     1.0  0.68134  0.79943  0.33535  1.0000
  S   S1325     1.0  0.73438  0.70259  0.34878  1.0000
  H   H3942     1.0  0.68651  0.80892  0.35914  1.0000
  C   C3956     1.0  0.82983  0.92241  0.19309  1.0000
  H   H3943     1.0  0.75040  0.62703  0.27325  1.0000
  C   C3957     1.0  0.72476  0.75792  0.31189  1.0000
  C   C3958     1.0  0.60475  0.70214  0.25043  1.0000
  C   C3959     1.0  0.78133  0.74027  0.21431  1.0000
  H   H3944     1.0  0.77812  0.63746  0.19800  1.0000
  Fe  Fe664     1.0  0.60987  0.72913  0.19795  1.0000
  S   S1326     1.0  0.74684  0.67005  0.19222  1.0000
  Fe  Fe665     1.0  0.65747  0.75396  0.38017  1.0000
  C   C3960     1.0  0.50918  0.72328  0.29837  1.0000
  H   H3945     1.0  0.75190  0.75437  0.29906  1.0000
  H   H3946     1.0  0.64866  0.51621  0.28523  1.0000
  H   H3947     1.0  0.58674  0.76773  0.35105  1.0000
  C   C3961     1.0  0.68648  0.68098  0.19326  1.0000
  H   H3948     1.0  0.78802  0.73924  0.22190  1.0000
  C   C3962     1.0  0.60619  0.80547  0.21868  1.0000
  C   C3963     1.0  0.76290  0.69293  0.33693  1.0000
  H   H3949     1.0  0.58977  0.50583  0.26337  1.0000
  C   C3964     1.0  0.80555  0.78761  0.18453  1.0000
  H   H3950     1.0  0.61777  0.49293  0.27369  1.0000
  H   H3951     1.0  0.72678  0.76484  0.30120  1.0000
  H   H3952     1.0  0.79806  0.84008  0.20723  1.0000
  C   C3965     1.0  0.61313  0.81675  0.21700  1.0000
  H   H3953     1.0  0.49353  0.71985  0.33961  1.0000
  H   H3954     1.0  0.59684  0.78808  0.19985  1.0000
  C   C3966     1.0  0.62303  0.82034  0.20418  1.0000
  S   S1327     1.0  0.62936  0.71517  0.18682  1.0000
  C   C3967     1.0  0.65972  0.50462  0.24095  1.0000
  C   C3968     1.0  0.71443  0.61698  0.38154  1.0000
  C   C3969     1.0  0.58283  0.48809  0.26023  1.0000
  H   H3955     1.0  0.71986  0.59692  0.37428  1.0000
  C   C3970     1.0  0.96021  0.85118  0.19670  1.0000
  C   C3971     1.0  0.98359  0.85291  0.19873  1.0000
  C   C3972     1.0  0.66092  0.84628  0.21569  1.0000
  C   C3973     1.0  0.65206  0.81025  0.37805  1.0000
  H   H3956     1.0  0.69356  0.70744  0.20520  1.0000
  N   N329      1.0  0.51101  0.75846  0.32014  1.0000
  H   H3957     1.0  0.67965  0.62480  0.36709  1.0000
  C   C3974     1.0  0.66366  0.81431  0.36734  1.0000
  H   H3958     1.0  0.60952  0.61496  0.20385  1.0000
  H   H3959     1.0  0.50261  0.74775  0.34158  1.0000
  C   C3975     1.0  0.60739  0.49230  0.28158  1.0000
  C   C3976     1.0  0.77541  0.76660  0.21213  1.0000
  N   N330      1.0  0.77419  0.75358  0.20826  1.0000
  C   C3977     1.0  0.79228  0.83673  0.20115  1.0000
  H   H3960     1.0  0.51983  0.75159  0.33916  1.0000
  C   C3978     1.0  0.59028  0.49427  0.26656  1.0000
  H   H3961     1.0  0.53386  0.77007  0.28920  1.0000
  H   H3962     1.0  0.77477  0.77599  0.20281  1.0000
  H   H3963     1.0  0.49572  0.65707  0.22837  1.0000
  H   H3964     1.0  0.68876  0.84204  0.23793  1.0000
  H   H3965     1.0  0.50894  0.69099  0.31253  1.0000
  H   H3966     1.0  0.87225  0.84538  0.19450  1.0000
  C   C3979     1.0  0.68927  0.62260  0.37142  1.0000
  H   H3967     1.0  0.68977  0.77319  0.19446  1.0000
  H   H3968     1.0  0.79447  0.92117  0.19931  1.0000
  S   S1328     1.0  0.77034  0.80561  0.20714  1.0000
  C   C3980     1.0  0.49389  0.67679  0.32019  1.0000
  H   H3969     1.0  0.70568  0.80389  0.25203  1.0000
  H   H3970     1.0  0.67632  0.86005  0.20883  1.0000
  H   H3971     1.0  0.84758  0.83874  0.23809  1.0000
  H   H3972     1.0  0.67377  0.64859  0.37111  1.0000
  H   H3973     1.0  0.72238  0.74624  0.19056  1.0000
  H   H3974     1.0  0.69300  0.79504  0.19995  1.0000
  H   H3975     1.0  0.71628  0.88292  0.20729  1.0000
  Fe  Fe666     1.0  0.73229  0.79473  0.18887  1.0000
  N   N331      1.0  0.98953  0.83984  0.19486  1.0000
  H   H3976     1.0  0.62163  0.79495  0.18719  1.0000
  H   H3977     1.0  0.57878  0.69641  0.18923  1.0000
  C   C3981     1.0  0.62609  0.81248  0.19335  1.0000
  H   H3978     1.0  0.73112  0.64102  0.18486  1.0000
  H   H3979     1.0  0.57212  0.72544  0.37728  1.0000
  Fe  Fe667     1.0  0.72145  0.82484  0.19468  1.0000
  C   C3982     1.0  0.68677  0.83774  0.20926  1.0000
  H   H3980     1.0  0.75934  0.76530  0.19470  1.0000
  H   H3981     1.0  0.69069  0.73093  0.19140  1.0000
  C   C3983     1.0  0.68856  0.79594  0.19061  1.0000
  C   C3984     1.0  0.96637  0.83793  0.19264  1.0000
  C   C3985     1.0  0.96886  0.85881  0.19964  1.0000
  S   S1329     1.0  0.64461  0.74028  0.37599  1.0000
  S   S1330     1.0  0.70403  0.84146  0.20451  1.0000
  C   C3986     1.0  0.68666  0.78355  0.18747  1.0000
  H   H3982     1.0  0.62850  0.82905  0.20278  1.0000
  H   H3983     1.0  0.49490  0.68583  0.26976  1.0000
  C   C3987     1.0  0.77335  0.63725  0.18922  1.0000
  S   S1331     1.0  0.78731  0.66581  0.19038  1.0000
  C   C3988     1.0  0.71186  0.60678  0.37545  1.0000
  H   H3984     1.0  0.57660  0.49478  0.25228  1.0000
  H   H3985     1.0  0.60984  0.48580  0.29217  1.0000
  H   H3986     1.0  0.96419  0.86924  0.20256  1.0000
  C   C3989     1.0  0.82348  0.74504  0.18591  1.0000
  C   C3990     1.0  0.68167  0.64639  0.37813  1.0000
  H   H3987     1.0  0.85988  0.87140  0.19076  1.0000
  H   H3988     1.0  0.68739  0.65552  0.37456  1.0000
  H   H3989     1.0  0.73704  0.62321  0.19515  1.0000
  S   S1332     1.0  0.86047  0.81761  0.18811  1.0000
  H   H3990     1.0  0.80076  0.78235  0.19524  1.0000
  Fe  Fe668     1.0  0.64052  0.73287  0.18546  1.0000
  C   C3991     1.0  0.73923  0.63072  0.18448  1.0000
  S   S1333     1.0  0.68447  0.60485  0.18645  1.0000
  H   H3991     1.0  0.49588  0.67353  0.33112  1.0000
  H   H3992     1.0  0.49424  0.75635  0.29484  1.0000
  C   C3992     1.0  0.80462  0.93730  0.18324  1.0000
  S   S1334     1.0  0.63905  0.77293  0.38229  1.0000
  C   C3993     1.0  0.81439  0.79729  0.18298  1.0000
  N   N332      1.0  0.59866  0.48578  0.27609  1.0000
  H   H3993     1.0  0.99025  0.85887  0.20111  1.0000
  C   C3994     1.0  0.65688  0.60794  0.18269  1.0000
  C   C3995     1.0  0.69935  0.67814  0.18316  1.0000
  H   H3994     1.0  0.57857  0.76013  0.52533  1.0000
  H   H3995     1.0  0.72294  0.90038  0.56831  1.0000
  H   H3996     1.0  0.59092  0.74763  0.39770  1.0000
  H   H3997     1.0  0.70149  0.78874  0.50165  1.0000
  H   H3998     1.0  0.61208  0.69153  0.39065  1.0000
  C   C3996     1.0  0.70860  0.82215  0.51967  1.0000
  C   C3997     1.0  0.67051  0.77602  0.39962  1.0000
  H   H3999     1.0  0.74499  0.84848  0.57747  1.0000
  C   C3998     1.0  0.59066  0.73788  0.39458  1.0000
  C   C3999     1.0  0.63143  0.81371  0.54864  1.0000
  H   H4000     1.0  0.71549  0.78076  0.52416  1.0000
  H   H4001     1.0  0.70635  0.63781  0.38708  1.0000
  N   N333      1.0  0.66803  0.78934  0.38864  1.0000
  H   H4002     1.0  0.76658  0.85653  0.57852  1.0000
  H   H4003     1.0  0.71334  0.65579  0.42002  1.0000
  N   N334      1.0  0.60157  0.71339  0.39228  1.0000
  S   S1335     1.0  0.56495  0.78505  0.56886  1.0000
  H   H4004     1.0  0.62945  0.77825  0.55824  1.0000
  H   H4005     1.0  0.68930  0.78676  0.51906  1.0000
  H   H4006     1.0  0.69324  0.68928  0.43294  1.0000
  C   C4000     1.0  0.61349  0.70088  0.39414  1.0000
  S   S1336     1.0  0.80944  0.73620  0.56908  1.0000
  C   C4001     1.0  0.74012  0.50415  0.57383  1.0000
  H   H4007     1.0  0.67578  0.64627  0.38954  1.0000
  C   C4002     1.0  0.79438  0.65395  0.54418  1.0000
  H   H4008     1.0  0.73016  0.79142  0.53408  1.0000
  H   H4009     1.0  0.63048  0.82283  0.53954  1.0000
  H   H4010     1.0  0.61437  0.69742  0.40573  1.0000
  S   S1337     1.0  0.84974  0.72476  0.57590  1.0000
  S   S1338     1.0  0.78516  0.70618  0.57080  1.0000
  C   C4003     1.0  0.77717  0.77668  0.57937  1.0000
  H   H4011     1.0  0.75270  0.64140  0.55613  1.0000
  Fe  Fe669     1.0  0.75939  0.65326  0.51378  1.0000
  S   S1339     1.0  0.77215  0.66619  0.49440  1.0000
  S   S1340     1.0  0.76888  0.63042  0.52388  1.0000
  Fe  Fe670     1.0  0.73551  0.67904  0.51854  1.0000
  S   S1341     1.0  0.74637  0.69388  0.49980  1.0000
  S   S1342     1.0  0.71384  0.68633  0.53214  1.0000
  Fe  Fe671     1.0  0.75075  0.67604  0.48766  1.0000
  S   S1343     1.0  0.74290  0.68416  0.46625  1.0000
  Fe  Fe672     1.0  0.76641  0.68279  0.50834  1.0000
  S   S1344     1.0  0.78255  0.69486  0.51010  1.0000
  S   S1345     1.0  0.73852  0.66184  0.50618  1.0000
  S   S1346     1.0  0.75515  0.66916  0.52795  1.0000
  H   H4012     1.0  0.64539  0.79469  0.39706  1.0000
  C   C4004     1.0  0.71358  0.79242  0.52279  1.0000
  H   H4013     1.0  0.80204  0.67378  0.49398  1.0000
  H   H4014     1.0  0.73136  0.50841  0.56810  1.0000
  H   H4015     1.0  0.63927  0.80424  0.58173  1.0000
  Fe  Fe673     1.0  0.72682  0.81437  0.56364  1.0000
  S   S1347     1.0  0.71894  0.83838  0.55729  1.0000
  S   S1348     1.0  0.74530  0.80114  0.55057  1.0000
  C   C4005     1.0  0.63779  0.82862  0.56175  1.0000
  C   C4006     1.0  0.63646  0.80331  0.57210  1.0000
  Fe  Fe674     1.0  0.69737  0.83250  0.56122  1.0000
  S   S1349     1.0  0.68187  0.84283  0.54612  1.0000
  C   C4007     1.0  0.71698  0.73985  0.48147  1.0000
  S   S1350     1.0  0.70567  0.80868  0.56583  1.0000
  Fe  Fe675     1.0  0.64415  0.76364  0.53028  1.0000
  S   S1351     1.0  0.63755  0.78061  0.51142  1.0000
  S   S1352     1.0  0.62920  0.75267  0.54909  1.0000
  Fe  Fe676     1.0  0.67614  0.76264  0.51792  1.0000
  S   S1353     1.0  0.67213  0.77950  0.49814  1.0000
  S   S1354     1.0  0.69928  0.75433  0.51957  1.0000
  Fe  Fe677     1.0  0.65475  0.79063  0.51404  1.0000
  S   S1355     1.0  0.65188  0.81426  0.51377  1.0000
  Fe  Fe678     1.0  0.65569  0.76773  0.49740  1.0000
  S   S1356     1.0  0.65717  0.75684  0.47903  1.0000
  S   S1357     1.0  0.65995  0.77454  0.53383  1.0000
  S   S1358     1.0  0.66101  0.74999  0.51632  1.0000
  Fe  Fe679     1.0  0.74352  0.66193  0.39313  1.0000
  C   C4008     1.0  0.79184  0.64581  0.53570  1.0000
  S   S1359     1.0  0.75611  0.65538  0.41123  1.0000
  H   H4016     1.0  0.68810  0.69193  0.39115  1.0000
  H   H4017     1.0  0.80805  0.65495  0.49319  1.0000
  N   N335      1.0  0.60128  0.75725  0.52170  1.0000
  H   H4018     1.0  0.62380  0.70386  0.38766  1.0000
  H   H4019     1.0  0.63599  0.83728  0.55204  1.0000
  C   C4009     1.0  0.58831  0.76256  0.57146  1.0000
  S   S1360     1.0  0.69212  0.66069  0.40242  1.0000
  C   C4010     1.0  0.74154  0.61282  0.58064  1.0000
  S   S1361     1.0  0.73082  0.64606  0.39294  1.0000
  C   C4011     1.0  0.59106  0.71323  0.38553  1.0000
  S   S1362     1.0  0.72539  0.68128  0.39059  1.0000
  H   H4020     1.0  0.72842  0.71256  0.47827  1.0000
  Fe  Fe680     1.0  0.63530  0.76282  0.40613  1.0000
  S   S1363     1.0  0.65459  0.74464  0.40413  1.0000
  S   S1364     1.0  0.63063  0.77742  0.42218  1.0000
  N   N336      1.0  0.71028  0.72728  0.48754  1.0000
  H   H4021     1.0  0.72444  0.61513  0.38513  1.0000
  Fe  Fe681     1.0  0.63968  0.73300  0.40015  1.0000
  S   S1365     1.0  0.63686  0.71040  0.41044  1.0000
  C   C4012     1.0  0.80191  0.66500  0.53756  1.0000
  S   S1366     1.0  0.61999  0.75042  0.40403  1.0000
  C   C4013     1.0  0.60141  0.72545  0.39689  1.0000
  C   C4014     1.0  0.61977  0.75709  0.49999  1.0000
  C   C4015     1.0  0.62355  0.73974  0.52200  1.0000
  C   C4016     1.0  0.57996  0.73786  0.38764  1.0000
  C   C4017     1.0  0.60977  0.74573  0.52900  1.0000
  H   H4022     1.0  0.58146  0.75739  0.58093  1.0000
  C   C4018     1.0  0.60608  0.76290  0.50735  1.0000
  C   C4019     1.0  0.63434  0.79000  0.57139  1.0000
  H   H4023     1.0  0.79037  0.65183  0.55583  1.0000
  C   C4020     1.0  0.75075  0.62195  0.57232  1.0000
  H   H4024     1.0  0.76833  0.74226  0.57382  1.0000
  H   H4025     1.0  0.71402  0.65384  0.55348  1.0000
  C   C4021     1.0  0.67710  0.67495  0.40397  1.0000
  C   C4022     1.0  0.67798  0.68933  0.39753  1.0000
  C   C4023     1.0  0.66564  0.70042  0.39943  1.0000
  C   C4024     1.0  0.65253  0.69703  0.40772  1.0000
  C   C4025     1.0  0.65175  0.68265  0.41405  1.0000
  C   C4026     1.0  0.66400  0.67165  0.41220  1.0000
  H   H4026     1.0  0.63560  0.78078  0.58035  1.0000
  C   C4027     1.0  0.80681  0.66775  0.52249  1.0000
  H   H4027     1.0  0.64167  0.68001  0.42050  1.0000
  H   H4028     1.0  0.66331  0.66055  0.41725  1.0000
  H   H4029     1.0  0.73616  0.64016  0.45481  1.0000
  H   H4030     1.0  0.73121  0.76128  0.56943  1.0000
  Fe  Fe682     1.0  0.79930  0.71661  0.57835  1.0000
  H   H4031     1.0  0.67783  0.77681  0.40617  1.0000
  C   C4028     1.0  0.72593  0.65135  0.55210  1.0000
  H   H4032     1.0  0.81216  0.67674  0.51735  1.0000
  H   H4033     1.0  0.57187  0.74759  0.38532  1.0000
  S   S1367     1.0  0.72732  0.58899  0.56321  1.0000
  C   C4029     1.0  0.68996  0.71718  0.50173  1.0000
  H   H4034     1.0  0.69055  0.73967  0.49727  1.0000
  C   C4030     1.0  0.72663  0.89152  0.57713  1.0000
  H   H4035     1.0  0.71099  0.63155  0.56905  1.0000
  C   C4031     1.0  0.64967  0.76306  0.46331  1.0000
  C   C4032     1.0  0.65231  0.75361  0.45388  1.0000
  C   C4033     1.0  0.64651  0.75787  0.44130  1.0000
  C   C4034     1.0  0.63798  0.77167  0.43801  1.0000
  C   C4035     1.0  0.63530  0.78115  0.44746  1.0000
  C   C4036     1.0  0.64111  0.77688  0.46008  1.0000
  H   H4036     1.0  0.65886  0.74288  0.45631  1.0000
  H   H4037     1.0  0.64858  0.75043  0.43422  1.0000
  H   H4038     1.0  0.62872  0.79186  0.44499  1.0000
  H   H4039     1.0  0.63902  0.78427  0.46723  1.0000
  C   C4037     1.0  0.67368  0.83384  0.53802  1.0000
  C   C4038     1.0  0.66585  0.84236  0.52760  1.0000
  C   C4039     1.0  0.65932  0.83609  0.52042  1.0000
  C   C4040     1.0  0.66048  0.82114  0.52350  1.0000
  C   C4041     1.0  0.66806  0.81244  0.53420  1.0000
  C   C4042     1.0  0.67469  0.81880  0.54146  1.0000
  H   H4040     1.0  0.66492  0.85397  0.52492  1.0000
  H   H4041     1.0  0.65341  0.84292  0.51230  1.0000
  H   H4042     1.0  0.66881  0.80089  0.53688  1.0000
  H   H4043     1.0  0.68060  0.81212  0.54962  1.0000
  H   H4044     1.0  0.58516  0.75957  0.54107  1.0000
  C   C4043     1.0  0.74625  0.48929  0.57601  1.0000
  N   N337      1.0  0.73117  0.63813  0.56213  1.0000
  Fe  Fe683     1.0  0.73493  0.57224  0.58209  1.0000
  H   H4045     1.0  0.66035  0.77383  0.40721  1.0000
  H   H4046     1.0  0.78592  0.63723  0.54067  1.0000
  C   C4044     1.0  0.69628  0.67896  0.42912  1.0000
  H   H4047     1.0  0.87926  0.72558  0.57190  1.0000
  C   C4045     1.0  0.65448  0.79774  0.38878  1.0000
  H   H4048     1.0  0.70624  0.83377  0.51879  1.0000
  C   C4046     1.0  0.74733  0.67624  0.45079  1.0000
  C   C4047     1.0  0.75718  0.66314  0.44995  1.0000
  C   C4048     1.0  0.75999  0.65709  0.43762  1.0000
  C   C4049     1.0  0.75282  0.66393  0.42610  1.0000
  C   C4050     1.0  0.74297  0.67704  0.42693  1.0000
  C   C4051     1.0  0.74034  0.68320  0.43916  1.0000
  H   H4049     1.0  0.76269  0.65767  0.45877  1.0000
  H   H4050     1.0  0.76766  0.64697  0.43707  1.0000
  H   H4051     1.0  0.73745  0.68248  0.41813  1.0000
  H   H4052     1.0  0.73276  0.69338  0.43964  1.0000
  C   C4052     1.0  0.71000  0.70513  0.53062  1.0000
  C   C4053     1.0  0.69575  0.71253  0.53427  1.0000
  C   C4054     1.0  0.69243  0.72770  0.53146  1.0000
  C   C4055     1.0  0.70338  0.73545  0.52504  1.0000
  C   C4056     1.0  0.71770  0.72803  0.52218  1.0000
  C   C4057     1.0  0.72100  0.71289  0.52502  1.0000
  H   H4053     1.0  0.68723  0.70656  0.53889  1.0000
  H   H4054     1.0  0.68140  0.73336  0.53417  1.0000
  H   H4055     1.0  0.72624  0.73396  0.51750  1.0000
  H   H4056     1.0  0.73209  0.70725  0.52293  1.0000
  C   C4058     1.0  0.73478  0.76285  0.57839  1.0000
  C   C4059     1.0  0.87342  0.73058  0.58099  1.0000
  H   H4057     1.0  0.75286  0.80834  0.57390  1.0000
  C   C4060     1.0  0.75845  0.79235  0.56082  1.0000
  C   C4061     1.0  0.76756  0.77929  0.55814  1.0000
  C   C4062     1.0  0.77695  0.77143  0.56744  1.0000
  H   H4058     1.0  0.75288  0.73477  0.57602  1.0000
  C   C4063     1.0  0.84515  0.76955  0.57665  1.0000
  H   H4059     1.0  0.76709  0.77510  0.54912  1.0000
  H   H4060     1.0  0.78376  0.76120  0.56558  1.0000
  C   C4064     1.0  0.78468  0.70354  0.55363  1.0000
  C   C4065     1.0  0.79455  0.70770  0.54093  1.0000
  C   C4066     1.0  0.79366  0.70518  0.52762  1.0000
  C   C4067     1.0  0.78291  0.69851  0.52689  1.0000
  C   C4068     1.0  0.77306  0.69439  0.53960  1.0000
  C   C4069     1.0  0.77397  0.69687  0.55286  1.0000
  H   H4061     1.0  0.80286  0.71285  0.54134  1.0000
  H   H4062     1.0  0.80133  0.70843  0.51786  1.0000
  H   H4063     1.0  0.76468  0.68935  0.53924  1.0000
  H   H4064     1.0  0.76624  0.69366  0.56260  1.0000
  C   C4070     1.0  0.69451  0.79461  0.51013  1.0000
  C   C4071     1.0  0.72774  0.64784  0.44984  1.0000
  H   H4065     1.0  0.60667  0.74489  0.57296  1.0000
  H   H4066     1.0  0.72893  0.73655  0.47904  1.0000
  H   H4067     1.0  0.69225  0.82288  0.50852  1.0000
  C   C4072     1.0  0.72712  0.61641  0.57956  1.0000
  H   H4068     1.0  0.63920  0.74090  0.50184  1.0000
  H   H4069     1.0  0.76208  0.61893  0.57275  1.0000
  H   H4070     1.0  0.79450  0.64272  0.51414  1.0000
  C   C4073     1.0  0.80889  0.66340  0.49842  1.0000
  C   C4074     1.0  0.60257  0.75549  0.56691  1.0000
  H   H4071     1.0  0.73636  0.88412  0.57238  1.0000
  C   C4075     1.0  0.58292  0.77622  0.56371  1.0000
  H   H4072     1.0  0.86785  0.76506  0.56702  1.0000
  H   H4073     1.0  0.73068  0.65023  0.54072  1.0000
  C   C4076     1.0  0.61150  0.76204  0.55463  1.0000
  C   C4077     1.0  0.60614  0.77573  0.54688  1.0000
  C   C4078     1.0  0.59188  0.78284  0.55146  1.0000
  H   H4074     1.0  0.84252  0.76353  0.57017  1.0000
  N   N338      1.0  0.80421  0.65978  0.51425  1.0000
  H   H4075     1.0  0.61291  0.78080  0.53732  1.0000
  H   H4076     1.0  0.58772  0.79342  0.54543  1.0000
  C   C4079     1.0  0.71502  0.65686  0.43017  1.0000
  C   C4080     1.0  0.73918  0.59992  0.55161  1.0000
  C   C4081     1.0  0.75375  0.59672  0.55218  1.0000
  C   C4082     1.0  0.76282  0.60598  0.54335  1.0000
  C   C4083     1.0  0.75735  0.61861  0.53403  1.0000
  C   C4084     1.0  0.74282  0.62174  0.53327  1.0000
  C   C4085     1.0  0.73379  0.61237  0.54198  1.0000
  H   H4077     1.0  0.75809  0.58709  0.55938  1.0000
  H   H4078     1.0  0.77408  0.60339  0.54389  1.0000
  H   H4079     1.0  0.73857  0.63128  0.52587  1.0000
  H   H4080     1.0  0.72255  0.61482  0.54136  1.0000
  H   H4081     1.0  0.59934  0.77199  0.50153  1.0000
  H   H4082     1.0  0.73210  0.63780  0.43155  1.0000
  C   C4086     1.0  0.71151  0.70182  0.49121  1.0000
  C   C4087     1.0  0.74538  0.63461  0.56299  1.0000
  C   C4088     1.0  0.58677  0.76334  0.52907  1.0000
  C   C4089     1.0  0.74525  0.51357  0.57896  1.0000
  H   H4083     1.0  0.71409  0.74700  0.48941  1.0000
  C   C4090     1.0  0.63079  0.78862  0.55900  1.0000
  N   N339      1.0  0.63508  0.81494  0.56079  1.0000
  H   H4084     1.0  0.72550  0.81801  0.53143  1.0000
  C   C4091     1.0  0.71961  0.65947  0.45610  1.0000
  H   H4085     1.0  0.69302  0.69403  0.50517  1.0000
  H   H4086     1.0  0.82028  0.66458  0.49538  1.0000
  H   H4087     1.0  0.72891  0.66082  0.55390  1.0000
  C   C4092     1.0  0.79679  0.64894  0.52065  1.0000
  H   H4088     1.0  0.62366  0.76162  0.48863  1.0000
  C   C4093     1.0  0.72209  0.62914  0.57016  1.0000
  H   H4089     1.0  0.62678  0.79954  0.53771  1.0000
  H   H4090     1.0  0.80359  0.67171  0.54397  1.0000
  H   H4091     1.0  0.67920  0.71858  0.50844  1.0000
  H   H4092     1.0  0.70036  0.68160  0.41719  1.0000
  H   H4093     1.0  0.68581  0.80276  0.50539  1.0000
  C   C4094     1.0  0.70068  0.81589  0.51395  1.0000
  C   C4095     1.0  0.71763  0.71396  0.48495  1.0000
  Fe  Fe684     1.0  0.71324  0.66552  0.38911  1.0000
  N   N340      1.0  0.70724  0.66836  0.43626  1.0000
  H   H4094     1.0  0.58490  0.77533  0.52684  1.0000
  H   H4095     1.0  0.60611  0.74131  0.54042  1.0000
  C   C4096     1.0  0.85951  0.77044  0.57475  1.0000
  H   H4096     1.0  0.68650  0.67447  0.43120  1.0000
  C   C4097     1.0  0.69646  0.72906  0.49545  1.0000
  C   C4098     1.0  0.72545  0.64650  0.43679  1.0000
  H   H4097     1.0  0.71327  0.74605  0.47136  1.0000
  H   H4098     1.0  0.70327  0.67884  0.45393  1.0000
  H   H4099     1.0  0.63042  0.73096  0.52800  1.0000
  H   H4100     1.0  0.72169  0.66085  0.46598  1.0000
  C   C4099     1.0  0.62852  0.74543  0.50739  1.0000
  C   C4100     1.0  0.71929  0.81330  0.52690  1.0000
  C   C4101     1.0  0.70933  0.66969  0.44913  1.0000
  H   H4101     1.0  0.74047  0.52498  0.57713  1.0000
  C   C4102     1.0  0.75932  0.79792  0.57225  1.0000
  H   H4102     1.0  0.75170  0.89715  0.57731  1.0000
  H   H4103     1.0  0.60983  0.72557  0.40209  1.0000
  N   N341      1.0  0.70311  0.80119  0.51572  1.0000
  H   H4104     1.0  0.66626  0.71156  0.39450  1.0000
  H   H4105     1.0  0.71761  0.69120  0.48958  1.0000
  C   C4103     1.0  0.75694  0.74496  0.57264  1.0000
  C   C4104     1.0  0.69767  0.70343  0.49982  1.0000
  C   C4105     1.0  0.72186  0.79834  0.52844  1.0000
  H   H4106     1.0  0.64917  0.82715  0.56252  1.0000
  C   C4106     1.0  0.76862  0.79007  0.58156  1.0000
  H   H4107     1.0  0.71821  0.88497  0.58209  1.0000
  H   H4108     1.0  0.63061  0.83234  0.57152  1.0000
  N   N342      1.0  0.74791  0.75543  0.58138  1.0000
  H   H4109     1.0  0.75703  0.74944  0.56092  1.0000
  Fe  Fe685     1.0  0.71429  0.83771  0.58137  1.0000
  H   H4110     1.0  0.67538  0.76665  0.39427  1.0000
  C   C4107     1.0  0.62928  0.80053  0.54754  1.0000
  C   C4108     1.0  0.58007  0.72543  0.38318  1.0000
  H   H4111     1.0  0.81380  0.78425  0.58237  1.0000
  H   H4112     1.0  0.87429  0.77798  0.58240  1.0000
  H   H4113     1.0  0.51237  0.73633  0.63498  1.0000
  H   H4114     1.0  0.98310  0.83045  0.68298  1.0000
  C   C4109     1.0  0.83393  0.72797  0.64253  1.0000
  H   H4115     1.0  0.66919  0.86392  0.64249  1.0000
  C   C4110     1.0  0.82683  0.85178  0.63746  1.0000
  H   H4116     1.0  0.55975  0.58776  0.73074  1.0000
  H   H4117     1.0  0.81229  0.82880  0.61511  1.0000
  H   H4118     1.0  0.81411  0.77347  0.60045  1.0000
  N   N343      1.0  0.72085  0.58610  0.64908  1.0000
  H   H4119     1.0  0.50636  0.65907  0.68824  1.0000
  C   C4111     1.0  0.87327  0.71452  0.62899  1.0000
  Fe  Fe686     1.0  0.71624  0.62636  0.75309  1.0000
  S   S1368     1.0  0.70328  0.64895  0.75201  1.0000
  S   S1369     1.0  0.71441  0.61428  0.73688  1.0000
  C   C4112     1.0  0.77326  0.73188  0.76105  1.0000
  S   S1370     1.0  0.72382  0.81405  0.58735  1.0000
  H   H4120     1.0  0.69500  0.85355  0.63403  1.0000
  Fe  Fe687     1.0  0.72399  0.65531  0.74996  1.0000
  S   S1371     1.0  0.72943  0.67518  0.73409  1.0000
  S   S1372     1.0  0.73737  0.63304  0.74944  1.0000
  Fe  Fe688     1.0  0.63241  0.57814  0.71208  1.0000
  S   S1373     1.0  0.64411  0.56118  0.72783  1.0000
  S   S1374     1.0  0.60866  0.58533  0.72046  1.0000
  Fe  Fe689     1.0  0.66005  0.58159  0.69026  1.0000
  S   S1375     1.0  0.67388  0.56528  0.70450  1.0000
  S   S1376     1.0  0.67048  0.59302  0.66855  1.0000
  Fe  Fe690     1.0  0.65700  0.55215  0.70832  1.0000
  S   S1377     1.0  0.66457  0.52866  0.70606  1.0000
  Fe  Fe691     1.0  0.65958  0.57608  0.72243  1.0000
  S   S1378     1.0  0.66394  0.58296  0.74109  1.0000
  S   S1379     1.0  0.64402  0.56800  0.69294  1.0000
  S   S1380     1.0  0.64708  0.59345  0.70772  1.0000
  H   H4121     1.0  0.74484  0.92104  0.67170  1.0000
  Fe  Fe692     1.0  0.89987  0.74959  0.77738  1.0000
  S   S1381     1.0  0.89045  0.76974  0.76285  1.0000
  S   S1382     1.0  0.91594  0.73154  0.76856  1.0000
  Fe  Fe693     1.0  0.84073  0.68390  0.74799  1.0000
  S   S1383     1.0  0.83634  0.69874  0.72715  1.0000
  S   S1384     1.0  0.84485  0.69627  0.76269  1.0000
  Fe  Fe694     1.0  0.82886  0.66056  0.74154  1.0000
  S   S1385     1.0  0.82355  0.67414  0.72062  1.0000
  S   S1386     1.0  0.82324  0.63860  0.74919  1.0000
  Fe  Fe695     1.0  0.84513  0.67930  0.71729  1.0000
  S   S1387     1.0  0.85976  0.68143  0.69545  1.0000
  Fe  Fe696     1.0  0.81530  0.69193  0.73290  1.0000
  S   S1388     1.0  0.79510  0.70872  0.73055  1.0000
  S   S1389     1.0  0.85127  0.66462  0.73757  1.0000
  S   S1390     1.0  0.81899  0.67802  0.75427  1.0000
  Fe  Fe697     1.0  0.76588  0.64075  0.67569  1.0000
  S   S1391     1.0  0.76242  0.62052  0.69208  1.0000
  S   S1392     1.0  0.74986  0.66155  0.67165  1.0000
  Fe  Fe698     1.0  0.79739  0.62911  0.66609  1.0000
  S   S1393     1.0  0.79685  0.60751  0.68128  1.0000
  S   S1394     1.0  0.81691  0.63608  0.65066  1.0000
  Fe  Fe699     1.0  0.77620  0.60905  0.67449  1.0000
  S   S1395     1.0  0.76916  0.58952  0.67245  1.0000
  Fe  Fe700     1.0  0.78317  0.62065  0.69755  1.0000
  S   S1396     1.0  0.78576  0.61446  0.72080  1.0000
  S   S1397     1.0  0.77813  0.62944  0.65766  1.0000
  S   S1398     1.0  0.78518  0.64198  0.68294  1.0000
  Fe  Fe701     1.0  0.75000  0.56949  0.60638  1.0000
  S   S1399     1.0  0.72725  0.57867  0.60367  1.0000
  S   S1400     1.0  0.75915  0.58589  0.61183  1.0000
  Fe  Fe702     1.0  0.72359  0.55616  0.61270  1.0000
  S   S1401     1.0  0.70571  0.54789  0.62993  1.0000
  S   S1402     1.0  0.74572  0.54739  0.61735  1.0000
  Fe  Fe703     1.0  0.62804  0.71259  0.75577  1.0000
  S   S1403     1.0  0.65038  0.70135  0.74706  1.0000
  Fe  Fe704     1.0  0.61002  0.74302  0.75377  1.0000
  C   C4113     1.0  0.75683  0.85824  0.58672  1.0000
  S   S1404     1.0  0.60809  0.76685  0.74514  1.0000
  Fe  Fe705     1.0  0.59601  0.71786  0.75638  1.0000
  S   S1405     1.0  0.71351  0.62133  0.77745  1.0000
  S   S1406     1.0  0.62570  0.73003  0.76758  1.0000
  S   S1407     1.0  0.61426  0.72652  0.74035  1.0000
  Fe  Fe706     1.0  0.55424  0.65253  0.69806  1.0000
  S   S1408     1.0  0.54321  0.64338  0.72051  1.0000
  S   S1409     1.0  0.57167  0.63860  0.68459  1.0000
  Fe  Fe707     1.0  0.53699  0.68282  0.69958  1.0000
  S   S1410     1.0  0.52472  0.67566  0.72209  1.0000
  S   S1411     1.0  0.53154  0.70673  0.69101  1.0000
  Fe  Fe708     1.0  0.54637  0.66296  0.72618  1.0000
  S   S1412     1.0  0.55535  0.66210  0.74560  1.0000
  Fe  Fe709     1.0  0.52294  0.65711  0.71367  1.0000
  H   H4122     1.0  0.73695  0.96431  0.74104  1.0000
  S   S1413     1.0  0.55869  0.67116  0.70409  1.0000
  S   S1414     1.0  0.53379  0.66518  0.69078  1.0000
  H   H4123     1.0  0.50624  0.70742  0.67652  1.0000
  Fe  Fe710     1.0  0.74285  0.92371  0.75594  1.0000
  S   S1415     1.0  0.75774  0.92147  0.73452  1.0000
  S   S1416     1.0  0.72089  0.93760  0.75546  1.0000
  Fe  Fe711     1.0  0.67834  0.88035  0.71140  1.0000
  S   S1417     1.0  0.69771  0.86546  0.70133  1.0000
  S   S1418     1.0  0.68275  0.90052  0.71514  1.0000
  Fe  Fe712     1.0  0.65785  0.86202  0.71020  1.0000
  S   S1419     1.0  0.67577  0.84604  0.70002  1.0000
  S   S1420     1.0  0.63634  0.85582  0.71476  1.0000
  Fe  Fe713     1.0  0.68731  0.84778  0.71615  1.0000
  S   S1421     1.0  0.69889  0.82781  0.72902  1.0000
  Fe  Fe714     1.0  0.68400  0.86542  0.68624  1.0000
  S   S1422     1.0  0.69291  0.86694  0.66235  1.0000
  S   S1423     1.0  0.66887  0.86251  0.72754  1.0000
  S   S1424     1.0  0.66522  0.88156  0.69509  1.0000
  Fe  Fe715     1.0  0.58866  0.81746  0.65527  1.0000
  S   S1425     1.0  0.60224  0.79754  0.64781  1.0000
  S   S1426     1.0  0.56451  0.82172  0.65976  1.0000
  Fe  Fe716     1.0  0.61439  0.82900  0.65599  1.0000
  S   S1427     1.0  0.62989  0.80988  0.64860  1.0000
  S   S1428     1.0  0.62612  0.84546  0.65713  1.0000
  Fe  Fe717     1.0  0.61593  0.81259  0.63295  1.0000
  S   S1429     1.0  0.62546  0.81209  0.60957  1.0000
  Fe  Fe718     1.0  0.61475  0.79683  0.66425  1.0000
  S   S1430     1.0  0.62441  0.77565  0.67716  1.0000
  S   S1431     1.0  0.60141  0.83278  0.63899  1.0000
  S   S1432     1.0  0.60012  0.81574  0.67301  1.0000
  Fe  Fe719     1.0  0.53559  0.78025  0.61818  1.0000
  S   S1433     1.0  0.55896  0.77151  0.61031  1.0000
  S   S1434     1.0  0.52735  0.79793  0.63082  1.0000
  Fe  Fe720     1.0  0.55262  0.74997  0.61664  1.0000
  S   S1435     1.0  0.56485  0.72892  0.62765  1.0000
  S   S1436     1.0  0.52972  0.75861  0.62637  1.0000
  Fe  Fe721     1.0  0.94776  0.84541  0.68832  1.0000
  S   S1437     1.0  0.93416  0.84184  0.71080  1.0000
  S   S1438     1.0  0.96449  0.85878  0.68518  1.0000
  Fe  Fe722     1.0  0.92938  0.83128  0.67699  1.0000
  S   S1439     1.0  0.91477  0.82678  0.69877  1.0000
  S   S1440     1.0  0.92619  0.82482  0.65746  1.0000
  Fe  Fe723     1.0  0.91524  0.84925  0.69991  1.0000
  S   S1441     1.0  0.89535  0.86426  0.70956  1.0000
  Fe  Fe724     1.0  0.93510  0.81994  0.70733  1.0000
  S   S1442     1.0  0.94119  0.79946  0.72344  1.0000
  S   S1443     1.0  0.92864  0.85432  0.67753  1.0000
  S   S1444     1.0  0.94996  0.82288  0.68545  1.0000
  Fe  Fe725     1.0  0.85108  0.78846  0.63323  1.0000
  S   S1445     1.0  0.83724  0.80752  0.62144  1.0000
  Fe  Fe726     1.0  0.85142  0.75975  0.65477  1.0000
  S   S1446     1.0  0.87543  0.75304  0.64908  1.0000
  S   S1447     1.0  0.83587  0.74679  0.67020  1.0000
  Fe  Fe727     1.0  0.87546  0.77590  0.64960  1.0000
  S   S1448     1.0  0.88663  0.78059  0.66496  1.0000
  H   H4124     1.0  0.64292  0.85748  0.76788  1.0000
  S   S1449     1.0  0.85145  0.78186  0.65690  1.0000
  S   S1450     1.0  0.84861  0.76696  0.63185  1.0000
  Fe  Fe728     1.0  0.82003  0.94557  0.68037  1.0000
  S   S1451     1.0  0.83362  0.92673  0.69254  1.0000
  S   S1452     1.0  0.80106  0.94186  0.67389  1.0000
  Fe  Fe729     1.0  0.83318  0.96752  0.68763  1.0000
  S   S1453     1.0  0.84755  0.95012  0.70069  1.0000
  H   H4125     1.0  0.60362  0.74455  0.71385  1.0000
  Fe  Fe730     1.0  0.85152  0.93857  0.68245  1.0000
  S   S1454     1.0  0.87315  0.92601  0.67294  1.0000
  Fe  Fe731     1.0  0.82829  0.93984  0.70950  1.0000
  S   S1455     1.0  0.81938  0.93017  0.73259  1.0000
  S   S1456     1.0  0.83839  0.95669  0.66859  1.0000
  S   S1457     1.0  0.81361  0.95806  0.69806  1.0000
  Fe  Fe732     1.0  0.75838  0.89212  0.64279  1.0000
  S   S1458     1.0  0.77071  0.90089  0.62085  1.0000
  S   S1459     1.0  0.73757  0.90522  0.65268  1.0000
  Fe  Fe733     1.0  0.78032  0.86405  0.64687  1.0000
  S   S1460     1.0  0.78658  0.84247  0.66117  1.0000
  Fe  Fe734     1.0  0.78987  0.89210  0.63149  1.0000
  S   S1461     1.0  0.80872  0.90209  0.62941  1.0000
  C   C4114     1.0  0.53456  0.71891  0.62164  1.0000
  S   S1462     1.0  0.77719  0.88488  0.65374  1.0000
  S   S1463     1.0  0.76004  0.87029  0.63855  1.0000
  C   C4115     1.0  0.80349  0.93104  0.66125  1.0000
  C   C4116     1.0  0.79160  0.92636  0.66015  1.0000
  C   C4117     1.0  0.79313  0.91747  0.65045  1.0000
  C   C4118     1.0  0.80656  0.91329  0.64166  1.0000
  C   C4119     1.0  0.81845  0.91807  0.64267  1.0000
  C   C4120     1.0  0.81694  0.92688  0.65249  1.0000
  H   H4126     1.0  0.78116  0.92970  0.66678  1.0000
  H   H4127     1.0  0.78385  0.91407  0.64957  1.0000
  H   H4128     1.0  0.82883  0.91500  0.63578  1.0000
  H   H4129     1.0  0.82613  0.93058  0.65317  1.0000
  C   C4121     1.0  0.82219  0.81581  0.63285  1.0000
  C   C4122     1.0  0.82104  0.81258  0.64789  1.0000
  C   C4123     1.0  0.80966  0.82031  0.65672  1.0000
  C   C4124     1.0  0.79940  0.83129  0.65050  1.0000
  C   C4125     1.0  0.80010  0.83398  0.63557  1.0000
  C   C4126     1.0  0.81156  0.82636  0.62673  1.0000
  H   H4130     1.0  0.82913  0.80450  0.65271  1.0000
  H   H4131     1.0  0.80910  0.81812  0.66829  1.0000
  C   C4127     1.0  0.87835  0.90839  0.68277  1.0000
  C   C4128     1.0  0.87152  0.90404  0.69719  1.0000
  C   C4129     1.0  0.87664  0.89030  0.70519  1.0000
  C   C4130     1.0  0.88850  0.88083  0.69879  1.0000
  C   C4131     1.0  0.89494  0.88499  0.68421  1.0000
  C   C4132     1.0  0.88989  0.89876  0.67623  1.0000
  H   H4132     1.0  0.86264  0.91144  0.70233  1.0000
  H   H4133     1.0  0.87163  0.88713  0.71649  1.0000
  H   H4134     1.0  0.90397  0.87773  0.67913  1.0000
  H   H4135     1.0  0.89510  0.90203  0.66501  1.0000
  C   C4133     1.0  0.91368  0.81406  0.65918  1.0000
  C   C4134     1.0  0.90477  0.80969  0.67252  1.0000
  C   C4135     1.0  0.89590  0.80008  0.67388  1.0000
  C   C4136     1.0  0.89581  0.79472  0.66193  1.0000
  C   C4137     1.0  0.90424  0.79953  0.64841  1.0000
  C   C4138     1.0  0.91317  0.80914  0.64707  1.0000
  H   H4136     1.0  0.90493  0.81343  0.68190  1.0000
  H   H4137     1.0  0.88943  0.79641  0.68438  1.0000
  H   H4138     1.0  0.90439  0.79536  0.63915  1.0000
  H   H4139     1.0  0.92002  0.81247  0.63669  1.0000
  C   C4139     1.0  0.64405  0.80642  0.60841  1.0000
  C   C4140     1.0  0.64953  0.79560  0.61933  1.0000
  C   C4141     1.0  0.66440  0.79177  0.61882  1.0000
  C   C4142     1.0  0.67376  0.79864  0.60728  1.0000
  H   H4140     1.0  0.74796  0.50026  0.62427  1.0000
  C   C4143     1.0  0.86312  0.77769  0.58336  1.0000
  H   H4141     1.0  0.64232  0.79020  0.62822  1.0000
  H   H4142     1.0  0.66861  0.78362  0.62743  1.0000
  H   H4143     1.0  0.70664  0.50496  0.60235  1.0000
  C   C4144     1.0  0.55492  0.81415  0.65178  1.0000
  C   C4145     1.0  0.54039  0.82051  0.65210  1.0000
  C   C4146     1.0  0.53220  0.81525  0.64574  1.0000
  C   C4147     1.0  0.53836  0.80346  0.63904  1.0000
  C   C4148     1.0  0.55290  0.79684  0.63883  1.0000
  C   C4149     1.0  0.56121  0.80220  0.64522  1.0000
  H   H4144     1.0  0.53543  0.82967  0.65721  1.0000
  H   H4145     1.0  0.52098  0.82039  0.64600  1.0000
  H   H4146     1.0  0.55773  0.78766  0.63376  1.0000
  H   H4147     1.0  0.57240  0.79713  0.64501  1.0000
  C   C4150     1.0  0.70347  0.87991  0.65775  1.0000
  C   C4151     1.0  0.71481  0.87998  0.64564  1.0000
  C   C4152     1.0  0.72497  0.88835  0.64370  1.0000
  C   C4153     1.0  0.72362  0.89684  0.65364  1.0000
  C   C4154     1.0  0.71157  0.89774  0.66499  1.0000
  C   C4155     1.0  0.70158  0.88915  0.66713  1.0000
  H   H4148     1.0  0.71614  0.87311  0.63818  1.0000
  H   H4149     1.0  0.73394  0.88811  0.63460  1.0000
  H   H4150     1.0  0.71018  0.90462  0.67249  1.0000
  H   H4151     1.0  0.69257  0.88951  0.67625  1.0000
  C   C4156     1.0  0.63284  0.85335  0.69887  1.0000
  C   C4157     1.0  0.62201  0.84611  0.69964  1.0000
  C   C4158     1.0  0.61983  0.84344  0.68695  1.0000
  C   C4159     1.0  0.62830  0.84829  0.67345  1.0000
  C   C4160     1.0  0.63896  0.85566  0.67274  1.0000
  C   C4161     1.0  0.64133  0.85804  0.68538  1.0000
  H   H4152     1.0  0.61540  0.84247  0.71007  1.0000
  H   H4153     1.0  0.61145  0.83790  0.68759  1.0000
  H   H4154     1.0  0.64543  0.85961  0.66237  1.0000
  H   H4155     1.0  0.64965  0.86369  0.68463  1.0000
  C   C4162     1.0  0.77537  0.92220  0.73428  1.0000
  C   C4163     1.0  0.77993  0.92048  0.74717  1.0000
  C   C4164     1.0  0.79374  0.92230  0.74668  1.0000
  C   C4165     1.0  0.80292  0.92597  0.73330  1.0000
  C   C4166     1.0  0.79850  0.92717  0.72046  1.0000
  C   C4167     1.0  0.78481  0.92519  0.72094  1.0000
  H   H4156     1.0  0.77285  0.91771  0.75751  1.0000
  H   H4157     1.0  0.79717  0.92120  0.75665  1.0000
  H   H4158     1.0  0.80545  0.92997  0.71007  1.0000
  H   H4159     1.0  0.78135  0.92654  0.71093  1.0000
  C   C4168     1.0  0.69304  0.90478  0.75692  1.0000
  C   C4169     1.0  0.68799  0.89267  0.75681  1.0000
  C   C4170     1.0  0.68500  0.89107  0.74404  1.0000
  C   C4171     1.0  0.68665  0.90179  0.73139  1.0000
  C   C4172     1.0  0.69161  0.91392  0.73155  1.0000
  C   C4173     1.0  0.69502  0.91531  0.74418  1.0000
  H   H4160     1.0  0.72153  0.86558  0.61513  1.0000
  H   H4161     1.0  0.68114  0.88172  0.74404  1.0000
  H   H4162     1.0  0.69285  0.92229  0.72182  1.0000
  H   H4163     1.0  0.69875  0.92474  0.74416  1.0000
  C   C4174     1.0  0.54196  0.71289  0.67402  1.0000
  C   C4175     1.0  0.55267  0.70328  0.66662  1.0000
  C   C4176     1.0  0.56002  0.70835  0.65251  1.0000
  C   C4177     1.0  0.55664  0.72298  0.64581  1.0000
  C   C4178     1.0  0.54634  0.73261  0.65348  1.0000
  C   C4179     1.0  0.53895  0.72757  0.66753  1.0000
  H   H4164     1.0  0.55512  0.69193  0.67164  1.0000
  H   H4165     1.0  0.56813  0.70089  0.64667  1.0000
  H   H4166     1.0  0.54416  0.74399  0.64868  1.0000
  H   H4167     1.0  0.53077  0.73506  0.67327  1.0000
  C   C4180     1.0  0.61370  0.77002  0.72629  1.0000
  C   C4181     1.0  0.62370  0.75941  0.71967  1.0000
  C   C4182     1.0  0.62701  0.76130  0.70453  1.0000
  C   C4183     1.0  0.62042  0.77386  0.69600  1.0000
  C   C4184     1.0  0.61078  0.78468  0.70263  1.0000
  C   C4185     1.0  0.60747  0.78280  0.71777  1.0000
  H   H4168     1.0  0.62889  0.74970  0.72620  1.0000
  H   H4169     1.0  0.63462  0.75296  0.69945  1.0000
  H   H4170     1.0  0.60564  0.79436  0.69619  1.0000
  H   H4171     1.0  0.59974  0.79105  0.72289  1.0000
  C   C4186     1.0  0.57598  0.69946  0.74422  1.0000
  C   C4187     1.0  0.57176  0.69850  0.73192  1.0000
  C   C4188     1.0  0.56587  0.68687  0.73211  1.0000
  C   C4189     1.0  0.56422  0.67598  0.74459  1.0000
  C   C4190     1.0  0.56907  0.67655  0.75669  1.0000
  C   C4191     1.0  0.57493  0.68827  0.75653  1.0000
  H   H4172     1.0  0.76799  0.63344  0.75620  1.0000
  H   H4173     1.0  0.61386  0.77303  0.76929  1.0000
  H   H4174     1.0  0.56784  0.66818  0.76641  1.0000
  C   C4192     1.0  0.65567  0.49457  0.73501  1.0000
  C   C4193     1.0  0.66064  0.81768  0.75015  1.0000
  C   C4194     1.0  0.67138  0.82366  0.73962  1.0000
  C   C4195     1.0  0.68582  0.81872  0.74076  1.0000
  H   H4175     1.0  0.82327  0.85113  0.62779  1.0000
  H   H4176     1.0  0.66840  0.83237  0.73086  1.0000
  H   H4177     1.0  0.77043  0.68201  0.65999  1.0000
  C   C4196     1.0  0.81411  0.65500  0.64575  1.0000
  C   C4197     1.0  0.81817  0.66185  0.63124  1.0000
  H   H4178     1.0  0.64360  0.83672  0.63001  1.0000
  C   C4198     1.0  0.80673  0.68521  0.63743  1.0000
  C   C4199     1.0  0.80352  0.67841  0.65203  1.0000
  C   C4200     1.0  0.80714  0.66335  0.65616  1.0000
  Fe  Fe735     1.0  0.71289  0.91931  0.77222  1.0000
  H   H4179     1.0  0.79785  0.68477  0.66014  1.0000
  H   H4180     1.0  0.80463  0.65827  0.66744  1.0000
  C   C4201     1.0  0.76654  0.58845  0.65554  1.0000
  C   C4202     1.0  0.76302  0.57596  0.65414  1.0000
  C   C4203     1.0  0.76092  0.57484  0.64078  1.0000
  C   C4204     1.0  0.76217  0.58631  0.62877  1.0000
  C   C4205     1.0  0.76564  0.59878  0.63021  1.0000
  C   C4206     1.0  0.76782  0.59986  0.64351  1.0000
  H   H4181     1.0  0.76213  0.56703  0.66338  1.0000
  H   H4182     1.0  0.75861  0.56503  0.63972  1.0000
  H   H4183     1.0  0.76669  0.60768  0.62096  1.0000
  H   H4184     1.0  0.77055  0.60950  0.64441  1.0000
  C   C4207     1.0  0.85335  0.69906  0.68668  1.0000
  C   C4208     1.0  0.86292  0.70791  0.67843  1.0000
  C   C4209     1.0  0.85765  0.72260  0.67313  1.0000
  C   C4210     1.0  0.84283  0.72832  0.67576  1.0000
  C   C4211     1.0  0.83327  0.71929  0.68344  1.0000
  C   C4212     1.0  0.83852  0.70473  0.68907  1.0000
  H   H4185     1.0  0.87440  0.70358  0.67677  1.0000
  H   H4186     1.0  0.86512  0.72951  0.66741  1.0000
  H   H4187     1.0  0.82179  0.72357  0.68524  1.0000
  H   H4188     1.0  0.83107  0.69793  0.69539  1.0000
  C   C4213     1.0  0.81271  0.63274  0.74062  1.0000
  C   C4214     1.0  0.80849  0.61960  0.74724  1.0000
  C   C4215     1.0  0.80020  0.61430  0.74099  1.0000
  C   C4216     1.0  0.79630  0.62186  0.72784  1.0000
  C   C4217     1.0  0.80056  0.63500  0.72102  1.0000
  C   C4218     1.0  0.80868  0.64050  0.72748  1.0000
  H   H4189     1.0  0.81149  0.61354  0.75738  1.0000
  H   H4190     1.0  0.79686  0.60421  0.74640  1.0000
  H   H4191     1.0  0.79744  0.64100  0.71093  1.0000
  H   H4192     1.0  0.81182  0.65064  0.72224  1.0000
  C   C4219     1.0  0.90440  0.77825  0.75196  1.0000
  C   C4220     1.0  0.91875  0.77100  0.75150  1.0000
  C   C4221     1.0  0.92993  0.77763  0.74270  1.0000
  C   C4222     1.0  0.92685  0.79164  0.73444  1.0000
  C   C4223     1.0  0.91252  0.79897  0.73488  1.0000
  C   C4224     1.0  0.90129  0.79225  0.74360  1.0000
  H   H4193     1.0  0.92129  0.76021  0.75785  1.0000
  H   H4194     1.0  0.94098  0.77184  0.74226  1.0000
  H   H4195     1.0  0.91007  0.80986  0.72866  1.0000
  H   H4196     1.0  0.89021  0.79793  0.74397  1.0000
  C   C4225     1.0  0.88585  0.69709  0.77632  1.0000
  C   C4226     1.0  0.56161  0.59857  0.70828  1.0000
  H   H4197     1.0  0.57799  0.68898  0.76615  1.0000
  C   C4227     1.0  0.86110  0.69653  0.76708  1.0000
  C   C4228     1.0  0.87331  0.68544  0.76552  1.0000
  C   C4229     1.0  0.88559  0.68566  0.77028  1.0000
  C   C4230     1.0  0.86146  0.81694  0.64718  1.0000
  C   C4231     1.0  0.54062  0.72643  0.71217  1.0000
  H   H4198     1.0  0.87319  0.67652  0.76102  1.0000
  C   C4232     1.0  0.83808  0.78314  0.59516  1.0000
  C   C4233     1.0  0.67927  0.58063  0.65737  1.0000
  C   C4234     1.0  0.68682  0.58540  0.64335  1.0000
  C   C4235     1.0  0.69472  0.57541  0.63471  1.0000
  C   C4236     1.0  0.69508  0.56066  0.64009  1.0000
  C   C4237     1.0  0.68729  0.55591  0.65400  1.0000
  C   C4238     1.0  0.67941  0.56589  0.66266  1.0000
  H   H4199     1.0  0.68665  0.59681  0.63922  1.0000
  H   H4200     1.0  0.70046  0.57915  0.62389  1.0000
  H   H4201     1.0  0.68776  0.54449  0.65827  1.0000
  H   H4202     1.0  0.67376  0.56213  0.67355  1.0000
  C   C4239     1.0  0.59948  0.60080  0.71026  1.0000
  C   C4240     1.0  0.58743  0.60933  0.71750  1.0000
  C   C4241     1.0  0.57941  0.62142  0.70967  1.0000
  C   C4242     1.0  0.58295  0.62470  0.69452  1.0000
  C   C4243     1.0  0.59513  0.61626  0.68726  1.0000
  C   C4244     1.0  0.60355  0.60444  0.69513  1.0000
  H   H4203     1.0  0.58432  0.60662  0.72921  1.0000
  H   H4204     1.0  0.57034  0.62796  0.71543  1.0000
  H   H4205     1.0  0.59799  0.61878  0.67552  1.0000
  H   H4206     1.0  0.61287  0.59787  0.68948  1.0000
  H   H4207     1.0  0.85502  0.78991  0.60027  1.0000
  C   C4245     1.0  0.68068  0.67561  0.76842  1.0000
  C   C4246     1.0  0.67367  0.68635  0.75851  1.0000
  C   C4247     1.0  0.65868  0.68919  0.76058  1.0000
  H   H4208     1.0  0.69230  0.67336  0.76663  1.0000
  H   H4209     1.0  0.67992  0.69227  0.74909  1.0000
  C   C4248     1.0  0.73385  0.67193  0.71653  1.0000
  C   C4249     1.0  0.73730  0.68286  0.70453  1.0000
  C   C4250     1.0  0.74161  0.67991  0.69053  1.0000
  C   C4251     1.0  0.74276  0.66596  0.68867  1.0000
  C   C4252     1.0  0.73904  0.65517  0.70064  1.0000
  C   C4253     1.0  0.73435  0.65823  0.71450  1.0000
  H   H4210     1.0  0.73681  0.69352  0.70607  1.0000
  H   H4211     1.0  0.74452  0.68828  0.68128  1.0000
  H   H4212     1.0  0.73960  0.64448  0.69920  1.0000
  H   H4213     1.0  0.73118  0.64990  0.72359  1.0000
  C   C4254     1.0  0.69991  0.60619  0.73811  1.0000
  C   C4255     1.0  0.68939  0.60422  0.75081  1.0000
  C   C4256     1.0  0.67837  0.59719  0.75150  1.0000
  C   C4257     1.0  0.67769  0.59222  0.73949  1.0000
  C   C4258     1.0  0.68801  0.59455  0.72666  1.0000
  C   C4259     1.0  0.69909  0.60145  0.72601  1.0000
  H   H4214     1.0  0.68991  0.60778  0.76021  1.0000
  H   H4215     1.0  0.67045  0.59540  0.76147  1.0000
  H   H4216     1.0  0.68756  0.59081  0.71734  1.0000
  H   H4217     1.0  0.70711  0.60305  0.71609  1.0000
  H   H4218     1.0  0.57265  0.59295  0.70503  1.0000
  C   C4260     1.0  0.77942  0.72782  0.74767  1.0000
  C   C4261     1.0  0.78603  0.71340  0.74722  1.0000
  C   C4262     1.0  0.78585  0.70297  0.76014  1.0000
  H   H4219     1.0  0.90706  0.76219  0.68444  1.0000
  S   S1464     1.0  0.78566  0.72526  0.59794  1.0000
  H   H4220     1.0  0.74323  0.87303  0.61654  1.0000
  H   H4221     1.0  0.67554  0.84359  0.75690  1.0000
  C   C4263     1.0  0.98260  0.85115  0.68694  1.0000
  C   C4264     1.0  0.73614  0.48931  0.61635  1.0000
  H   H4222     1.0  0.85231  0.65273  0.70350  1.0000
  H   H4223     1.0  0.77763  0.66073  0.65041  1.0000
  H   H4224     1.0  0.59301  0.77044  0.66878  1.0000
  S   S1465     1.0  0.65062  0.80102  0.77602  1.0000
  C   C4265     1.0  0.75126  0.91604  0.68028  1.0000
  H   H4225     1.0  0.82712  0.73542  0.64926  1.0000
  C   C4266     1.0  0.73543  0.90947  0.60820  1.0000
  C   C4267     1.0  0.78084  0.95719  0.75311  1.0000
  C   C4268     1.0  0.86136  0.70795  0.77311  1.0000
  H   H4226     1.0  0.65459  0.83581  0.61219  1.0000
  H   H4227     1.0  0.78555  0.63631  0.76891  1.0000
  C   C4269     1.0  0.67275  0.66760  0.78038  1.0000
  H   H4228     1.0  0.68285  0.82332  0.61707  1.0000
  Fe  Fe736     1.0  0.87257  0.76188  0.62606  1.0000
  H   H4229     1.0  0.56687  0.79580  0.69972  1.0000
  C   C4270     1.0  0.63538  0.50194  0.70017  1.0000
  C   C4271     1.0  0.65037  0.49741  0.69702  1.0000
  C   C4272     1.0  0.65918  0.50589  0.69855  1.0000
  C   C4273     1.0  0.65311  0.51899  0.70318  1.0000
  C   C4274     1.0  0.63814  0.52367  0.70607  1.0000
  C   C4275     1.0  0.62932  0.51512  0.70467  1.0000
  Fe  Fe737     1.0  0.70189  0.81080  0.58880  1.0000
  H   H4230     1.0  0.67076  0.50218  0.69631  1.0000
  H   H4231     1.0  0.63335  0.53371  0.70973  1.0000
  H   H4232     1.0  0.61773  0.51870  0.70716  1.0000
  H   H4233     1.0  0.91218  0.77601  0.72074  1.0000
  C   C4276     1.0  0.76984  0.95990  0.71837  1.0000
  H   H4234     1.0  0.85853  0.70157  0.61874  1.0000
  C   C4277     1.0  0.72293  0.56039  0.65410  1.0000
  Fe  Fe738     1.0  0.75119  0.54251  0.59499  1.0000
  H   H4235     1.0  0.68635  0.88453  0.76665  1.0000
  C   C4278     1.0  0.59317  0.76073  0.69132  1.0000
  C   C4279     1.0  0.66847  0.52005  0.65649  1.0000
  H   H4236     1.0  0.85274  0.74884  0.61322  1.0000
  C   C4280     1.0  0.72298  0.89785  0.70667  1.0000
  Fe  Fe739     1.0  0.52536  0.76078  0.60438  1.0000
  C   C4281     1.0  0.95396  0.78194  0.76435  1.0000
  C   C4282     1.0  0.65457  0.83259  0.62399  1.0000
  C   C4283     1.0  0.94074  0.79002  0.67617  1.0000
  H   H4237     1.0  0.90981  0.92052  0.67664  1.0000
  H   H4238     1.0  0.90387  0.91896  0.71029  1.0000
  H   H4239     1.0  0.89185  0.92046  0.69853  1.0000
  H   H4240     1.0  0.54932  0.71966  0.70546  1.0000
  C   C4284     1.0  0.91248  0.76768  0.68901  1.0000
  C   C4285     1.0  0.87373  0.70833  0.77754  1.0000
  C   C4286     1.0  0.90845  0.76812  0.70372  1.0000
  C   C4287     1.0  0.77824  0.95863  0.72838  1.0000
  H   H4241     1.0  0.59210  0.75451  0.72692  1.0000
  N   N344      1.0  0.75407  0.59067  0.71923  1.0000
  C   C4288     1.0  0.75298  0.59447  0.73205  1.0000
  C   C4289     1.0  0.76673  0.58286  0.71281  1.0000
  C   C4290     1.0  0.76478  0.59051  0.73875  1.0000
  C   C4291     1.0  0.77879  0.57882  0.71914  1.0000
  H   H4242     1.0  0.96805  0.70940  0.75656  1.0000
  C   C4292     1.0  0.74145  0.59486  0.71257  1.0000
  H   H4243     1.0  0.74302  0.60078  0.73708  1.0000
  H   H4244     1.0  0.76765  0.57987  0.70263  1.0000
  H   H4245     1.0  0.78417  0.69084  0.60083  1.0000
  H   H4246     1.0  0.78893  0.57305  0.71377  1.0000
  H   H4247     1.0  0.74830  0.96244  0.71541  1.0000
  H   H4248     1.0  0.73681  0.60660  0.71183  1.0000
  H   H4249     1.0  0.74424  0.59286  0.70136  1.0000
  H   H4250     1.0  0.73310  0.58876  0.71930  1.0000
  N   N345      1.0  0.82328  0.73650  0.71859  1.0000
  C   C4293     1.0  0.81953  0.73242  0.73337  1.0000
  C   C4294     1.0  0.83734  0.73667  0.71189  1.0000
  C   C4295     1.0  0.82994  0.72863  0.74185  1.0000
  C   C4296     1.0  0.84805  0.73279  0.72003  1.0000
  C   C4297     1.0  0.84430  0.72872  0.73512  1.0000
  H   H4251     1.0  0.85230  0.81798  0.66954  1.0000
  H   H4252     1.0  0.80850  0.73171  0.73861  1.0000
  H   H4253     1.0  0.84039  0.73962  0.70016  1.0000
  H   H4254     1.0  0.82703  0.72506  0.75353  1.0000
  H   H4255     1.0  0.85922  0.73264  0.71465  1.0000
  H   H4256     1.0  0.85254  0.72525  0.74158  1.0000
  H   H4257     1.0  0.81565  0.74618  0.69888  1.0000
  H   H4258     1.0  0.66410  0.53825  0.67455  1.0000
  H   H4259     1.0  0.52886  0.71671  0.61430  1.0000
  N   N346      1.0  0.52675  0.71574  0.63671  1.0000
  C   C4298     1.0  0.53041  0.70246  0.64533  1.0000
  C   C4299     1.0  0.51546  0.72590  0.64190  1.0000
  C   C4300     1.0  0.52292  0.69920  0.65968  1.0000
  C   C4301     1.0  0.53465  0.70186  0.75535  1.0000
  C   C4302     1.0  0.51170  0.70964  0.66521  1.0000
  H   H4260     1.0  0.53944  0.69445  0.64126  1.0000
  H   H4261     1.0  0.52617  0.68887  0.66664  1.0000
  S   S1466     1.0  0.62386  0.49140  0.69888  1.0000
  H   H4262     1.0  0.53937  0.81385  0.60321  1.0000
  H   H4263     1.0  0.53532  0.73044  0.61829  1.0000
  N   N347      1.0  0.77147  0.66760  0.73919  1.0000
  C   C4303     1.0  0.78101  0.66931  0.74627  1.0000
  C   C4304     1.0  0.76665  0.65498  0.74277  1.0000
  C   C4305     1.0  0.78617  0.65810  0.75710  1.0000
  C   C4306     1.0  0.77165  0.64353  0.75349  1.0000
  C   C4307     1.0  0.78146  0.64515  0.76067  1.0000
  C   C4308     1.0  0.76574  0.67962  0.72826  1.0000
  H   H4264     1.0  0.78472  0.67937  0.74353  1.0000
  H   H4265     1.0  0.75891  0.65372  0.73730  1.0000
  C   C4309     1.0  0.71903  0.90099  0.59946  1.0000
  H   H4266     1.0  0.63162  0.48746  0.73377  1.0000
  H   H4267     1.0  0.49929  0.73135  0.66049  1.0000
  C   C4310     1.0  0.70004  0.66085  0.71068  1.0000
  N   N348      1.0  0.64417  0.80598  0.69679  1.0000
  C   C4311     1.0  0.64234  0.79382  0.70724  1.0000
  C   C4312     1.0  0.64838  0.81692  0.69978  1.0000
  C   C4313     1.0  0.64467  0.79240  0.72112  1.0000
  C   C4314     1.0  0.65076  0.81590  0.71356  1.0000
  C   C4315     1.0  0.64890  0.80353  0.72428  1.0000
  C   C4316     1.0  0.64060  0.80767  0.68268  1.0000
  H   H4268     1.0  0.63903  0.78515  0.70489  1.0000
  H   H4269     1.0  0.64973  0.82662  0.69157  1.0000
  H   H4270     1.0  0.64305  0.78277  0.72939  1.0000
  H   H4271     1.0  0.65379  0.82477  0.71595  1.0000
  H   H4272     1.0  0.65068  0.80261  0.73502  1.0000
  H   H4273     1.0  0.64342  0.79714  0.67925  1.0000
  H   H4274     1.0  0.62887  0.81204  0.68342  1.0000
  H   H4275     1.0  0.64645  0.81526  0.67405  1.0000
  H   H4276     1.0  0.65519  0.48728  0.69364  1.0000
  H   H4277     1.0  0.97941  0.74241  0.76231  1.0000
  N   N349      1.0  0.61295  0.61779  0.73563  1.0000
  C   C4317     1.0  0.60189  0.62360  0.74566  1.0000
  C   C4318     1.0  0.61373  0.62349  0.72113  1.0000
  C   C4319     1.0  0.59142  0.63563  0.74125  1.0000
  C   C4320     1.0  0.60347  0.63554  0.71634  1.0000
  C   C4321     1.0  0.59225  0.64163  0.72650  1.0000
  C   C4322     1.0  0.62377  0.60507  0.74032  1.0000
  H   H4278     1.0  0.60106  0.61894  0.75714  1.0000
  H   H4279     1.0  0.58262  0.64024  0.74918  1.0000
  H   H4280     1.0  0.60397  0.63986  0.70482  1.0000
  H   H4281     1.0  0.58408  0.65085  0.72297  1.0000
  H   H4282     1.0  0.62196  0.59532  0.73790  1.0000
  H   H4283     1.0  0.72354  0.78241  0.60482  1.0000
  H   H4284     1.0  0.62348  0.60297  0.75213  1.0000
  H   H4285     1.0  0.57577  0.79293  0.67423  1.0000
  H   H4286     1.0  0.97381  0.78899  0.76009  1.0000
  H   H4287     1.0  0.74761  0.76906  0.60990  1.0000
  C   C4323     1.0  0.92320  0.77489  0.68006  1.0000
  C   C4324     1.0  0.66917  0.50732  0.65214  1.0000
  C   C4325     1.0  0.65681  0.50168  0.65538  1.0000
  H   H4288     1.0  0.67812  0.52439  0.65394  1.0000
  H   H4289     1.0  0.81905  0.76483  0.58541  1.0000
  C   C4326     1.0  0.50789  0.72308  0.65627  1.0000
  H   H4290     1.0  0.75297  0.91621  0.70723  1.0000
  C   C4327     1.0  0.55988  0.82232  0.60978  1.0000
  S   S1467     1.0  0.74674  0.93224  0.77342  1.0000
  H   H4291     1.0  0.59711  0.79784  0.59966  1.0000
  C   C4328     1.0  0.68262  0.83018  0.77601  1.0000
  H   H4292     1.0  0.52769  0.70426  0.72247  1.0000
  H   H4293     1.0  0.76987  0.69942  0.64823  1.0000
  H   H4294     1.0  0.84742  0.83842  0.61868  1.0000
  H   H4295     1.0  0.52500  0.63541  0.69653  1.0000
  N   N350      1.0  0.73670  0.84358  0.66200  1.0000
  C   C4329     1.0  0.73012  0.84347  0.65131  1.0000
  C   C4330     1.0  0.75125  0.83861  0.66069  1.0000
  C   C4331     1.0  0.73814  0.83833  0.63889  1.0000
  C   C4332     1.0  0.75956  0.83327  0.64847  1.0000
  C   C4333     1.0  0.75298  0.83331  0.63743  1.0000
  C   C4334     1.0  0.72828  0.84991  0.67445  1.0000
  H   H4296     1.0  0.71861  0.84749  0.65231  1.0000
  H   H4297     1.0  0.75657  0.83896  0.66898  1.0000
  H   H4298     1.0  0.73293  0.83841  0.63035  1.0000
  H   H4299     1.0  0.77109  0.82940  0.64747  1.0000
  H   H4300     1.0  0.75940  0.82958  0.62772  1.0000
  H   H4301     1.0  0.72823  0.86166  0.67195  1.0000
  H   H4302     1.0  0.71693  0.84860  0.67707  1.0000
  H   H4303     1.0  0.73276  0.84462  0.68434  1.0000
  S   S1468     1.0  0.81407  0.73299  0.60232  1.0000
  H   H4304     1.0  0.77195  0.48921  0.59365  1.0000
  C   C4335     1.0  0.74620  0.90604  0.59636  1.0000
  H   H4305     1.0  0.63430  0.50437  0.66565  1.0000
  H   H4306     1.0  0.83111  0.65959  0.66834  1.0000
  C   C4336     1.0  0.66829  0.80906  0.59611  1.0000
  H   H4307     1.0  0.64625  0.50359  0.73338  1.0000
  C   C4337     1.0  0.74856  0.96274  0.73733  1.0000
  N   N351      1.0  0.66559  0.83818  0.62714  1.0000
  S   S1469     1.0  0.88334  0.74998  0.60783  1.0000
  H   H4308     1.0  0.89233  0.73540  0.58426  1.0000
  C   C4338     1.0  0.72654  0.57311  0.64500  1.0000
  C   C4339     1.0  0.84621  0.62705  0.71726  1.0000
  C   C4340     1.0  0.55437  0.59571  0.72272  1.0000
  H   H4309     1.0  0.73795  0.90606  0.73033  1.0000
  N   N352      1.0  0.84054  0.89285  0.68569  1.0000
  C   C4341     1.0  0.82835  0.89825  0.68011  1.0000
  C   C4342     1.0  0.83965  0.88983  0.70038  1.0000
  C   C4343     1.0  0.81481  0.90076  0.68929  1.0000
  C   C4344     1.0  0.82627  0.89220  0.70988  1.0000
  C   C4345     1.0  0.81379  0.89768  0.70427  1.0000
  C   C4346     1.0  0.85463  0.89132  0.67574  1.0000
  H   H4310     1.0  0.82909  0.90092  0.66848  1.0000
  H   H4311     1.0  0.84931  0.88584  0.70481  1.0000
  H   H4312     1.0  0.80522  0.90544  0.68478  1.0000
  H   H4313     1.0  0.82560  0.89019  0.72149  1.0000
  H   H4314     1.0  0.80338  0.89980  0.71150  1.0000
  H   H4315     1.0  0.85738  0.90214  0.67110  1.0000
  H   H4316     1.0  0.86331  0.88428  0.68132  1.0000
  H   H4317     1.0  0.85453  0.88646  0.66671  1.0000
  C   C4347     1.0  0.73181  0.85639  0.59629  1.0000
  C   C4348     1.0  0.93016  0.88328  0.69395  1.0000
  C   C4349     1.0  0.55476  0.60919  0.69814  1.0000
  C   C4350     1.0  0.57142  0.82322  0.61514  1.0000
  H   H4318     1.0  0.54935  0.82897  0.61299  1.0000
  H   H4319     1.0  0.65630  0.49182  0.74663  1.0000
  C   C4351     1.0  0.99077  0.85969  0.68948  1.0000
  S   S1470     1.0  0.73476  0.90492  0.77119  1.0000
  N   N353      1.0  0.72483  0.49074  0.61004  1.0000
  H   H4320     1.0  0.77337  0.68699  0.72309  1.0000
  H   H4321     1.0  0.64945  0.82191  0.74950  1.0000
  H   H4322     1.0  0.79036  0.69175  0.75989  1.0000
  H   H4323     1.0  0.93094  0.78872  0.70442  1.0000
  C   C4352     1.0  0.75492  0.96180  0.72296  1.0000
  H   H4324     1.0  0.64513  0.54368  0.67581  1.0000
  H   H4325     1.0  0.79187  0.84201  0.63076  1.0000
  C   C4353     1.0  0.64392  0.50883  0.66281  1.0000
  H   H4326     1.0  0.78715  0.58006  0.73700  1.0000
  Fe  Fe740     1.0  0.60689  0.72121  0.78190  1.0000
  H   H4327     1.0  0.62216  0.61855  0.71316  1.0000
  C   C4354     1.0  0.71755  0.51590  0.61109  1.0000
  C   C4355     1.0  0.59240  0.75046  0.71720  1.0000
  N   N354      1.0  0.65581  0.52690  0.66392  1.0000
  H   H4328     1.0  0.72715  0.55017  0.65063  1.0000
  C   C4356     1.0  0.64358  0.52156  0.66694  1.0000
  H   H4329     1.0  0.65709  0.54904  0.65881  1.0000
  H   H4330     1.0  0.94363  0.88287  0.67272  1.0000
  Fe  Fe741     1.0  0.77361  0.87843  0.61721  1.0000
  C   C4357     1.0  0.75643  0.86525  0.59770  1.0000
  H   H4331     1.0  0.97858  0.70630  0.77653  1.0000
  H   H4332     1.0  0.60083  0.75105  0.68882  1.0000
  C   C4358     1.0  0.84204  0.65775  0.68540  1.0000
  H   H4333     1.0  0.63354  0.52690  0.67292  1.0000
  C   C4359     1.0  0.73147  0.86324  0.60735  1.0000
  H   H4334     1.0  0.70019  0.57501  0.68178  1.0000
  H   H4335     1.0  0.83857  0.61993  0.72351  1.0000
  H   H4336     1.0  0.58511  0.74272  0.72034  1.0000
  Fe  Fe742     1.0  0.72422  0.94524  0.77402  1.0000
  N   N355      1.0  0.58816  0.76234  0.70539  1.0000
  S   S1471     1.0  0.57969  0.71601  0.74461  1.0000
  C   C4360     1.0  0.65547  0.54013  0.66844  1.0000
  S   S1472     1.0  0.79431  0.87068  0.62524  1.0000
  S   S1473     1.0  0.69216  0.79495  0.60719  1.0000
  C   C4361     1.0  0.73038  0.77481  0.59827  1.0000
  H   H4337     1.0  0.94038  0.79195  0.66451  1.0000
  S   S1474     1.0  0.69184  0.83435  0.58455  1.0000
  H   H4338     1.0  0.93907  0.80086  0.67858  1.0000
  C   C4362     1.0  0.85855  0.73149  0.58557  1.0000
  H   H4339     1.0  0.54584  0.71261  0.62026  1.0000
  C   C4363     1.0  0.58668  0.80481  0.60248  1.0000
  N   N356      1.0  0.77420  0.68200  0.63743  1.0000
  H   H4340     1.0  0.92849  0.69580  0.76263  1.0000
  C   C4364     1.0  0.85133  0.82255  0.65836  1.0000
  H   H4341     1.0  0.77496  0.95904  0.70724  1.0000
  H   H4342     1.0  0.83036  0.86216  0.63523  1.0000
  S   S1475     1.0  0.87510  0.78415  0.62581  1.0000
  H   H4343     1.0  0.95155  0.78373  0.67786  1.0000
  Fe  Fe743     1.0  0.80408  0.71379  0.60876  1.0000
  H   H4344     1.0  0.63483  0.60656  0.73461  1.0000
  H   H4345     1.0  0.75992  0.90715  0.67652  1.0000
  S   S1476     1.0  0.95216  0.73425  0.77329  1.0000
  C   C4365     1.0  0.85234  0.78421  0.59353  1.0000
  C   C4366     1.0  0.69178  0.67319  0.71563  1.0000
  C   C4367     1.0  0.54963  0.81259  0.59503  1.0000
  S   S1477     1.0  0.71558  0.85291  0.59483  1.0000
  C   C4368     1.0  0.77776  0.58265  0.73222  1.0000
  H   H4346     1.0  0.54867  0.82140  0.58530  1.0000
  C   C4369     1.0  0.71352  0.56102  0.66748  1.0000
  S   S1478     1.0  0.50803  0.74856  0.60606  1.0000
  C   C4370     1.0  0.67988  0.67198  0.72712  1.0000
  C   C4371     1.0  0.66448  0.65764  0.74622  1.0000
  H   H4347     1.0  0.55109  0.80216  0.59183  1.0000
  C   C4372     1.0  0.95993  0.70355  0.76345  1.0000
  N   N357      1.0  0.92956  0.78247  0.68560  1.0000
  C   C4373     1.0  0.92581  0.78279  0.70004  1.0000
  C   C4374     1.0  0.57873  0.77469  0.70849  1.0000
  C   C4375     1.0  0.58880  0.77168  0.67992  1.0000
  H   H4348     1.0  0.57483  0.77600  0.71964  1.0000
  H   H4349     1.0  0.79390  0.65932  0.76259  1.0000
  H   H4350     1.0  0.54379  0.73677  0.71113  1.0000
  C   C4376     1.0  0.68458  0.64661  0.72890  1.0000
  H   H4351     1.0  0.76849  0.74310  0.76140  1.0000
  H   H4352     1.0  0.66855  0.65595  0.75627  1.0000
  C   C4377     1.0  0.67881  0.80117  0.76248  1.0000
  H   H4353     1.0  0.71033  0.55131  0.67449  1.0000
  C   C4378     1.0  0.94460  0.77381  0.77437  1.0000
  C   C4379     1.0  0.76300  0.49342  0.58819  1.0000
  H   H4354     1.0  0.87654  0.72413  0.63011  1.0000
  C   C4380     1.0  0.77341  0.72147  0.77397  1.0000
  C   C4381     1.0  0.77951  0.70698  0.77350  1.0000
  H   H4355     1.0  0.71333  0.90947  0.61903  1.0000
  N   N358      1.0  0.67638  0.65882  0.73356  1.0000
  C   C4382     1.0  0.68677  0.84916  0.63215  1.0000
  N   N359      1.0  0.83860  0.83956  0.64087  1.0000
  Fe  Fe744     1.0  0.55226  0.77362  0.58947  1.0000
  H   H4356     1.0  0.92597  0.77482  0.66856  1.0000
  H   H4357     1.0  0.76402  0.59400  0.74864  1.0000
  H   H4358     1.0  0.71562  0.60849  0.63954  1.0000
  H   H4359     1.0  0.68176  0.79233  0.77111  1.0000
  S   S1479     1.0  0.50289  0.64768  0.71950  1.0000
  H   H4360     1.0  0.67924  0.50181  0.64637  1.0000
  C   C4383     1.0  0.73855  0.50122  0.61999  1.0000
  H   H4361     1.0  0.95143  0.78766  0.75385  1.0000
  H   H4362     1.0  0.59072  0.76583  0.77657  1.0000
  H   H4363     1.0  0.73385  0.57254  0.63462  1.0000
  H   H4364     1.0  0.63905  0.68380  0.77453  1.0000
  H   H4365     1.0  0.94760  0.70854  0.74678  1.0000
  H   H4366     1.0  0.65947  0.64847  0.74704  1.0000
  H   H4367     1.0  0.73105  0.52393  0.61988  1.0000
  C   C4384     1.0  0.53408  0.62766  0.69138  1.0000
  H   H4368     1.0  0.65133  0.84765  0.75356  1.0000
  C   C4385     1.0  0.78780  0.66921  0.61376  1.0000
  C   C4386     1.0  0.57419  0.78590  0.69733  1.0000
  C   C4387     1.0  0.57923  0.78432  0.68297  1.0000
  C   C4388     1.0  0.91521  0.77563  0.70931  1.0000
  C   C4389     1.0  0.70786  0.57430  0.67160  1.0000
  H   H4369     1.0  0.85355  0.73233  0.64432  1.0000
  H   H4370     1.0  0.72952  0.59798  0.62826  1.0000
  H   H4371     1.0  0.85705  0.62024  0.71430  1.0000
  H   H4372     1.0  0.56211  0.68669  0.72276  1.0000
  C   C4390     1.0  0.93456  0.88897  0.67923  1.0000
  H   H4373     1.0  0.82980  0.78821  0.60316  1.0000
  H   H4374     1.0  0.52277  0.61955  0.71959  1.0000
  C   C4391     1.0  0.68958  0.80721  0.75198  1.0000
  C   C4392     1.0  0.67980  0.83226  0.62263  1.0000
  S   S1480     1.0  0.72051  0.96971  0.77115  1.0000
  H   H4375     1.0  0.93045  0.90688  0.66149  1.0000
  H   H4376     1.0  0.81701  0.68212  0.61578  1.0000
  H   H4377     1.0  0.89490  0.67688  0.76934  1.0000
  C   C4393     1.0  0.85860  0.74371  0.60433  1.0000
  S   S1481     1.0  0.72165  0.65326  0.77375  1.0000
  C   C4394     1.0  0.53135  0.70704  0.73074  1.0000
  H   H4378     1.0  0.79244  0.95308  0.74871  1.0000
  H   H4379     1.0  0.65047  0.85438  0.63743  1.0000
  S   S1482     1.0  0.72880  0.55052  0.59090  1.0000
  S   S1483     1.0  0.77132  0.87246  0.59712  1.0000
  N   N360      1.0  0.84151  0.63625  0.70416  1.0000
  N   N361      1.0  0.77194  0.95906  0.74256  1.0000
  C   C4395     1.0  0.54123  0.71366  0.75179  1.0000
  C   C4396     1.0  0.72916  0.51456  0.61735  1.0000
  C   C4397     1.0  0.85168  0.70894  0.62552  1.0000
  C   C4398     1.0  0.83673  0.71052  0.62809  1.0000
  H   H4380     1.0  0.83200  0.83823  0.66372  1.0000
  C   C4399     1.0  0.83395  0.65308  0.67844  1.0000
  Fe  Fe745     1.0  0.82603  0.72426  0.58270  1.0000
  H   H4381     1.0  0.57251  0.70711  0.72236  1.0000
  H   H4382     1.0  0.87740  0.70501  0.63702  1.0000
  C   C4400     1.0  0.81972  0.77453  0.58887  1.0000
  H   H4383     1.0  0.83976  0.73895  0.60102  1.0000
  H   H4384     1.0  0.52486  0.68913  0.74738  1.0000
  H   H4385     1.0  0.90003  0.76276  0.71077  1.0000
  S   S1484     1.0  0.69620  0.90672  0.77327  1.0000
  C   C4401     1.0  0.67225  0.85506  0.63682  1.0000
  C   C4402     1.0  0.54030  0.60325  0.72679  1.0000
  H   H4386     1.0  0.53456  0.60116  0.73800  1.0000
  N   N362      1.0  0.85757  0.71674  0.63131  1.0000
  H   H4387     1.0  0.82371  0.65543  0.62316  1.0000
  H   H4388     1.0  0.70310  0.63771  0.71389  1.0000
  C   C4403     1.0  0.64692  0.84651  0.76541  1.0000
  C   C4404     1.0  0.67213  0.83796  0.76797  1.0000
  S   S1485     1.0  0.54826  0.75112  0.59489  1.0000
  C   C4405     1.0  0.81228  0.73972  0.70993  1.0000
  C   C4406     1.0  0.72506  0.59930  0.63966  1.0000
  S   S1486     1.0  0.80018  0.70385  0.63252  1.0000
  S   S1487     1.0  0.61025  0.70248  0.77108  1.0000
  C   C4407     1.0  0.75675  0.50826  0.58615  1.0000
  H   H4389     1.0  0.76370  0.67557  0.71952  1.0000
  C   C4408     1.0  0.84856  0.83416  0.62985  1.0000
  H   H4390     1.0  0.49657  0.77553  0.58705  1.0000
  H   H4391     1.0  0.93484  0.77302  0.77170  1.0000
  C   C4409     1.0  0.82783  0.72009  0.63667  1.0000
  H   H4392     1.0  0.81622  0.72140  0.63876  1.0000
  H   H4393     1.0  0.87849  0.71285  0.61781  1.0000
  H   H4394     1.0  0.73349  0.60194  0.64359  1.0000
  H   H4395     1.0  0.69394  0.82977  0.77114  1.0000
  C   C4410     1.0  0.89948  0.91277  0.70508  1.0000
  H   H4396     1.0  0.81031  0.72945  0.70884  1.0000
  C   C4411     1.0  0.81436  0.67696  0.62705  1.0000
  C   C4412     1.0  0.65064  0.68169  0.77293  1.0000
  H   H4397     1.0  0.93582  0.87281  0.69889  1.0000
  C   C4413     1.0  0.84891  0.72611  0.63976  1.0000
  N   N363      1.0  0.91127  0.90436  0.69603  1.0000
  H   H4398     1.0  0.77964  0.96765  0.75614  1.0000
  C   C4414     1.0  0.73614  0.90529  0.72008  1.0000
  C   C4415     1.0  0.94838  0.70313  0.75785  1.0000
  C   C4416     1.0  0.53370  0.61367  0.71632  1.0000
  H   H4399     1.0  0.70186  0.83323  0.62101  1.0000
  H   H4400     1.0  0.71871  0.89410  0.73002  1.0000
  C   C4417     1.0  0.76702  0.68878  0.64988  1.0000
  C   C4418     1.0  0.77892  0.66734  0.63953  1.0000
  H   H4401     1.0  0.80198  0.74597  0.71520  1.0000
  H   H4402     1.0  0.75225  0.96217  0.75819  1.0000
  C   C4419     1.0  0.69060  0.83771  0.62496  1.0000
  C   C4420     1.0  0.74455  0.91108  0.70694  1.0000
  C   C4421     1.0  0.72173  0.90698  0.60976  1.0000
  N   N364      1.0  0.72971  0.89752  0.58798  1.0000
  Fe  Fe746     1.0  0.70218  0.64460  0.77594  1.0000
  C   C4422     1.0  0.86009  0.82275  0.63284  1.0000
  H   H4403     1.0  0.66535  0.49877  0.72838  1.0000
  C   C4423     1.0  0.97817  0.73886  0.77396  1.0000
  C   C4424     1.0  0.78265  0.68413  0.61167  1.0000
  H   H4404     1.0  0.84667  0.63370  0.72471  1.0000
  C   C4425     1.0  0.57494  0.80428  0.59720  1.0000
  C   C4426     1.0  0.58488  0.81436  0.61149  1.0000
  H   H4405     1.0  0.79010  0.64914  0.62956  1.0000
  H   H4406     1.0  0.86777  0.81831  0.62408  1.0000
  C   C4427     1.0  0.91559  0.91011  0.68161  1.0000
  H   H4407     1.0  0.87031  0.80802  0.64965  1.0000
  C   C4428     1.0  0.96663  0.78259  0.76792  1.0000
  N   N365      1.0  0.96992  0.77521  0.78105  1.0000
  H   H4408     1.0  0.73774  0.91383  0.61629  1.0000
  H   H4409     1.0  0.56982  0.83044  0.62243  1.0000
  C   C4429     1.0  0.74377  0.86745  0.60820  1.0000
  C   C4430     1.0  0.72534  0.89859  0.71991  1.0000
  N   N366      1.0  0.74213  0.91034  0.69399  1.0000
  H   H4410     1.0  0.65721  0.49175  0.65217  1.0000
  C   C4431     1.0  0.75729  0.96145  0.74702  1.0000
  H   H4411     1.0  0.59386  0.81482  0.61574  1.0000
  H   H4412     1.0  0.83011  0.62139  0.70205  1.0000
  S   S1488     1.0  0.78701  0.76620  0.59241  1.0000
  C   C4432     1.0  0.69647  0.64745  0.71736  1.0000
  H   H4413     1.0  0.69470  0.68359  0.71076  1.0000
  H   H4414     1.0  0.75699  0.90763  0.59514  1.0000
  H   H4415     1.0  0.89313  0.90556  0.71363  1.0000
  C   C4433     1.0  0.66173  0.84952  0.63404  1.0000
  H   H4416     1.0  0.76895  0.79425  0.59065  1.0000
  H   H4417     1.0  0.77205  0.70200  0.62207  1.0000
  H   H4418     1.0  0.85761  0.98107  0.69326  1.0000
  C   C4434     1.0  0.93764  0.69604  0.76675  1.0000
  C   C4435     1.0  0.73161  0.90371  0.69375  1.0000
  H   H4419     1.0  0.75623  0.92452  0.68142  1.0000
  Fe  Fe747     1.0  0.73331  0.63044  0.77354  1.0000
  H   H4420     1.0  0.52981  0.62240  0.68513  1.0000
  C   C4436     1.0  0.54289  0.72186  0.73759  1.0000
  H   H4421     1.0  0.53389  0.69500  0.76613  1.0000
  S   S1489     1.0  0.76334  0.51967  0.59312  1.0000
  H   H4422     1.0  0.65672  0.82060  0.62721  1.0000
  H   H4423     1.0  0.71442  0.89289  0.70642  1.0000
  H   H4424     1.0  0.71036  0.52634  0.60885  1.0000
  H   H4425     1.0  0.53076  0.72899  0.70764  1.0000
  Fe  Fe748     1.0  0.79706  0.74360  0.58954  1.0000
  C   C4437     1.0  0.52960  0.69854  0.74480  1.0000
  C   C4438     1.0  0.92721  0.90245  0.67297  1.0000
  N   N367      1.0  0.54105  0.61670  0.70226  1.0000
  H   H4426     1.0  0.65590  0.66765  0.74557  1.0000
  H   H4427     1.0  0.75518  0.69012  0.65157  1.0000
  C   C4439     1.0  0.74377  0.76723  0.60122  1.0000
  C   C4440     1.0  0.93852  0.68953  0.78112  1.0000
  C   C4441     1.0  0.71167  0.58681  0.66221  1.0000
  N   N368      1.0  0.56172  0.81288  0.60101  1.0000
  C   C4442     1.0  0.77577  0.69037  0.62371  1.0000
  H   H4428     1.0  0.82339  0.63617  0.67908  1.0000
  H   H4429     1.0  0.70698  0.59712  0.66540  1.0000
  C   C4443     1.0  0.82964  0.63993  0.68447  1.0000
  H   H4430     1.0  0.84546  0.66797  0.68086  1.0000
  H   H4431     1.0  0.81722  0.85181  0.64652  1.0000
  C   C4444     1.0  0.83355  0.63158  0.69741  1.0000
  C   C4445     1.0  0.87348  0.74285  0.59964  1.0000
  N   N369      1.0  0.53798  0.71848  0.72727  1.0000
  H   H4432     1.0  0.56064  0.61168  0.68702  1.0000
  C   C4446     1.0  0.78588  0.66073  0.62776  1.0000
  C   C4447     1.0  0.84584  0.64909  0.69827  1.0000
  H   H4433     1.0  0.77937  0.73590  0.73769  1.0000
  H   H4434     1.0  0.64926  0.82169  0.58851  1.0000
  H   H4435     1.0  0.54874  0.73050  0.73478  1.0000
  H   H4436     1.0  0.72981  0.90297  0.68351  1.0000
  C   C4448     1.0  0.65345  0.81311  0.59679  1.0000
  C   C4449     1.0  0.91839  0.89112  0.70223  1.0000
  C   C4450     1.0  0.71553  0.50380  0.60747  1.0000
  C   C4451     1.0  0.83992  0.83398  0.65499  1.0000
  H   H4437     1.0  0.54575  0.71598  0.75973  1.0000
  S   S1490     1.0  0.52892  0.78359  0.59700  1.0000
  H   H4438     1.0  0.98576  0.87060  0.69086  1.0000
  H   H4439     1.0  0.75537  0.68587  0.73344  1.0000
  H   H4440     1.0  0.70933  0.66164  0.70181  1.0000
  C   C4452     1.0  0.66432  0.80674  0.76184  1.0000
  H   H4441     1.0  0.91487  0.88642  0.71360  1.0000
  H   H4442     1.0  0.67355  0.68163  0.73095  1.0000
  H   H4443     1.0  0.78985  0.95688  0.72479  1.0000
  H   H4444     1.0  0.70076  0.80322  0.75276  1.0000
  H   H4445     1.0  0.68220  0.63607  0.73435  1.0000
  N   N370      1.0  0.96060  0.69732  0.77763  1.0000
  H   H4446     1.0  0.54187  0.63406  0.68382  1.0000
  C   C4453     1.0  0.98922  0.83709  0.68508  1.0000
  H   H4447     1.0  0.83205  0.70440  0.62343  1.0000
  C   C4454     1.0  0.85118  0.73801  0.59737  1.0000
  H   H4448     1.0  0.77752  0.94909  0.76299  1.0000
  H   H4449     1.0  0.79342  0.66427  0.60455  1.0000
  H   H4450     1.0  0.62964  0.78620  0.77430  1.0000
  H   H4451     1.0  0.79951  0.72428  0.77837  1.0000
  H   H4452     1.0  0.72003  0.60903  0.58545  1.0000
  S   S1491     1.0  0.59081  0.73552  0.76884  1.0000
  C   C4455     1.0  0.49631  0.65545  0.69216  1.0000
  H   H4453     1.0  0.70840  0.89893  0.60084  1.0000
  H   H4454     1.0  0.57641  0.79687  0.59014  1.0000
  C   C4456     1.0  0.74312  0.90012  0.58625  1.0000
  H   H4455     1.0  0.99137  0.77901  0.77494  1.0000
  S   S1492     1.0  0.81722  0.70387  0.59000  1.0000
  C   C4457     1.0  0.75235  0.75738  0.59275  1.0000
  H   H4456     1.0  0.76278  0.75165  0.59511  1.0000
  C   C4458     1.0  0.74462  0.85364  0.58612  1.0000
  C   C4459     1.0  0.72581  0.77260  0.58681  1.0000
  H   H4457     1.0  0.63776  0.84101  0.76788  1.0000
  N   N371      1.0  0.65785  0.83811  0.77382  1.0000
  N   N372      1.0  0.83470  0.77562  0.58696  1.0000
  S   S1493     1.0  0.75792  0.56383  0.58433  1.0000
  C   C4460     1.0  0.98936  0.73855  0.78059  1.0000
  H   H4458     1.0  0.67545  0.81413  0.58697  1.0000
  H   H4459     1.0  0.74570  0.60272  0.58751  1.0000
  H   H4460     1.0  0.71536  0.77845  0.58452  1.0000
  C   C4461     1.0  0.72743  0.97887  0.78035  1.0000
  H   H4461     1.0  0.81567  0.70043  0.77720  1.0000
  H   H4462     1.0  0.87377  0.71716  0.78221  1.0000
  C   C4462     1.0  0.61217  0.77489  0.78012  1.0000
  C   C4463     1.0  0.96545  0.73451  0.78228  1.0000
  C   C4464     1.0  0.88083  0.73617  0.58799  1.0000
  H   H4463     1.0  0.85193  0.71654  0.77444  1.0000
  H   H4464     1.0  0.67129  0.71561  0.77839  1.0000
  C   C4465     1.0  0.49294  0.75423  0.59775  1.0000
  H   H4465     1.0  0.72300  0.74950  0.78218  1.0000
  C   C4466     1.0  0.49194  0.64975  0.70694  1.0000
  H   H4466     1.0  0.74311  0.77040  0.87508  1.0000
  H   H4467     1.0  0.95062  0.68539  0.79766  1.0000
  Fe  Fe749     1.0  0.81515  0.74511  0.91969  1.0000
  S   S1494     1.0  0.83528  0.74980  0.90357  1.0000
  S   S1495     1.0  0.80836  0.74786  0.94321  1.0000
  Fe  Fe750     1.0  0.80127  0.74206  0.89595  1.0000
  S   S1496     1.0  0.81997  0.74710  0.87827  1.0000
  S   S1497     1.0  0.78205  0.73759  0.89050  1.0000
  Fe  Fe751     1.0  0.83338  0.73226  0.89364  1.0000
  S   S1498     1.0  0.85044  0.71551  0.88322  1.0000
  Fe  Fe752     1.0  0.82006  0.76409  0.88956  1.0000
  S   S1499     1.0  0.82435  0.78553  0.87634  1.0000
  S   S1500     1.0  0.81452  0.72611  0.91101  1.0000
  S   S1501     1.0  0.80005  0.76057  0.90604  1.0000
  Fe  Fe753     1.0  0.77924  0.69325  0.83604  1.0000
  S   S1502     1.0  0.76007  0.71062  0.83147  1.0000
  S   S1503     1.0  0.79607  0.69590  0.84663  1.0000
  Fe  Fe754     1.0  0.77385  0.67441  0.81817  1.0000
  S   S1504     1.0  0.75469  0.69046  0.81169  1.0000
  S   S1505     1.0  0.78281  0.65309  0.81132  1.0000
  Fe  Fe755     1.0  0.76746  0.70715  0.80874  1.0000
  H   H4468     1.0  0.64054  0.71177  0.82764  1.0000
  Fe  Fe756     1.0  0.74888  0.69241  0.83496  1.0000
  S   S1506     1.0  0.72575  0.69420  0.84639  1.0000
  S   S1507     1.0  0.78742  0.69092  0.81288  1.0000
  S   S1508     1.0  0.76731  0.67513  0.84188  1.0000
  S   S1509     1.0  0.91907  0.71630  0.80207  1.0000
  C   C4467     1.0  0.77111  0.62262  0.79883  1.0000
  H   H4469     1.0  0.73156  0.73370  0.83742  1.0000
  C   C4468     1.0  0.85246  0.78079  0.84399  1.0000
  C   C4469     1.0  0.81621  0.80390  0.96279  1.0000
  C   C4470     1.0  0.84640  0.76883  0.84606  1.0000
  H   H4470     1.0  0.75120  0.75318  0.88531  1.0000
  H   H4471     1.0  0.82559  0.84390  0.97105  1.0000
  Fe  Fe757     1.0  0.90240  0.73553  0.80845  1.0000
  S   S1510     1.0  0.89525  0.74230  0.83005  1.0000
  H   H4472     1.0  0.72277  0.85353  0.81918  1.0000
  Fe  Fe758     1.0  0.74910  0.82866  0.86877  1.0000
  S   S1511     1.0  0.74283  0.80996  0.88582  1.0000
  S   S1512     1.0  0.77110  0.83117  0.85568  1.0000
  Fe  Fe759     1.0  0.71908  0.84639  0.87274  1.0000
  S   S1513     1.0  0.70990  0.82921  0.89054  1.0000
  S   S1514     1.0  0.70726  0.86842  0.86306  1.0000
  Fe  Fe760     1.0  0.72987  0.82634  0.89919  1.0000
  S   S1515     1.0  0.73221  0.81954  0.92286  1.0000
  Fe  Fe761     1.0  0.72347  0.81400  0.87604  1.0000
  S   S1516     1.0  0.71745  0.79435  0.87284  1.0000
  S   S1517     1.0  0.73770  0.84482  0.88267  1.0000
  S   S1518     1.0  0.73100  0.83136  0.85772  1.0000
  Fe  Fe762     1.0  0.64801  0.76644  0.82285  1.0000
  S   S1519     1.0  0.65853  0.76329  0.80047  1.0000
  S   S1520     1.0  0.62919  0.75582  0.83440  1.0000
  Fe  Fe763     1.0  0.66879  0.78514  0.82290  1.0000
  S   S1521     1.0  0.68078  0.78292  0.80038  1.0000
  S   S1522     1.0  0.67498  0.80207  0.83072  1.0000
  H   H4473     1.0  0.58176  0.76277  0.79531  1.0000
  N   N373      1.0  0.72692  0.74815  0.80304  1.0000
  Fe  Fe764     1.0  0.67896  0.75973  0.80794  1.0000
  C   C4471     1.0  0.96395  0.72991  0.79732  1.0000
  S   S1523     1.0  0.64691  0.79037  0.81729  1.0000
  S   S1524     1.0  0.66857  0.76141  0.83099  1.0000
  H   H4474     1.0  0.83756  0.76703  0.85522  1.0000
  S   S1525     1.0  0.75121  0.61994  0.78561  1.0000
  S   S1526     1.0  0.60311  0.71975  0.80603  1.0000
  H   H4475     1.0  0.77292  0.76884  0.89116  1.0000
  C   C4472     1.0  0.80173  0.72389  0.79983  1.0000
  H   H4476     1.0  0.73291  0.90113  0.86008  1.0000
  H   H4477     1.0  0.97420  0.72542  0.81551  1.0000
  N   N374      1.0  0.60148  0.76996  0.79093  1.0000
  H   H4478     1.0  0.68823  0.84141  0.97440  1.0000
  S   S1527     1.0  0.74611  0.89905  0.80692  1.0000
  S   S1528     1.0  0.91355  0.75163  0.79137  1.0000
  C   C4473     1.0  0.82306  0.83534  0.98027  1.0000
  C   C4474     1.0  0.77352  0.64481  0.80373  1.0000
  S   S1529     1.0  0.72992  0.85860  0.96649  1.0000
  H   H4479     1.0  0.70114  0.85301  0.96903  1.0000
  H   H4480     1.0  0.80476  0.80535  0.94634  1.0000
  H   H4481     1.0  0.62630  0.79012  0.79916  1.0000
  H   H4482     1.0  0.73447  0.66963  0.83023  1.0000
  C   C4475     1.0  0.83637  0.78374  0.96484  1.0000
  C   C4476     1.0  0.74661  0.87998  0.86390  1.0000
  C   C4477     1.0  0.98804  0.73358  0.79558  1.0000
  H   H4483     1.0  0.73911  0.97483  0.81138  1.0000
  C   C4478     1.0  0.82759  0.79605  0.96953  1.0000
  C   C4479     1.0  0.72624  0.63273  0.81569  1.0000
  H   H4484     1.0  0.77049  0.78024  0.91172  1.0000
  H   H4485     1.0  0.65250  0.72883  0.83182  1.0000
  C   C4480     1.0  0.75893  0.87062  0.85812  1.0000
  Fe  Fe765     1.0  0.73625  0.91467  0.78888  1.0000
  H   H4486     1.0  0.64232  0.83103  0.79242  1.0000
  C   C4481     1.0  0.81762  0.70270  0.81036  1.0000
  H   H4487     1.0  0.66041  0.81759  0.80723  1.0000
  C   C4482     1.0  0.97528  0.72929  0.80390  1.0000
  C   C4483     1.0  0.73517  0.78220  0.91323  1.0000
  H   H4488     1.0  0.74805  0.90910  0.83590  1.0000
  H   H4489     1.0  0.72733  0.77498  0.89838  1.0000
  H   H4490     1.0  0.98799  0.76557  0.79109  1.0000
  C   C4484     1.0  0.69807  0.88394  0.81174  1.0000
  H   H4491     1.0  0.62449  0.73818  0.79326  1.0000
  H   H4492     1.0  0.75851  0.66402  0.79614  1.0000
  H   H4493     1.0  0.96902  0.70022  0.79439  1.0000
  C   C4485     1.0  0.94789  0.76659  0.78782  1.0000
  C   C4486     1.0  0.71274  0.86146  0.82043  1.0000
  H   H4494     1.0  0.59178  0.76724  0.81350  1.0000
  C   C4487     1.0  0.66245  0.72435  0.82447  1.0000
  C   C4488     1.0  0.70241  0.85931  0.83328  1.0000
  H   H4495     1.0  0.86701  0.75435  0.81792  1.0000
  C   C4489     1.0  0.73753  0.65767  0.83165  1.0000
  H   H4496     1.0  0.71489  0.75698  0.84130  1.0000
  C   C4490     1.0  0.72148  0.87584  0.79657  1.0000
  H   H4497     1.0  0.76166  0.85961  0.86414  1.0000
  H   H4498     1.0  0.82962  0.79948  0.97838  1.0000
  H   H4499     1.0  0.71656  0.88203  0.78712  1.0000
  C   C4491     1.0  0.62262  0.74575  0.82592  1.0000
  C   C4492     1.0  0.61235  0.73776  0.83438  1.0000
  C   C4493     1.0  0.60657  0.72984  0.82812  1.0000
  C   C4494     1.0  0.61080  0.72996  0.81326  1.0000
  C   C4495     1.0  0.62105  0.73800  0.80471  1.0000
  C   C4496     1.0  0.62703  0.74576  0.81105  1.0000
  H   H4500     1.0  0.60884  0.73767  0.84588  1.0000
  H   H4501     1.0  0.59868  0.72366  0.83485  1.0000
  H   H4502     1.0  0.69640  0.89373  0.80346  1.0000
  H   H4503     1.0  0.63476  0.75199  0.80431  1.0000
  C   C4497     1.0  0.73330  0.83122  0.93349  1.0000
  C   C4498     1.0  0.72648  0.84584  0.93125  1.0000
  C   C4499     1.0  0.72604  0.85428  0.94110  1.0000
  C   C4500     1.0  0.73262  0.84829  0.95314  1.0000
  C   C4501     1.0  0.73995  0.83384  0.95500  1.0000
  C   C4502     1.0  0.74012  0.82532  0.94535  1.0000
  H   H4504     1.0  0.72110  0.85051  0.92223  1.0000
  H   H4505     1.0  0.72031  0.86544  0.93956  1.0000
  H   H4506     1.0  0.74499  0.82903  0.96422  1.0000
  H   H4507     1.0  0.74541  0.81404  0.94720  1.0000
  C   C4503     1.0  0.71776  0.87682  0.84708  1.0000
  C   C4504     1.0  0.73171  0.86977  0.84169  1.0000
  C   C4505     1.0  0.74000  0.87642  0.82893  1.0000
  C   C4506     1.0  0.73454  0.89031  0.82159  1.0000
  C   C4507     1.0  0.72047  0.89731  0.82675  1.0000
  C   C4508     1.0  0.71210  0.89057  0.83952  1.0000
  H   H4508     1.0  0.73630  0.85931  0.84749  1.0000
  H   H4509     1.0  0.75083  0.87092  0.82494  1.0000
  H   H4510     1.0  0.71621  0.90807  0.82120  1.0000
  H   H4511     1.0  0.70130  0.89609  0.84362  1.0000
  C   C4509     1.0  0.70588  0.79652  0.86088  1.0000
  C   C4510     1.0  0.70260  0.78427  0.85859  1.0000
  C   C4511     1.0  0.69324  0.78572  0.84932  1.0000
  C   C4512     1.0  0.68707  0.79946  0.84227  1.0000
  C   C4513     1.0  0.69044  0.81168  0.84448  1.0000
  C   C4514     1.0  0.69981  0.81023  0.85371  1.0000
  H   H4512     1.0  0.70717  0.77364  0.86419  1.0000
  H   H4513     1.0  0.69054  0.77626  0.84788  1.0000
  H   H4514     1.0  0.68566  0.82234  0.83914  1.0000
  H   H4515     1.0  0.70219  0.81972  0.85543  1.0000
  H   H4516     1.0  0.73984  0.87628  0.87424  1.0000
  C   C4515     1.0  0.77947  0.86480  0.83859  1.0000
  C   C4516     1.0  0.74273  0.89396  0.85596  1.0000
  N   N375      1.0  0.76722  0.87512  0.84486  1.0000
  C   C4517     1.0  0.71540  0.70612  0.83435  1.0000
  C   C4518     1.0  0.71803  0.70439  0.82006  1.0000
  C   C4519     1.0  0.71150  0.71510  0.80976  1.0000
  C   C4520     1.0  0.70219  0.72752  0.81374  1.0000
  C   C4521     1.0  0.69890  0.72890  0.82820  1.0000
  C   C4522     1.0  0.70546  0.71816  0.83854  1.0000
  H   H4517     1.0  0.72520  0.69486  0.81688  1.0000
  N   N376      1.0  0.65897  0.71900  0.81340  1.0000
  H   H4518     1.0  0.69189  0.73851  0.83135  1.0000
  H   H4519     1.0  0.70340  0.71954  0.84959  1.0000
  C   C4523     1.0  0.86906  0.77365  0.82283  1.0000
  C   C4524     1.0  0.72779  0.74156  0.82835  1.0000
  H   H4520     1.0  0.72877  0.88199  0.79810  1.0000
  H   H4521     1.0  0.73920  0.72835  0.81283  1.0000
  C   C4525     1.0  0.61927  0.78453  0.79686  1.0000
  C   C4526     1.0  0.81934  0.78248  0.93515  1.0000
  H   H4522     1.0  0.71397  0.71390  0.79860  1.0000
  H   H4523     1.0  0.82240  0.69654  0.81954  1.0000
  H   H4524     1.0  0.80871  0.77930  0.93867  1.0000
  C   C4527     1.0  0.66451  0.71475  0.78919  1.0000
  C   C4528     1.0  0.67839  0.82282  0.79023  1.0000
  S   S1530     1.0  0.69567  0.74147  0.80020  1.0000
  C   C4529     1.0  0.73685  0.77589  0.90143  1.0000
  N   N377      1.0  0.82241  0.78720  0.94688  1.0000
  C   C4530     1.0  0.81978  0.74681  0.95493  1.0000
  C   C4531     1.0  0.81387  0.75221  0.96770  1.0000
  C   C4532     1.0  0.82255  0.75148  0.97739  1.0000
  C   C4533     1.0  0.83720  0.74508  0.97449  1.0000
  C   C4534     1.0  0.84309  0.73964  0.96176  1.0000
  C   C4535     1.0  0.83447  0.74063  0.95193  1.0000
  H   H4525     1.0  0.80250  0.75702  0.97009  1.0000
  H   H4526     1.0  0.82830  0.67842  0.78884  1.0000
  H   H4527     1.0  0.85442  0.73465  0.95945  1.0000
  H   H4528     1.0  0.83915  0.73639  0.94217  1.0000
  C   C4536     1.0  0.86285  0.72290  0.86835  1.0000
  C   C4537     1.0  0.86977  0.71540  0.85715  1.0000
  C   C4538     1.0  0.87959  0.72130  0.84516  1.0000
  C   C4539     1.0  0.88283  0.73452  0.84459  1.0000
  C   C4540     1.0  0.87595  0.74195  0.85584  1.0000
  C   C4541     1.0  0.86581  0.73629  0.86755  1.0000
  H   H4529     1.0  0.86752  0.70503  0.85772  1.0000
  H   H4530     1.0  0.88490  0.71549  0.83655  1.0000
  H   H4531     1.0  0.87843  0.75216  0.85547  1.0000
  H   H4532     1.0  0.86055  0.74214  0.87615  1.0000
  C   C4542     1.0  0.80932  0.79781  0.87067  1.0000
  C   C4543     1.0  0.79552  0.79474  0.87540  1.0000
  C   C4544     1.0  0.78366  0.80493  0.87092  1.0000
  C   C4545     1.0  0.78563  0.81810  0.86153  1.0000
  C   C4546     1.0  0.79948  0.82099  0.85657  1.0000
  C   C4547     1.0  0.81127  0.81093  0.86122  1.0000
  H   H4533     1.0  0.79398  0.78456  0.88252  1.0000
  H   H4534     1.0  0.77306  0.80252  0.87457  1.0000
  H   H4535     1.0  0.80110  0.83108  0.84922  1.0000
  H   H4536     1.0  0.82191  0.81334  0.85749  1.0000
  C   C4548     1.0  0.78587  0.72740  0.87698  1.0000
  C   C4549     1.0  0.80006  0.72235  0.87022  1.0000
  C   C4550     1.0  0.80297  0.71336  0.86029  1.0000
  C   C4551     1.0  0.79175  0.70921  0.85711  1.0000
  C   C4552     1.0  0.77750  0.71467  0.86343  1.0000
  C   C4553     1.0  0.77458  0.72373  0.87335  1.0000
  H   H4537     1.0  0.80886  0.72500  0.87295  1.0000
  H   H4538     1.0  0.81402  0.70924  0.85542  1.0000
  H   H4539     1.0  0.76876  0.71148  0.86110  1.0000
  H   H4540     1.0  0.76356  0.72757  0.87852  1.0000
  C   C4554     1.0  0.77809  0.62994  0.80447  1.0000
  H   H4541     1.0  0.86890  0.79224  0.83074  1.0000
  H   H4542     1.0  0.73435  0.73304  0.78909  1.0000
  H   H4543     1.0  0.78496  0.85729  0.84716  1.0000
  C   C4555     1.0  0.86393  0.78314  0.83234  1.0000
  C   C4556     1.0  0.83368  0.77953  0.95334  1.0000
  S   S1531     1.0  0.79620  0.84287  0.97468  1.0000
  H   H4544     1.0  0.78757  0.87036  0.83044  1.0000
  C   C4557     1.0  0.73166  0.74490  0.78849  1.0000
  H   H4545     1.0  0.95421  0.72650  0.80383  1.0000
  C   C4558     1.0  0.73203  0.73855  0.81443  1.0000
  H   H4546     1.0  0.94077  0.76005  0.79558  1.0000
  C   C4559     1.0  0.66763  0.71992  0.79983  1.0000
  H   H4547     1.0  0.77559  0.85822  0.83332  1.0000
  C   C4560     1.0  0.74734  0.78376  0.91696  1.0000
  C   C4561     1.0  0.59972  0.77183  0.80475  1.0000
  C   C4562     1.0  0.73398  0.63836  0.82224  1.0000
  H   H4548     1.0  0.72451  0.78630  0.91911  1.0000
  H   H4549     1.0  0.67697  0.72478  0.79713  1.0000
  H   H4550     1.0  0.73550  0.65294  0.84347  1.0000
  H   H4551     1.0  0.70444  0.84991  0.84188  1.0000
  H   H4552     1.0  0.73017  0.62189  0.81356  1.0000
  H   H4553     1.0  0.84514  0.77740  0.97015  1.0000
  H   H4554     1.0  0.84102  0.68388  0.79543  1.0000
  C   C4563     1.0  0.65254  0.70849  0.79256  1.0000
  H   H4555     1.0  0.87817  0.77515  0.81388  1.0000
  H   H4556     1.0  0.70255  0.84024  0.95845  1.0000
  C   C4564     1.0  0.81371  0.79925  0.95146  1.0000
  C   C4565     1.0  0.81386  0.70486  0.78676  1.0000
  H   H4557     1.0  0.72857  0.79693  0.98135  1.0000
  H   H4558     1.0  0.67794  0.89055  0.82611  1.0000
  H   H4559     1.0  0.82747  0.77290  0.93207  1.0000
  C   C4566     1.0  0.66380  0.82326  0.79618  1.0000
  N   N378      1.0  0.75027  0.77139  0.89351  1.0000
  H   H4560     1.0  0.76223  0.76538  0.87354  1.0000
  C   C4567     1.0  0.70895  0.65535  0.81388  1.0000
  S   S1532     1.0  0.68184  0.65245  0.79102  1.0000
  N   N379      1.0  0.85169  0.75941  0.83685  1.0000
  C   C4568     1.0  0.64743  0.71252  0.81689  1.0000
  H   H4561     1.0  0.84833  0.78809  0.85148  1.0000
  H   H4562     1.0  0.79414  0.73406  0.80062  1.0000
  C   C4569     1.0  0.71335  0.76439  0.81881  1.0000
  H   H4563     1.0  0.74618  0.78901  0.92581  1.0000
  C   C4570     1.0  0.75126  0.89847  0.84246  1.0000
  C   C4571     1.0  0.73601  0.98010  0.80111  1.0000
  C   C4572     1.0  0.68758  0.88220  0.82452  1.0000
  C   C4573     1.0  0.68980  0.86980  0.83534  1.0000
  C   C4574     1.0  0.76197  0.65247  0.79697  1.0000
  C   C4575     1.0  0.71783  0.76101  0.80503  1.0000
  C   C4576     1.0  0.59249  0.76182  0.78787  1.0000
  H   H4564     1.0  0.84241  0.74218  0.85108  1.0000
  H   H4565     1.0  0.71319  0.67157  0.82236  1.0000
  C   C4577     1.0  0.71836  0.75456  0.83053  1.0000
  C   C4578     1.0  0.69969  0.84194  0.96977  1.0000
  C   C4579     1.0  0.76349  0.88882  0.83699  1.0000
  C   C4580     1.0  0.71695  0.66065  0.82048  1.0000
  H   H4566     1.0  0.74630  0.65103  0.78576  1.0000
  N   N380      1.0  0.82010  0.69716  0.79824  1.0000
  H   H4567     1.0  0.76958  0.89218  0.82614  1.0000
  H   H4568     1.0  0.63457  0.70249  0.80917  1.0000
  H   H4569     1.0  0.72797  0.86543  0.79383  1.0000
  N   N381      1.0  0.72937  0.65219  0.82445  1.0000
  C   C4581     1.0  0.64400  0.70722  0.80652  1.0000
  Fe  Fe766     1.0  0.65902  0.78667  0.79533  1.0000
  N   N382      1.0  0.80416  0.68704  0.88785  1.0000
  C   C4582     1.0  0.81345  0.68038  0.87728  1.0000
  C   C4583     1.0  0.80913  0.69394  0.89543  1.0000
  C   C4584     1.0  0.82805  0.68094  0.87373  1.0000
  C   C4585     1.0  0.82368  0.69458  0.89224  1.0000
  C   C4586     1.0  0.83316  0.68815  0.88124  1.0000
  C   C4587     1.0  0.78888  0.68639  0.89143  1.0000
  H   H4570     1.0  0.80950  0.67500  0.87118  1.0000
  H   H4571     1.0  0.80177  0.69932  0.90375  1.0000
  H   H4572     1.0  0.83531  0.67598  0.86508  1.0000
  H   H4573     1.0  0.82761  0.70021  0.89810  1.0000
  H   H4574     1.0  0.84442  0.68889  0.87853  1.0000
  H   H4575     1.0  0.78691  0.67716  0.90058  1.0000
  H   H4576     1.0  0.78203  0.69659  0.89447  1.0000
  H   H4577     1.0  0.78541  0.68515  0.88194  1.0000
  H   H4578     1.0  0.80933  0.81352  0.96633  1.0000
  C   C4588     1.0  0.86268  0.76185  0.82518  1.0000
  H   H4579     1.0  0.66926  0.71547  0.83096  1.0000
  C   C4589     1.0  0.84521  0.74689  0.83929  1.0000
  H   H4580     1.0  0.84058  0.76995  0.94979  1.0000
  S   S1533     1.0  0.76672  0.72672  0.79067  1.0000
  H   H4581     1.0  0.60739  0.78035  0.81894  1.0000
  H   H4582     1.0  0.74929  0.65487  0.82709  1.0000
  C   C4590     1.0  0.75175  0.76475  0.88126  1.0000
  S   S1534     1.0  0.71383  0.92820  0.79100  1.0000
  C   C4591     1.0  0.76099  0.77892  0.90899  1.0000
  C   C4592     1.0  0.75960  0.63009  0.79212  1.0000
  H   H4583     1.0  0.71331  0.81540  0.96590  1.0000
  H   H4584     1.0  0.69920  0.66207  0.81052  1.0000
  H   H4585     1.0  0.96326  0.76156  0.80141  1.0000
  C   C4593     1.0  0.73212  0.97203  0.79329  1.0000
  H   H4586     1.0  0.66839  0.73323  0.81945  1.0000
  H   H4587     1.0  0.70596  0.77451  0.82042  1.0000
  N   N383      1.0  0.71038  0.87355  0.80978  1.0000
  H   H4588     1.0  0.74393  0.63170  0.82518  1.0000
  H   H4589     1.0  0.70758  0.63712  0.80629  1.0000
  H   H4590     1.0  0.78707  0.62397  0.80954  1.0000
  C   C4594     1.0  0.71364  0.64130  0.81151  1.0000
  C   C4595     1.0  0.76227  0.77262  0.89729  1.0000
  H   H4591     1.0  0.82709  0.67510  0.80799  1.0000
  C   C4596     1.0  0.80829  0.71607  0.81140  1.0000
  H   H4592     1.0  0.77474  0.61107  0.79964  1.0000
  H   H4593     1.0  0.83533  0.75019  0.83475  1.0000
  C   C4597     1.0  0.60853  0.77922  0.80790  1.0000
  H   H4594     1.0  0.80586  0.72009  0.82131  1.0000
  H   H4595     1.0  0.68202  0.86850  0.84554  1.0000
  H   H4596     1.0  0.73223  0.96065  0.79756  1.0000
  H   H4597     1.0  0.85288  0.73815  0.83422  1.0000
  C   C4598     1.0  0.80467  0.71835  0.78735  1.0000
  H   H4598     1.0  0.68634  0.81672  0.79667  1.0000
  C   C4599     1.0  0.82960  0.68294  0.79763  1.0000
  H   H4599     1.0  0.81924  0.79128  0.92529  1.0000
  C   C4600     1.0  0.75508  0.64511  0.79105  1.0000
  H   H4600     1.0  0.71380  0.76860  0.79598  1.0000
  H   H4601     1.0  0.59784  0.75021  0.78923  1.0000
  C   C4601     1.0  0.71488  0.81782  0.97554  1.0000
  C   C4602     1.0  0.96065  0.76743  0.79102  1.0000
  H   H4602     1.0  0.65154  0.66465  0.79211  1.0000
  H   H4603     1.0  0.98067  0.78450  0.79134  1.0000
  N   N384      1.0  0.70892  0.83114  0.97883  1.0000
  S   S1535     1.0  0.88717  0.73518  0.79501  1.0000
  C   C4603     1.0  0.65362  0.83097  0.78777  1.0000
  Fe  Fe767     1.0  0.90449  0.71707  0.78725  1.0000
  H   H4604     1.0  0.93005  0.68420  0.78816  1.0000
  C   C4604     1.0  0.95014  0.69029  0.78641  1.0000
  H   H4605     1.0  0.98053  0.68713  0.78395  1.0000
  S   S1536     1.0  0.90119  0.69670  0.78278  1.0000
  C   C4605     1.0  0.98310  0.77613  0.78478  1.0000
  Fe  Fe768     1.0  0.92900  0.73256  0.78387  1.0000
  C   C4606     1.0  0.97281  0.69770  0.78339  1.0000
  H   H4606     1.0  0.77948  0.69884  0.78343  1.0000
  H   H4607     1.0  0.64983  0.70470  0.78434  1.0000
  C   C4607     1.0  0.65769  0.67090  0.78289  1.0000
  H   H4608     1.0  0.74139  0.74930  0.78262  1.0000
  C   C4608     1.0  0.62116  0.78231  0.78290  1.0000
