data_image0
_chemical_formula_structural       SHC2HCSNSCH2NSHCHCH2FeHCHC3HC2HCH2C2H4SCHC2H4FeC4FeHSCHS2FeS2HFe2S2FeS2FeHSCNCSC6H4C6H6S2HC3NH2SCHCHC3HCHC3HSCHCHNC3NC2H7CH4C2HSHCH2SH4SH4CHCHNC2FeCSFeC4SHCFeS2C2H3CHSC4H3C2SC3H4CNCH4CSH2CHC2HCSCFe2HCFeCH3C2HCHSH2NFeCHCH2C2FeH2C2SCSFeS2FeS2FeSFeS3C3H2CFeC2HC2HC3H2C6H5CH2NHC3H2CH7C2NH2CHCN2C4H2C2H2CHCHCH3CHCH2CFeS2FeS2C6H4CHC2H2C3HSC2NCH2FeHSH2CSHC3H3CFeHSHC2SHC2HSH2S2CHCH2CHFeS2FeS2FeSFeS3HC2FeHC6H6C2HC2NH2FeCH2C2HCH2CHCH3CFeCHC2HC3H2CSCSCHNHCH2NC5HCH2CHSHC3SFeS2FeS2FeSFeS3C3HC7H4C2HCFeH3C2H2CH3CH5C2NC2H2SHNH2CNC2H2C2H2C2H2C2HCFeCHSFeS2FeS2C6H5CH3C2NHSCSHCHSHCH2C2H2C2HFeSH3FeHC4H2SCNCH4CFeS2FeS2FeS2FeSFeS3C2H3CH2C7H4NHC3HC2H5CH2C3H2CHCH3CNCH2CHCSHC5NC2HC3HCFeCHCHCHCS2CSC3HS2C2H3FeCHCH2SCHFeC2HC2H4NHCHFeCSCFeH2CH2SHFeS2FeS2HSFeS2FeSC7H4NHC6H4C2H6SCSCHC2H2SHC5HSHCFeNC3H2CH4CHCHSNCH2SH2SNCSC2FeCH4C5HCH5CHCHCNCFeCH2C3SFeCH4FeS2CSHFeCHCHS2NSFeCH2C2H6C2HC2SC2FeH2C2H2CH
_chemical_formula_sum              "S128 H384 C384 N32 Fe64"
_cell_length_a       43.6454
_cell_length_b       43.0279
_cell_length_c       39.2412
_cell_angle_alpha    88.8945
_cell_angle_beta     87.97
_cell_angle_gamma    120.819

_space_group_name_H-M_alt    "P 1"
_space_group_IT_number       1

loop_
  _space_group_symop_operation_xyz
  'x, y, z'

loop_
  _atom_site_type_symbol
  _atom_site_label
  _atom_site_symmetry_multiplicity
  _atom_site_fract_x
  _atom_site_fract_y
  _atom_site_fract_z
  _atom_site_occupancy
  S   S1        1.0  0.45959  0.25888  0.27819  1.0000
  H   H1        1.0  0.03130  0.22639  0.29145  1.0000
  C   C1        1.0  0.39053  0.32224  0.29130  1.0000
  C   C2        1.0  0.32100  0.22084  0.24923  1.0000
  H   H2        1.0  0.13013  0.33018  0.21434  1.0000
  C   C3        1.0  0.05946  0.27039  0.32496  1.0000
  S   S2        1.0  0.20623  0.35527  0.30622  1.0000
  N   N1        1.0  0.12658  0.35669  0.25822  1.0000
  S   S3        1.0  0.10221  0.27853  0.31088  1.0000
  C   C4        1.0  0.40272  0.29886  0.28320  1.0000
  H   H3        1.0  0.17253  0.36376  0.22937  1.0000
  H   H4        1.0  0.49362  0.19216  0.22504  1.0000
  N   N2        1.0  0.34486  0.25577  0.26396  1.0000
  S   S4        1.0  0.36537  0.17499  0.30579  1.0000
  H   H5        1.0  0.32014  0.50298  0.22790  1.0000
  C   C5        1.0  0.25342  0.48891  0.28555  1.0000
  H   H6        1.0  0.49541  0.22298  0.30614  1.0000
  C   C6        1.0  0.50334  0.26615  0.27152  1.0000
  H   H7        1.0  0.27602  0.45670  0.27061  1.0000
  H   H8        1.0  0.30540  0.27101  0.26728  1.0000
  Fe  Fe1       1.0  0.15283  0.32060  0.33525  1.0000
  H   H9        1.0  0.42987  0.30603  0.28817  1.0000
  C   C7        1.0  0.37943  0.26559  0.26932  1.0000
  H   H10       1.0  0.32551  0.22303  0.22107  1.0000
  C   C8        1.0  0.12882  0.40263  0.29373  1.0000
  C   C9        1.0  0.35549  0.31241  0.28497  1.0000
  C   C10       1.0  0.09182  0.38204  0.29975  1.0000
  H   H11       1.0  0.04368  0.33194  0.28995  1.0000
  C   C11       1.0  0.33292  0.27891  0.27110  1.0000
  C   C12       1.0  0.09029  0.33633  0.26399  1.0000
  H   H12       1.0  0.38907  0.24744  0.26343  1.0000
  C   C13       1.0  0.30206  0.50850  0.24244  1.0000
  H   H13       1.0  0.29249  0.21144  0.25596  1.0000
  H   H14       1.0  0.07518  0.30961  0.25374  1.0000
  C   C14       1.0  0.02874  0.24329  0.31004  1.0000
  C   C15       1.0  0.27705  0.48217  0.26664  1.0000
  H   H15       1.0  0.17475  0.40529  0.26898  1.0000
  H   H16       1.0  0.40807  0.34774  0.30281  1.0000
  H   H17       1.0  0.34542  0.33002  0.29180  1.0000
  H   H18       1.0  0.14616  0.32100  0.25278  1.0000
  S   S5        1.0  0.22057  0.45658  0.31570  1.0000
  C   C16       1.0  0.07234  0.34876  0.28465  1.0000
  H   H19       1.0  0.32556  0.19951  0.25995  1.0000
  C   C17       1.0  0.14588  0.38941  0.27287  1.0000
  C   C18       1.0  0.14482  0.34232  0.23759  1.0000
  H   H20       1.0  0.14446  0.42829  0.30581  1.0000
  H   H21       1.0  0.48433  0.23580  0.19147  1.0000
  H   H22       1.0  0.07836  0.39152  0.31659  1.0000
  H   H23       1.0  0.23529  0.21260  0.32023  1.0000
  Fe  Fe2       1.0  0.41878  0.22108  0.32010  1.0000
  C   C19       1.0  0.51360  0.21014  0.20561  1.0000
  C   C20       1.0  0.25626  0.23616  0.33189  1.0000
  C   C21       1.0  0.25255  0.26647  0.33683  1.0000
  C   C22       1.0  0.51380  0.24422  0.28797  1.0000
  Fe  Fe3       1.0  0.21003  0.40148  0.33566  1.0000
  H   H24       1.0  0.22889  0.26617  0.32894  1.0000
  S   S6        1.0  0.29223  0.19914  0.33142  1.0000
  C   C23       1.0  0.50840  0.23470  0.18672  1.0000
  H   H25       1.0  0.23170  0.01295  0.33883  1.0000
  S   S7        1.0  0.23677  0.39263  0.37969  1.0000
  S   S8        1.0  0.15511  0.36734  0.36133  1.0000
  Fe  Fe4       1.0  0.18176  0.35461  0.40247  1.0000
  S   S9        1.0  0.16068  0.34842  0.45699  1.0000
  S   S10       1.0  0.17610  0.30538  0.37813  1.0000
  H   H26       1.0  0.16120  0.41432  0.49223  1.0000
  Fe  Fe5       1.0  0.22964  0.34389  0.35209  1.0000
  Fe  Fe6       1.0  0.39514  0.20787  0.39620  1.0000
  S   S11       1.0  0.41227  0.23154  0.44778  1.0000
  S   S12       1.0  0.34047  0.16085  0.38769  1.0000
  Fe  Fe7       1.0  0.23703  0.38332  0.63120  1.0000
  S   S13       1.0  0.18983  0.32733  0.64133  1.0000
  S   S14       1.0  0.26407  0.40307  0.57860  1.0000
  Fe  Fe8       1.0  0.36993  0.16097  0.63179  1.0000
  H   H27       1.0  0.33925  0.31640  0.65140  1.0000
  S   S15       1.0  0.35814  0.13131  0.58256  1.0000
  C   C24       1.0  0.49293  0.25761  0.56013  1.0000
  N   N3        1.0  0.48004  0.23826  0.53150  1.0000
  C   C25       1.0  0.48636  0.25768  0.49846  1.0000
  S   S16       1.0  0.39341  0.14323  0.67229  1.0000
  C   C26       1.0  0.39273  0.20247  0.48429  1.0000
  C   C27       1.0  0.39420  0.21755  0.51597  1.0000
  C   C28       1.0  0.38233  0.19564  0.54610  1.0000
  C   C29       1.0  0.36924  0.15850  0.54478  1.0000
  C   C30       1.0  0.36685  0.14316  0.51301  1.0000
  C   C31       1.0  0.37847  0.16509  0.48276  1.0000
  H   H28       1.0  0.40479  0.24637  0.51727  1.0000
  H   H29       1.0  0.38374  0.20763  0.57034  1.0000
  H   H30       1.0  0.35671  0.11442  0.51185  1.0000
  H   H31       1.0  0.37742  0.15332  0.45839  1.0000
  C   C32       1.0  0.19050  0.36071  0.48980  1.0000
  C   C33       1.0  0.22741  0.38291  0.48340  1.0000
  C   C34       1.0  0.25007  0.39517  0.51081  1.0000
  C   C35       1.0  0.23581  0.38533  0.54454  1.0000
  C   C36       1.0  0.19908  0.36212  0.55070  1.0000
  C   C37       1.0  0.17654  0.34964  0.52340  1.0000
  H   H32       1.0  0.23838  0.39141  0.45748  1.0000
  H   H33       1.0  0.27856  0.41297  0.50591  1.0000
  H   H34       1.0  0.18774  0.35464  0.57651  1.0000
  H   H35       1.0  0.14800  0.33224  0.52843  1.0000
  H   H36       1.0  0.29655  0.06585  0.45370  1.0000
  H   H37       1.0  0.04329  0.33137  0.64537  1.0000
  S   S17       1.0  0.42447  0.18887  0.36252  1.0000
  S   S18       1.0  0.39395  0.24417  0.35494  1.0000
  H   H38       1.0  0.43740  0.15324  0.56734  1.0000
  C   C38       1.0  0.31045  0.29730  0.36114  1.0000
  C   C39       1.0  0.21015  0.29536  0.46689  1.0000
  C   C40       1.0  0.04026  0.30786  0.65915  1.0000
  N   N4        1.0  0.25298  0.03171  0.65234  1.0000
  H   H39       1.0  0.44923  0.18580  0.51138  1.0000
  H   H40       1.0  0.27952  0.06221  0.41159  1.0000
  S   S19       1.0  0.36191  0.08768  0.34978  1.0000
  C   C41       1.0  0.28095  0.04930  0.62864  1.0000
  H   H41       1.0  0.47083  0.27162  0.49802  1.0000
  C   C42       1.0  0.28891  0.02974  0.60552  1.0000
  H   H42       1.0  0.32599  0.08011  0.41574  1.0000
  C   C43       1.0  0.31634  0.29524  0.66618  1.0000
  C   C44       1.0  0.46742  0.20209  0.59462  1.0000
  C   C45       1.0  0.46058  0.20119  0.53383  1.0000
  H   H43       1.0  0.33178  0.32110  0.37215  1.0000
  C   C46       1.0  0.45388  0.18258  0.56541  1.0000
  H   H44       1.0  0.47770  0.23906  0.47690  1.0000
  C   C47       1.0  0.15904  0.40982  0.59060  1.0000
  C   C48       1.0  0.02191  0.28740  0.35703  1.0000
  C   C49       1.0  0.32119  0.04725  0.34331  1.0000
  H   H45       1.0  0.01956  0.30495  0.37495  1.0000
  S   S20       1.0  0.32574  0.15729  0.66605  1.0000
  C   C50       1.0  0.19081  0.43287  0.57151  1.0000
  H   H46       1.0  0.51519  0.27796  0.49362  1.0000
  C   C51       1.0  0.16071  0.41366  0.51994  1.0000
  H   H47       1.0  0.19664  0.29278  0.52038  1.0000
  N   N5        1.0  0.25290  0.31696  0.51050  1.0000
  C   C52       1.0  0.28008  0.32729  0.48624  1.0000
  C   C53       1.0  0.21824  0.30084  0.50127  1.0000
  C   C54       1.0  0.27290  0.32192  0.45166  1.0000
  N   N6        1.0  0.19141  0.43422  0.53660  1.0000
  C   C55       1.0  0.23771  0.30581  0.44204  1.0000
  C   C56       1.0  0.26117  0.32227  0.54660  1.0000
  H   H48       1.0  0.30752  0.33983  0.49356  1.0000
  H   H49       1.0  0.49705  0.25515  0.61487  1.0000
  H   H50       1.0  0.29436  0.33022  0.43225  1.0000
  H   H51       1.0  0.23836  0.31943  0.56281  1.0000
  H   H52       1.0  0.26797  0.30217  0.55615  1.0000
  H   H53       1.0  0.28400  0.35010  0.55005  1.0000
  H   H54       1.0  0.46215  0.18809  0.61937  1.0000
  C   C57       1.0  0.22493  0.45883  0.51711  1.0000
  H   H55       1.0  0.33784  0.26737  0.36403  1.0000
  H   H56       1.0  0.34581  0.01478  0.34383  1.0000
  H   H57       1.0  0.15859  0.40850  0.61824  1.0000
  H   H58       1.0  0.07897  0.31281  0.36080  1.0000
  C   C58       1.0  0.12861  0.38986  0.53829  1.0000
  C   C59       1.0  0.12791  0.38785  0.57389  1.0000
  H   H59       1.0  0.21515  0.44899  0.58478  1.0000
  S   S21       1.0  0.40761  0.21993  0.63941  1.0000
  H   H60       1.0  0.10348  0.36905  0.58865  1.0000
  C   C60       1.0  0.29907  0.05948  0.42684  1.0000
  H   H61       1.0  0.31136  0.04398  0.58702  1.0000
  H   H62       1.0  0.22870  0.48635  0.51490  1.0000
  S   S22       1.0  0.21365  0.41152  0.65999  1.0000
  H   H63       1.0  0.23192  0.30153  0.41531  1.0000
  H   H64       1.0  0.18275  0.28359  0.45952  1.0000
  H   H65       1.0  0.10474  0.37246  0.52491  1.0000
  H   H66       1.0  0.50765  0.28698  0.55842  1.0000
  S   S23       1.0  0.11299  0.34845  0.66368  1.0000
  H   H67       1.0  0.34878  0.04094  0.42706  1.0000
  H   H68       1.0  0.22508  0.44909  0.49108  1.0000
  H   H69       1.0  0.28659  0.32275  0.66382  1.0000
  H   H70       1.0  0.22891  0.06275  0.66337  1.0000
  C   C61       1.0  0.31398  0.26687  0.35655  1.0000
  H   H71       1.0  0.29745  0.07866  0.62762  1.0000
  C   C62       1.0  0.32181  0.01780  0.42666  1.0000
  H   H72       1.0  0.24806  0.46034  0.52978  1.0000
  N   N7        1.0  0.29335  0.02284  0.42531  1.0000
  C   C63       1.0  0.05572  0.29198  0.34898  1.0000
  C   C64       1.0  0.48705  0.23985  0.59206  1.0000
  Fe  Fe9       1.0  0.36920  0.14397  0.35060  1.0000
  C   C65       1.0  0.28895  0.04662  0.34135  1.0000
  S   S24       1.0  0.27837  0.33757  0.35485  1.0000
  Fe  Fe10      1.0  0.34116  0.19600  0.34398  1.0000
  C   C66       1.0  0.27990  0.29740  0.35105  1.0000
  C   C67       1.0  0.07069  0.30838  0.67064  1.0000
  C   C68       1.0  0.28711  0.23632  0.34141  1.0000
  C   C69       1.0  0.32095  0.01450  0.34252  1.0000
  S   S25       1.0  0.35710  0.26392  0.67255  1.0000
  H   H73       1.0  0.28883  0.07170  0.34172  1.0000
  C   C70       1.0  0.25663  0.01331  0.33974  1.0000
  Fe  Fe11      1.0  0.23909  0.40424  0.70580  1.0000
  S   S26       1.0  0.19112  0.34950  0.72117  1.0000
  S   S27       1.0  0.27121  0.44310  0.74697  1.0000
  C   C71       1.0  0.31423  0.38230  0.74590  1.0000
  C   C72       1.0  0.51299  0.24434  0.72286  1.0000
  H   H74       1.0  0.32355  0.04836  0.70001  1.0000
  H   H75       1.0  0.02775  0.34032  0.76197  1.0000
  H   H76       1.0  0.31117  0.40581  0.74524  1.0000
  C   C73       1.0  0.27980  0.48787  0.75230  1.0000
  H   H77       1.0  0.39882  0.12915  0.74637  1.0000
  S   S28       1.0  0.38788  0.20167  0.72151  1.0000
  C   C74       1.0  0.30037  0.03398  0.71748  1.0000
  C   C75       1.0  0.44661  0.16163  0.81691  1.0000
  C   C76       1.0  0.25767  0.24159  0.70527  1.0000
  C   C77       1.0  0.29167  0.32036  0.76123  1.0000
  H   H78       1.0  0.25462  0.34379  0.80388  1.0000
  H   H79       1.0  0.28769  0.21423  0.70784  1.0000
  H   H80       1.0  0.27021  0.29444  0.77183  1.0000
  C   C78       1.0  0.30084  0.50804  0.77905  1.0000
  C   C79       1.0  0.32271  0.32267  0.74716  1.0000
  S   S29       1.0  0.22119  0.27816  0.70633  1.0000
  C   C80       1.0  0.41694  0.14598  0.79666  1.0000
  C   C81       1.0  0.49758  0.24770  0.75340  1.0000
  C   C82       1.0  0.29396  0.05288  0.74292  1.0000
  H   H81       1.0  0.25000  0.48859  0.71012  1.0000
  H   H82       1.0  0.32529  0.29887  0.74694  1.0000
  H   H83       1.0  0.36589  0.41087  0.71885  1.0000
  H   H84       1.0  0.46967  0.23970  0.75490  1.0000
  C   C83       1.0  0.34952  0.35530  0.73165  1.0000
  N   N8        1.0  0.28769  0.34989  0.76032  1.0000
  C   C84       1.0  0.28737  0.23768  0.69789  1.0000
  H   H85       1.0  0.37310  0.35692  0.71956  1.0000
  H   H86       1.0  0.25933  0.04792  0.78572  1.0000
  H   H87       1.0  0.23515  0.22090  0.72083  1.0000
  H   H88       1.0  0.45978  0.14950  0.72143  1.0000
  C   C85       1.0  0.42163  0.14117  0.76226  1.0000
  S   S30       1.0  0.32230  0.09984  0.74872  1.0000
  H   H89       1.0  0.23111  0.32258  0.76610  1.0000
  H   H90       1.0  0.39041  0.13770  0.80735  1.0000
  C   C86       1.0  0.34537  0.38540  0.73106  1.0000
  H   H91       1.0  0.25288  0.37070  0.76919  1.0000
  C   C87       1.0  0.06644  0.27788  0.68851  1.0000
  C   C88       1.0  0.25501  0.34664  0.77569  1.0000
  H   H92       1.0  0.51127  0.17662  0.75823  1.0000
  C   C89       1.0  0.26434  0.03378  0.76580  1.0000
  S   S31       1.0  0.48757  0.22498  0.68658  1.0000
  C   C90       1.0  0.26622  0.50370  0.73077  1.0000
  Fe  Fe12      1.0  0.21793  0.32687  0.68811  1.0000
  Fe  Fe13      1.0  0.35206  0.14359  0.70718  1.0000
  H   H93       1.0  0.44284  0.16544  0.84364  1.0000
  C   C91       1.0  0.45572  0.15212  0.74843  1.0000
  Fe  Fe14      1.0  0.42768  0.20221  0.68331  1.0000
  C   C92       1.0  0.03200  0.24737  0.69521  1.0000
  H   H94       1.0  0.08962  0.27794  0.69753  1.0000
  H   H95       1.0  0.31148  0.49610  0.79589  1.0000
  H   H96       1.0  0.23000  0.03655  0.69957  1.0000
  C   C93       1.0  0.25724  0.27238  0.69328  1.0000
  C   C94       1.0  0.48476  0.16748  0.76942  1.0000
  H   H97       1.0  0.02896  0.22401  0.70932  1.0000
  C   C95       1.0  0.31711  0.26481  0.67872  1.0000
  H   H98       1.0  0.50584  0.26270  0.80596  1.0000
  S   S32       1.0  0.26690  0.38090  0.67562  1.0000
  H   H99       1.0  0.26992  0.07654  0.68439  1.0000
  H   H100      1.0  0.03327  0.30873  0.73681  1.0000
  N   N9        1.0  0.47997  0.17219  0.80318  1.0000
  Fe  Fe15      1.0  0.36496  0.21547  0.67689  1.0000
  C   C96       1.0  0.24489  0.05286  0.67596  1.0000
  H   H101      1.0  0.50865  0.16653  0.84309  1.0000
  C   C97       1.0  0.51039  0.18775  0.82523  1.0000
  H   H102      1.0  0.51099  0.20981  0.84008  1.0000
  H   H103      1.0  0.01935  0.33670  0.71688  1.0000
  C   C98       1.0  0.28649  0.29891  0.67318  1.0000
  C   C99       1.0  0.51817  0.26074  0.78233  1.0000
  Fe  Fe16      1.0  0.16734  0.35485  0.67291  1.0000
  H   H104      1.0  0.28821  0.57321  0.15348  1.0000
  H   H105      1.0  0.48271  0.82164  0.22729  1.0000
  C   C100      1.0  0.29563  0.57832  0.12635  1.0000
  C   C101      1.0  0.43541  0.64139  0.22312  1.0000
  S   S33       1.0  0.25145  0.81779  0.27211  1.0000
  C   C102      1.0  0.46730  0.66728  0.20601  1.0000
  S   S34       1.0  0.18069  0.83954  0.31052  1.0000
  Fe  Fe17      1.0  0.33193  0.69219  0.21479  1.0000
  S   S35       1.0  0.30546  0.64587  0.17947  1.0000
  S   S36       1.0  0.30184  0.70276  0.25746  1.0000
  Fe  Fe18      1.0  0.40678  0.70940  0.19179  1.0000
  S   S37       1.0  0.38613  0.66470  0.15445  1.0000
  S   S38       1.0  0.46659  0.74720  0.19676  1.0000
  Fe  Fe19      1.0  0.34833  0.68286  0.13948  1.0000
  S   S39       1.0  0.33136  0.68680  0.08527  1.0000
  Fe  Fe20      1.0  0.34499  0.63085  0.19660  1.0000
  S   S40       1.0  0.33550  0.57403  0.20596  1.0000
  S   S41       1.0  0.37185  0.73046  0.17405  1.0000
  S   S42       1.0  0.36871  0.67433  0.23466  1.0000
  C   C103      1.0  0.34567  0.68501  0.04233  1.0000
  C   C104      1.0  0.37099  0.67507  0.03461  1.0000
  C   C105      1.0  0.42570  0.79800  0.23388  1.0000
  H   H106      1.0  0.38413  0.67016  0.05509  1.0000
  H   H107      1.0  0.23917  0.58150  0.04585  1.0000
  C   C106      1.0  0.49222  0.73477  0.29316  1.0000
  Fe  Fe21      1.0  0.22438  0.82689  0.31855  1.0000
  C   C107      1.0  0.30388  0.54187  0.23702  1.0000
  C   C108      1.0  0.28035  0.54863  0.25602  1.0000
  H   H108      1.0  0.17435  0.79530  0.19446  1.0000
  C   C109      1.0  0.16071  0.75113  0.26910  1.0000
  C   C110      1.0  0.39588  0.77981  0.25674  1.0000
  H   H109      1.0  0.28139  0.57413  0.25220  1.0000
  C   C111      1.0  0.13357  0.72973  0.29380  1.0000
  C   C112      1.0  0.48996  0.75140  0.23410  1.0000
  C   C113      1.0  0.47252  0.73124  0.26431  1.0000
  H   H110      1.0  0.19997  0.82222  0.22915  1.0000
  H   H111      1.0  0.44394  0.71276  0.26538  1.0000
  C   C114      1.0  0.26578  0.78600  0.26873  1.0000
  C   C115      1.0  0.25948  0.76097  0.29529  1.0000
  C   C116      1.0  0.27052  0.73561  0.29120  1.0000
  C   C117      1.0  0.28797  0.73494  0.26060  1.0000
  C   C118      1.0  0.29437  0.76003  0.23406  1.0000
  C   C119      1.0  0.28320  0.78533  0.23811  1.0000
  H   H112      1.0  0.24614  0.76114  0.31899  1.0000
  H   H113      1.0  0.26548  0.71634  0.31192  1.0000
  H   H114      1.0  0.30771  0.75985  0.21036  1.0000
  H   H115      1.0  0.20367  0.78453  0.21567  1.0000
  H   H116      1.0  0.36957  0.77122  0.24772  1.0000
  C   C120      1.0  0.33318  0.58160  0.07819  1.0000
  H   H117      1.0  0.23709  0.52775  0.29449  1.0000
  H   H118      1.0  0.08194  0.79834  0.31740  1.0000
  N   N10       1.0  0.49956  0.67022  0.25544  1.0000
  H   H119      1.0  0.41104  0.60978  0.26986  1.0000
  C   C121      1.0  0.49937  0.68134  0.22256  1.0000
  C   C122      1.0  0.32382  0.57501  0.11308  1.0000
  C   C123      1.0  0.18469  0.79433  0.21966  1.0000
  H   H120      1.0  0.46708  0.67721  0.18042  1.0000
  H   H121      1.0  0.02571  0.78556  0.29123  1.0000
  C   C124      1.0  0.46841  0.64459  0.27231  1.0000
  H   H122      1.0  0.41031  0.63041  0.21069  1.0000
  H   H123      1.0  0.28816  0.80456  0.21738  1.0000
  H   H124      1.0  0.47858  0.71876  0.31630  1.0000
  H   H125      1.0  0.13795  0.71468  0.31359  1.0000
  H   H126      1.0  0.18598  0.75205  0.26988  1.0000
  H   H127      1.0  0.32154  0.59653  0.02994  1.0000
  H   H128      1.0  0.42256  0.80321  0.20744  1.0000
  C   C125      1.0  0.32911  0.69143  0.01509  1.0000
  C   C126      1.0  0.43586  0.62987  0.25645  1.0000
  N   N11       1.0  0.15559  0.77086  0.24458  1.0000
  H   H129      1.0  0.26490  0.62798  0.05867  1.0000
  H   H130      1.0  0.43580  0.77550  0.32689  1.0000
  C   C127      1.0  0.12400  0.77038  0.24428  1.0000
  H   H131      1.0  0.07100  0.74835  0.26796  1.0000
  C   C128      1.0  0.43277  0.78227  0.30095  1.0000
  N   N12       1.0  0.28678  0.59515  0.07040  1.0000
  N   N13       1.0  0.39973  0.77255  0.28990  1.0000
  C   C129      1.0  0.36799  0.75237  0.31308  1.0000
  C   C130      1.0  0.09609  0.74880  0.26825  1.0000
  C   C131      1.0  0.10100  0.72842  0.29316  1.0000
  C   C132      1.0  0.27752  0.58885  0.10459  1.0000
  H   H132      1.0  0.12031  0.78691  0.22557  1.0000
  H   H133      1.0  0.25631  0.59242  0.11527  1.0000
  C   C133      1.0  0.46318  0.80076  0.27883  1.0000
  C   C134      1.0  0.45952  0.80856  0.24507  1.0000
  H   H134      1.0  0.35528  0.57943  0.06762  1.0000
  H   H135      1.0  0.48931  0.80793  0.28744  1.0000
  C   C135      1.0  0.25522  0.52224  0.28002  1.0000
  H   H136      1.0  0.46857  0.63567  0.29831  1.0000
  C   C136      1.0  0.31400  0.59131  0.05702  1.0000
  H   H137      1.0  0.27968  0.61421  0.02210  1.0000
  C   C137      1.0  0.02465  0.76844  0.31236  1.0000
  H   H138      1.0  0.35546  0.72284  0.30928  1.0000
  H   H139      1.0  0.33845  0.56757  0.12997  1.0000
  H   H140      1.0  0.07984  0.71225  0.31242  1.0000
  C   C138      1.0  0.26653  0.60501  0.04811  1.0000
  H   H141      1.0  0.30956  0.69925  0.02058  1.0000
  C   C139      1.0  0.05656  0.77574  0.32715  1.0000
  H   H142      1.0  0.34787  0.76020  0.30792  1.0000
  H   H143      1.0  0.27361  0.97622  0.58895  1.0000
  C   C140      1.0  0.26783  0.99196  0.60657  1.0000
  Fe  Fe22      1.0  0.22144  0.83535  0.39525  1.0000
  S   S43       1.0  0.24205  0.82805  0.44487  1.0000
  S   S44       1.0  0.17860  0.84907  0.39324  1.0000
  Fe  Fe23      1.0  0.21004  0.86551  0.62942  1.0000
  S   S45       1.0  0.19390  0.80818  0.64448  1.0000
  S   S46       1.0  0.21167  0.89093  0.57789  1.0000
  C   C141      1.0  0.23560  0.84745  0.48149  1.0000
  C   C142      1.0  0.22239  0.87089  0.47930  1.0000
  C   C143      1.0  0.21631  0.88505  0.50901  1.0000
  C   C144      1.0  0.22266  0.87520  0.54112  1.0000
  C   C145      1.0  0.23620  0.85204  0.54334  1.0000
  C   C146      1.0  0.24291  0.83841  0.51352  1.0000
  H   H144      1.0  0.21675  0.87803  0.45480  1.0000
  H   H145      1.0  0.20585  0.90299  0.50719  1.0000
  H   H146      1.0  0.24139  0.84452  0.56802  1.0000
  H   H147      1.0  0.25336  0.82046  0.51534  1.0000
  C   C147      1.0  0.25335  0.95851  0.42319  1.0000
  H   H148      1.0  0.16830  0.76140  0.51240  1.0000
  C   C148      1.0  0.14941  0.79518  0.53197  1.0000
  C   C149      1.0  0.25631  0.98045  0.33996  1.0000
  H   H149      1.0  0.08835  0.80646  0.64924  1.0000
  H   H150      1.0  0.14168  0.75934  0.42298  1.0000
  C   C150      1.0  0.13289  0.81471  0.52431  1.0000
  C   C151      1.0  0.28220  0.95311  0.42441  1.0000
  C   C152      1.0  0.15428  0.77547  0.50660  1.0000
  H   H151      1.0  0.10806  0.82899  0.48536  1.0000
  S   S47       1.0  0.25523  0.89112  0.66476  1.0000
  C   C153      1.0  0.12073  0.81371  0.49168  1.0000
  C   C154      1.0  0.14724  0.75321  0.44886  1.0000
  N   N14       1.0  0.14249  0.77481  0.47462  1.0000
  C   C155      1.0  0.05554  0.75339  0.35407  1.0000
  H   H152      1.0  0.15957  0.79640  0.55710  1.0000
  H   H153      1.0  0.11572  0.79232  0.44180  1.0000
  Fe  Fe24      1.0  0.15251  0.80366  0.35744  1.0000
  H   H154      1.0  0.33937  0.97905  0.42640  1.0000
  S   S48       1.0  0.09503  0.75918  0.37158  1.0000
  H   H155      1.0  0.17530  0.75930  0.44764  1.0000
  H   H156      1.0  0.22657  0.93570  0.42045  1.0000
  C   C156      1.0  0.25941  0.99374  0.42385  1.0000
  S   S49       1.0  0.19378  0.78737  0.36234  1.0000
  H   H157      1.0  0.12886  0.72391  0.45516  1.0000
  C   C157      1.0  0.12544  0.79317  0.46708  1.0000
  C   C158      1.0  0.23186  0.99473  0.65321  1.0000
  C   C159      1.0  0.23911  0.97432  0.63053  1.0000
  H   H158      1.0  0.23689  0.99769  0.42196  1.0000
  H   H159      1.0  0.22277  0.94495  0.63164  1.0000
  H   H160      1.0  0.13027  0.83117  0.54352  1.0000
  C   C160      1.0  0.03084  0.77941  0.64715  1.0000
  Fe  Fe25      1.0  0.21029  0.88418  0.34702  1.0000
  H   H161      1.0  0.03176  0.79898  0.62878  1.0000
  S   S50       1.0  0.25558  0.87405  0.35196  1.0000
  H   H162      1.0  0.02116  0.70690  0.38743  1.0000
  C   C161      1.0  0.06295  0.78369  0.65865  1.0000
  C   C162      1.0  0.31669  0.98291  0.42618  1.0000
  S   S51       1.0  0.16989  0.86627  0.66617  1.0000
  H   H163      1.0  0.27792  0.92595  0.42325  1.0000
  C   C163      1.0  0.02226  0.72443  0.36669  1.0000
  C   C164      1.0  0.28869  0.98124  0.34086  1.0000
  H   H164      1.0  0.28885  0.95621  0.34080  1.0000
  S   S52       1.0  0.21485  0.93907  0.34156  1.0000
  H   H165      1.0  0.20988  0.98067  0.67219  1.0000
  H   H166      1.0  0.37459  0.75775  0.34021  1.0000
  S   S53       1.0  0.10146  0.76487  0.70034  1.0000
  S   S54       1.0  0.19827  0.83282  0.72416  1.0000
  C   C165      1.0  0.49099  0.73081  0.76910  1.0000
  H   H167      1.0  0.15297  0.85362  0.76768  1.0000
  C   C166      1.0  0.48769  0.71157  0.86785  1.0000
  H   H168      1.0  0.21779  0.98253  0.78084  1.0000
  H   H169      1.0  0.43253  0.73524  0.90688  1.0000
  C   C167      1.0  0.24079  0.99659  0.76308  1.0000
  H   H170      1.0  0.23449  0.65820  0.82160  1.0000
  Fe  Fe26      1.0  0.40279  0.72262  0.81052  1.0000
  S   S55       1.0  0.38584  0.66699  0.83217  1.0000
  S   S56       1.0  0.45708  0.76791  0.78873  1.0000
  Fe  Fe27      1.0  0.32931  0.71345  0.82664  1.0000
  S   S57       1.0  0.30703  0.65731  0.85053  1.0000
  S   S58       1.0  0.29333  0.73742  0.82377  1.0000
  Fe  Fe28      1.0  0.35954  0.68021  0.87617  1.0000
  S   S59       1.0  0.37147  0.66863  0.93047  1.0000
  Fe  Fe29      1.0  0.33449  0.64810  0.80540  1.0000
  S   S60       1.0  0.30256  0.60393  0.76797  1.0000
  S   S61       1.0  0.37958  0.73696  0.85556  1.0000
  S   S62       1.0  0.35382  0.70324  0.78056  1.0000
  H   H171      1.0  0.44029  0.68264  0.90135  1.0000
  C   C168      1.0  0.36180  0.67659  0.97310  1.0000
  C   C169      1.0  0.33715  0.68740  0.98078  1.0000
  Fe  Fe30      1.0  0.23604  0.83346  0.68350  1.0000
  H   H172      1.0  0.32385  0.69216  0.96034  1.0000
  C   C170      1.0  0.28068  0.79399  0.72869  1.0000
  C   C171      1.0  0.30728  0.78471  0.72856  1.0000
  C   C172      1.0  0.31194  0.76799  0.75760  1.0000
  C   C173      1.0  0.29015  0.76055  0.78726  1.0000
  C   C174      1.0  0.26392  0.77034  0.78759  1.0000
  C   C175      1.0  0.25910  0.78684  0.75847  1.0000
  H   H173      1.0  0.32421  0.79023  0.70573  1.0000
  H   H174      1.0  0.33229  0.76073  0.75694  1.0000
  H   H175      1.0  0.24703  0.76490  0.81044  1.0000
  H   H176      1.0  0.23862  0.79392  0.75902  1.0000
  H   H177      1.0  0.21542  0.68461  0.81047  1.0000
  H   H178      1.0  0.39793  0.66238  0.99483  1.0000
  C   C176      1.0  0.27356  0.53920  0.73601  1.0000
  C   C177      1.0  0.03809  0.80252  0.73646  1.0000
  H   H179      1.0  0.28216  0.98143  0.69605  1.0000
  C   C178      1.0  0.30824  0.54359  0.78426  1.0000
  C   C179      1.0  0.29458  0.55937  0.76275  1.0000
  N   N15       1.0  0.09898  0.83053  0.75253  1.0000
  H   H180      1.0  0.32441  0.55870  0.80494  1.0000
  H   H181      1.0  0.49088  0.68836  0.86471  1.0000
  Fe  Fe31      1.0  0.15723  0.81125  0.68426  1.0000
  C   C180      1.0  0.23243  0.69135  0.74474  1.0000
  H   H182      1.0  0.29527  0.65552  0.72233  1.0000
  H   H183      1.0  0.45459  0.79791  0.89859  1.0000
  C   C181      1.0  0.51150  0.74462  0.85087  1.0000
  C   C182      1.0  0.27318  0.68740  0.70439  1.0000
  H   H184      1.0  0.48960  0.79449  0.69228  1.0000
  C   C183      1.0  0.25939  0.65754  0.76023  1.0000
  H   H185      1.0  0.02677  0.83301  0.70022  1.0000
  H   H186      1.0  0.46667  0.70614  0.77761  1.0000
  C   C184      1.0  0.06466  0.80173  0.75473  1.0000
  H   H187      1.0  0.19224  0.63686  0.80106  1.0000
  C   C185      1.0  0.27701  0.99607  0.71531  1.0000
  H   H188      1.0  0.26285  0.55109  0.71921  1.0000
  H   H189      1.0  0.02782  0.71009  0.71353  1.0000
  H   H190      1.0  0.08940  0.88538  0.69653  1.0000
  C   C186      1.0  0.49296  0.76416  0.77142  1.0000
  Fe  Fe32      1.0  0.21399  0.88824  0.70250  1.0000
  C   C187      1.0  0.27756  0.66569  0.72824  1.0000
  H   H191      1.0  0.21543  0.70217  0.75118  1.0000
  C   C188      1.0  0.12609  0.82883  0.77213  1.0000
  C   C189      1.0  0.10790  0.86048  0.73220  1.0000
  H   H192      1.0  0.26323  0.64091  0.77873  1.0000
  C   C190      1.0  0.51029  0.79462  0.67592  1.0000
  C   C191      1.0  0.21875  0.66195  0.80194  1.0000
  C   C192      1.0  0.50633  0.77394  0.85441  1.0000
  H   H193      1.0  0.49410  0.73967  0.68988  1.0000
  H   H194      1.0  0.05792  0.77748  0.76985  1.0000
  C   C193      1.0  0.25027  0.70013  0.71253  1.0000
  S   S63       1.0  0.27451  0.81280  0.69061  1.0000
  C   C194      1.0  0.45934  0.70833  0.88835  1.0000
  S   S64       1.0  0.21433  0.93073  0.73591  1.0000
  C   C195      1.0  0.24682  0.97739  0.73800  1.0000
  H   H195      1.0  0.45968  0.80266  0.85267  1.0000
  N   N16       1.0  0.23766  0.67086  0.76831  1.0000
  H   H196      1.0  0.13520  0.88324  0.73025  1.0000
  C   C196      1.0  0.45503  0.73822  0.89135  1.0000
  H   H197      1.0  0.11872  0.82593  0.79986  1.0000
  H   H198      1.0  0.49806  0.82692  0.87821  1.0000
  N   N17       1.0  0.47840  0.77050  0.87450  1.0000
  C   C197      1.0  0.04697  0.83275  0.71541  1.0000
  C   C198      1.0  0.06203  0.75886  0.68281  1.0000
  C   C199      1.0  0.02877  0.72946  0.69488  1.0000
  C   C200      1.0  0.47241  0.80102  0.87618  1.0000
  C   C201      1.0  0.08209  0.86196  0.71319  1.0000
  H   H199      1.0  0.12823  0.80521  0.76450  1.0000
  C   C202      1.0  0.37872  0.67062  0.00031  1.0000
  H   H200      1.0  0.28778  0.69467  0.67979  1.0000
  H   H201      1.0  0.24725  0.71777  0.69452  1.0000
  C   C203      1.0  0.51303  0.76366  0.67454  1.0000
  H   H202      1.0  0.77876  0.39755  0.27543  1.0000
  S   S65       1.0  0.82412  0.08263  0.30351  1.0000
  H   H203      1.0  0.72488  0.47224  0.22250  1.0000
  C   C204      1.0  0.54794  0.24932  0.28045  1.0000
  C   C205      1.0  0.53532  0.25915  0.16315  1.0000
  C   C206      1.0  0.78696  0.03973  0.31693  1.0000
  S   S66       1.0  0.85813  0.18954  0.30142  1.0000
  Fe  Fe33      1.0  0.66148  0.31795  0.21095  1.0000
  S   S67       1.0  0.67576  0.36961  0.18167  1.0000
  S   S68       1.0  0.61332  0.27901  0.24600  1.0000
  Fe  Fe34      1.0  0.73190  0.32258  0.18839  1.0000
  S   S69       1.0  0.75031  0.37374  0.15619  1.0000
  S   S70       1.0  0.77083  0.30218  0.19305  1.0000
  Fe  Fe35      1.0  0.73114  0.39232  0.20131  1.0000
  S   S71       1.0  0.77347  0.44385  0.22601  1.0000
  Fe  Fe36      1.0  0.69408  0.34719  0.13847  1.0000
  S   S72       1.0  0.67282  0.34657  0.08502  1.0000
  S   S73       1.0  0.71516  0.34204  0.23364  1.0000
  S   S74       1.0  0.67708  0.29447  0.16743  1.0000
  C   C207      1.0  0.68561  0.34371  0.04165  1.0000
  C   C208      1.0  0.71665  0.34313  0.03265  1.0000
  C   C209      1.0  0.77633  0.16684  0.22857  1.0000
  H   H204      1.0  0.73378  0.34411  0.05239  1.0000
  C   C210      1.0  0.71767  0.11111  0.30408  1.0000
  C   C211      1.0  0.77651  0.23686  0.28462  1.0000
  C   C212      1.0  0.74804  0.24325  0.28299  1.0000
  C   C213      1.0  0.74578  0.26301  0.25511  1.0000
  C   C214      1.0  0.77182  0.27622  0.22826  1.0000
  C   C215      1.0  0.80020  0.26963  0.22976  1.0000
  C   C216      1.0  0.80274  0.25031  0.25791  1.0000
  H   H205      1.0  0.72371  0.13329  0.32170  1.0000
  H   H206      1.0  0.72386  0.26795  0.25437  1.0000
  H   H207      1.0  0.82054  0.27986  0.20914  1.0000
  H   H208      1.0  0.82483  0.24567  0.25886  1.0000
  C   C217      1.0  0.57212  0.27643  0.25655  1.0000
  C   C218      1.0  0.74996  0.15284  0.25518  1.0000
  H   H209      1.0  0.51990  0.31083  0.23515  1.0000
  C   C219      1.0  0.56196  0.29887  0.24054  1.0000
  Fe  Fe37      1.0  0.83538  0.13446  0.32850  1.0000
  H   H210      1.0  0.80874  0.11070  0.24086  1.0000
  H   H211      1.0  0.58029  0.31987  0.22216  1.0000
  H   H212      1.0  0.76150  0.08666  0.28687  1.0000
  C   C220      1.0  0.78741  0.37878  0.28231  1.0000
  C   C221      1.0  0.75886  0.03672  0.33784  1.0000
  H   H213      1.0  0.73398  0.16524  0.25963  1.0000
  H   H214      1.0  0.83677  0.34530  0.25106  1.0000
  C   C222      1.0  0.81961  0.39250  0.22654  1.0000
  H   H215      1.0  0.61233  0.31069  0.14832  1.0000
  H   H216      1.0  0.72759  0.23297  0.30352  1.0000
  H   H217      1.0  0.78046  0.18964  0.21252  1.0000
  C   C223      1.0  0.77372  0.48186  0.24347  1.0000
  H   H218      1.0  0.75824  0.36382  0.33123  1.0000
  H   H219      1.0  0.55057  0.19257  0.21652  1.0000
  H   H220      1.0  0.69093  0.10133  0.29395  1.0000
  H   H221      1.0  0.58405  0.29304  0.11273  1.0000
  H   H222      1.0  0.79689  0.39307  0.21538  1.0000
  C   C224      1.0  0.76544  0.10920  0.27065  1.0000
  C   C225      1.0  0.99472  0.23815  0.31867  1.0000
  N   N18       1.0  0.80850  0.37296  0.25988  1.0000
  C   C226      1.0  0.77585  0.35989  0.31400  1.0000
  C   C227      1.0  0.82007  0.34993  0.26883  1.0000
  H   H223      1.0  0.61174  0.27548  0.12374  1.0000
  H   H224      1.0  0.97139  0.21754  0.30665  1.0000
  S   S75       1.0  0.77741  0.21129  0.32019  1.0000
  H   H225      1.0  0.63974  0.34276  0.02168  1.0000
  N   N19       1.0  0.74500  0.12457  0.27596  1.0000
  H   H226      1.0  0.82817  0.37889  0.20791  1.0000
  H   H227      1.0  0.84158  0.42082  0.22927  1.0000
  C   C228      1.0  0.80259  0.50550  0.26283  1.0000
  N   N20       1.0  0.56632  0.25876  0.15823  1.0000
  C   C229      1.0  0.57177  0.23501  0.17693  1.0000
  C   C230      1.0  0.52768  0.29364  0.24793  1.0000
  H   H228      1.0  0.81772  0.31182  0.30707  1.0000
  H   H229      1.0  0.82327  0.49945  0.26772  1.0000
  C   C231      1.0  0.79770  0.15173  0.22335  1.0000
  C   C232      1.0  0.59489  0.28574  0.13468  1.0000
  H   H230      1.0  0.59709  0.23600  0.17450  1.0000
  H   H231      1.0  0.55553  0.23184  0.29301  1.0000
  C   C233      1.0  0.79217  0.12262  0.24441  1.0000
  C   C234      1.0  0.74719  0.49006  0.23740  1.0000
  H   H232      1.0  0.81863  0.16266  0.20317  1.0000
  H   H233      1.0  0.71662  0.08846  0.31926  1.0000
  C   C235      1.0  0.66384  0.34237  0.01526  1.0000
  C   C236      1.0  0.54546  0.21024  0.20073  1.0000
  H   H234      1.0  0.53161  0.27899  0.14942  1.0000
  C   C237      1.0  0.78675  0.33561  0.32298  1.0000
  Fe  Fe38      1.0  0.81730  0.19420  0.33419  1.0000
  C   C238      1.0  0.80936  0.33090  0.30047  1.0000
  H   H235      1.0  0.95904  0.30365  0.47937  1.0000
  S   S76       1.0  0.85367  0.21896  0.37747  1.0000
  Fe  Fe39      1.0  0.83233  0.16232  0.39810  1.0000
  S   S77       1.0  0.81707  0.13895  0.45224  1.0000
  S   S78       1.0  0.87406  0.15555  0.37027  1.0000
  Fe  Fe40      1.0  0.86809  0.21943  0.62443  1.0000
  S   S79       1.0  0.87492  0.24685  0.57283  1.0000
  S   S80       1.0  0.88302  0.17704  0.62947  1.0000
  C   C239      1.0  0.82979  0.16921  0.48571  1.0000
  C   C240      1.0  0.84636  0.20661  0.47920  1.0000
  C   C241      1.0  0.85848  0.23024  0.50632  1.0000
  C   C242      1.0  0.85455  0.21664  0.53997  1.0000
  C   C243      1.0  0.83679  0.17917  0.54658  1.0000
  C   C244      1.0  0.82444  0.15554  0.51951  1.0000
  H   H236      1.0  0.85028  0.21739  0.45329  1.0000
  H   H237      1.0  0.87182  0.25918  0.50110  1.0000
  H   H238      1.0  0.83326  0.16835  0.57247  1.0000
  H   H239      1.0  0.81137  0.12661  0.52475  1.0000
  H   H240      1.0  0.77753  0.32026  0.34721  1.0000
  C   C245      1.0  0.93005  0.22435  0.44013  1.0000
  H   H241      1.0  0.94401  0.26242  0.53014  1.0000
  H   H242      1.0  0.94994  0.27900  0.42122  1.0000
  H   H243      1.0  0.94215  0.18825  0.53597  1.0000
  C   C246      1.0  0.94052  0.25162  0.50485  1.0000
  C   C247      1.0  0.94368  0.26126  0.44371  1.0000
  N   N21       1.0  0.92669  0.21533  0.50109  1.0000
  H   H244      1.0  0.89497  0.16417  0.52778  1.0000
  S   S81       1.0  0.79242  0.13771  0.35788  1.0000
  C   C248      1.0  0.72270  0.10304  0.63927  1.0000
  S   S82       1.0  0.79241  0.08799  0.64399  1.0000
  H   H245      1.0  0.81781  0.07814  0.40940  1.0000
  C   C249      1.0  0.92157  0.20159  0.46924  1.0000
  H   H246      1.0  0.91031  0.17280  0.46620  1.0000
  S   S83       1.0  0.81443  0.18619  0.65194  1.0000
  H   H247      1.0  0.91269  0.20213  0.55431  1.0000
  C   C250      1.0  0.79894  0.04934  0.41383  1.0000
  H   H248      1.0  0.92593  0.21350  0.41488  1.0000
  H   H249      1.0  0.74742  0.11858  0.62249  1.0000
  C   C251      1.0  0.94893  0.27507  0.47626  1.0000
  C   C252      1.0  0.91887  0.19128  0.53124  1.0000
  H   H250      1.0  0.74839  0.01527  0.62416  1.0000
  H   H251      1.0  0.76486  0.05720  0.44909  1.0000
  C   C253      1.0  0.76900  0.03752  0.43600  1.0000
  C   C254      1.0  0.75397  0.01407  0.65065  1.0000
  H   H252      1.0  0.80125  0.50321  0.65587  1.0000
  Fe  Fe41      1.0  0.83102  0.14505  0.66026  1.0000
  S   S84       1.0  0.95009  0.25853  0.35072  1.0000
  H   H253      1.0  0.71675  0.07464  0.64179  1.0000
  H   H254      1.0  0.70006  0.10256  0.62673  1.0000
  H   H255      1.0  0.98265  0.27735  0.65694  1.0000
  Fe  Fe42      1.0  0.89337  0.21080  0.34644  1.0000
  H   H256      1.0  0.82679  0.03300  0.37890  1.0000
  C   C255      1.0  0.80412  0.02399  0.39698  1.0000
  C   C256      1.0  0.99125  0.26058  0.34188  1.0000
  C   C257      1.0  0.00586  0.27730  0.66569  1.0000
  C   C258      1.0  0.77567  0.04630  0.66717  1.0000
  H   H257      1.0  0.75973  0.06074  0.34662  1.0000
  H   H258      1.0  0.71955  0.16145  0.65432  1.0000
  S   S85       1.0  0.89607  0.24882  0.67100  1.0000
  C   C259      1.0  0.77806  0.48176  0.67033  1.0000
  N   N22       1.0  0.72816  0.11960  0.67252  1.0000
  C   C260      1.0  0.91767  0.27797  0.75589  1.0000
  H   H259      1.0  0.77095  0.38956  0.70310  1.0000
  H   H260      1.0  0.56158  0.25254  0.69797  1.0000
  H   H261      1.0  0.83137  0.50872  0.73702  1.0000
  H   H262      1.0  0.70180  0.41940  0.97856  1.0000
  C   C261      1.0  0.72581  0.14994  0.67591  1.0000
  Fe  Fe43      1.0  0.84312  0.21170  0.69923  1.0000
  S   S86       1.0  0.82139  0.22695  0.74580  1.0000
  S   S87       1.0  0.85577  0.16773  0.70978  1.0000
  Fe  Fe44      1.0  0.63865  0.31396  0.82294  1.0000
  S   S88       1.0  0.67680  0.34688  0.77929  1.0000
  S   S89       1.0  0.57782  0.28253  0.81936  1.0000
  Fe  Fe45      1.0  0.69859  0.33960  0.87392  1.0000
  S   S90       1.0  0.74133  0.37438  0.83270  1.0000
  S   S91       1.0  0.71808  0.33968  0.92811  1.0000
  Fe  Fe46      1.0  0.70339  0.39149  0.81576  1.0000
  S   S92       1.0  0.71514  0.44860  0.80266  1.0000
  Fe  Fe47      1.0  0.71230  0.32714  0.79875  1.0000
  S   S93       1.0  0.73963  0.31501  0.75429  1.0000
  S   S94       1.0  0.66266  0.36009  0.85886  1.0000
  S   S95       1.0  0.67206  0.29086  0.84065  1.0000
  C   C262      1.0  0.72568  0.34132  0.99799  1.0000
  C   C263      1.0  0.70391  0.33992  0.97163  1.0000
  H   H263      1.0  0.96094  0.33051  0.73872  1.0000
  H   H264      1.0  0.92670  0.20599  0.77582  1.0000
  H   H265      1.0  0.65566  0.33934  0.96086  1.0000
  C   C264      1.0  0.55442  0.27085  0.78106  1.0000
  H   H266      1.0  0.80091  0.44833  0.67661  1.0000
  H   H267      1.0  0.73119  0.19158  0.70956  1.0000
  C   C265      1.0  0.72101  0.42877  0.71084  1.0000
  C   C266      1.0  0.79839  0.25120  0.74745  1.0000
  C   C267      1.0  0.78502  0.25504  0.77927  1.0000
  C   C268      1.0  0.76673  0.27416  0.78190  1.0000
  C   C269      1.0  0.76168  0.28979  0.75266  1.0000
  C   C270      1.0  0.77485  0.28569  0.72080  1.0000
  C   C271      1.0  0.79304  0.26648  0.71816  1.0000
  H   H268      1.0  0.78894  0.24332  0.80213  1.0000
  H   H269      1.0  0.75678  0.27704  0.80657  1.0000
  H   H270      1.0  0.77114  0.29768  0.69801  1.0000
  H   H271      1.0  0.80319  0.26384  0.69350  1.0000
  N   N23       1.0  0.75941  0.43521  0.91134  1.0000
  H   H272      1.0  0.98978  0.25183  0.76119  1.0000
  C   C272      1.0  0.96980  0.25967  0.76024  1.0000
  C   C273      1.0  0.79077  0.43233  0.90254  1.0000
  C   C274      1.0  0.93409  0.23354  0.76869  1.0000
  H   H273      1.0  0.78249  0.40329  0.90095  1.0000
  C   C275      1.0  0.78127  0.48238  0.76691  1.0000
  C   C276      1.0  0.75131  0.48412  0.77766  1.0000
  H   H274      1.0  0.79925  0.06910  0.71445  1.0000
  H   H275      1.0  0.75536  0.45156  0.86074  1.0000
  H   H276      1.0  0.78334  0.45931  0.77470  1.0000
  H   H277      1.0  0.74055  0.08267  0.69645  1.0000
  H   H278      1.0  0.69920  0.40893  0.72777  1.0000
  C   C277      1.0  0.74465  0.42636  0.94398  1.0000
  H   H279      1.0  0.59776  0.27565  0.74898  1.0000
  H   H280      1.0  0.69846  0.46309  0.70713  1.0000
  C   C278      1.0  0.57001  0.26827  0.75030  1.0000
  C   C279      1.0  0.77781  0.45080  0.68243  1.0000
  C   C280      1.0  0.69797  0.43720  0.92791  1.0000
  H   H281      1.0  0.75604  0.41730  0.96315  1.0000
  H   H282      1.0  0.89729  0.28518  0.75377  1.0000
  C   C281      1.0  0.78259  0.04445  0.70146  1.0000
  H   H283      1.0  0.88007  0.22274  0.77272  1.0000
  C   C282      1.0  0.74166  0.15324  0.73456  1.0000
  H   H284      1.0  0.74981  0.34096  0.99159  1.0000
  H   H285      1.0  0.75271  0.11228  0.75177  1.0000
  H   H286      1.0  0.53640  0.20029  0.81024  1.0000
  C   C283      1.0  0.67279  0.34038  0.98061  1.0000
  N   N24       1.0  0.97911  0.29394  0.74935  1.0000
  C   C284      1.0  0.95362  0.30335  0.74731  1.0000
  H   H287      1.0  0.81078  0.44453  0.92229  1.0000
  H   H288      1.0  0.70095  0.45360  0.87497  1.0000
  C   C285      1.0  0.75002  0.39317  0.71614  1.0000
  H   H289      1.0  0.80394  0.44638  0.87759  1.0000
  C   C286      1.0  0.54937  0.25502  0.72143  1.0000
  S   S96       1.0  0.95872  0.20895  0.69498  1.0000
  H   H290      1.0  0.75520  0.39608  0.74376  1.0000
  C   C287      1.0  0.73240  0.16714  0.70699  1.0000
  C   C288      1.0  0.76770  0.01050  0.71901  1.0000
  C   C289      1.0  0.90793  0.24285  0.76657  1.0000
  C   C290      1.0  0.74915  0.48601  0.67882  1.0000
  C   C291      1.0  0.74410  0.44505  0.88679  1.0000
  N   N25       1.0  0.74939  0.42470  0.70224  1.0000
  C   C292      1.0  0.71381  0.42730  0.95279  1.0000
  C   C293      1.0  0.74458  0.12269  0.73073  1.0000
  H   H291      1.0  0.74754  0.16681  0.75859  1.0000
  C   C294      1.0  0.01668  0.32129  0.74097  1.0000
  C   C295      1.0  0.00157  0.24695  0.68392  1.0000
  C   C296      1.0  0.72039  0.45936  0.69916  1.0000
  H   H292      1.0  0.72404  0.36782  0.71308  1.0000
  C   C297      1.0  0.73772  0.10611  0.69934  1.0000
  Fe  Fe48      1.0  0.90688  0.20345  0.67813  1.0000
  C   C298      1.0  0.71326  0.44632  0.89472  1.0000
  H   H293      1.0  0.67362  0.43731  0.93419  1.0000
  C   C299      1.0  0.81514  0.59339  0.19538  1.0000
  H   H294      1.0  0.82427  0.65849  0.18364  1.0000
  C   C300      1.0  0.54686  0.77881  0.26209  1.0000
  H   H295      1.0  0.81752  0.56993  0.20386  1.0000
  C   C301      1.0  0.75001  0.52192  0.24993  1.0000
  S   S97       1.0  0.78375  0.58781  0.28015  1.0000
  S   S98       1.0  0.84774  0.68818  0.30408  1.0000
  C   C302      1.0  0.99137  0.73929  0.32481  1.0000
  S   S99       1.0  0.71870  0.78567  0.29667  1.0000
  C   C303      1.0  0.74553  0.77205  0.31775  1.0000
  C   C304      1.0  0.89547  0.69264  0.23343  1.0000
  C   C305      1.0  0.86645  0.62762  0.23115  1.0000
  H   H296      1.0  0.82758  0.55500  0.29049  1.0000
  S   S100      1.0  0.65934  0.83359  0.30260  1.0000
  S   S101      1.0  0.87122  0.63318  0.33788  1.0000
  C   C306      1.0  0.80511  0.53705  0.27582  1.0000
  C   C307      1.0  0.77720  0.73860  0.31726  1.0000
  H   H297      1.0  0.57555  0.79698  0.26093  1.0000
  H   H298      1.0  0.86455  0.60250  0.23954  1.0000
  H   H299      1.0  0.91202  0.66056  0.26120  1.0000
  Fe  Fe49      1.0  0.68884  0.80825  0.32594  1.0000
  C   C308      1.0  0.72782  0.97062  0.33699  1.0000
  H   H300      1.0  0.54455  0.66675  0.26845  1.0000
  C   C309      1.0  0.77904  0.54571  0.26905  1.0000
  H   H301      1.0  0.75515  0.94920  0.30805  1.0000
  H   H302      1.0  0.54089  0.79110  0.21000  1.0000
  S   S102      1.0  0.95211  0.72977  0.30411  1.0000
  C   C310      1.0  0.87041  0.69200  0.21193  1.0000
  H   H303      1.0  0.81729  0.59527  0.16707  1.0000
  Fe  Fe50      1.0  0.82140  0.62828  0.31765  1.0000
  C   C311      1.0  0.52951  0.75836  0.29217  1.0000
  C   C312      1.0  0.89332  0.66027  0.24347  1.0000
  H   H304      1.0  0.72974  0.52839  0.24441  1.0000
  C   C313      1.0  0.75724  0.75125  0.30062  1.0000
  C   C314      1.0  0.75606  0.97348  0.31639  1.0000
  H   H305      1.0  0.91589  0.71810  0.24314  1.0000
  H   H306      1.0  0.78540  0.72201  0.30403  1.0000
  H   H307      1.0  0.75043  0.74452  0.27446  1.0000
  H   H308      1.0  0.55345  0.71245  0.26203  1.0000
  N   N26       1.0  0.84258  0.62737  0.20926  1.0000
  H   H309      1.0  0.78816  0.58755  0.20436  1.0000
  C   C315      1.0  0.84392  0.65890  0.20007  1.0000
  H   H310      1.0  0.87124  0.71695  0.20495  1.0000
  Fe  Fe51      1.0  0.89616  0.69326  0.32862  1.0000
  C   C316      1.0  0.52714  0.77533  0.23323  1.0000
  S   S103      1.0  0.55311  0.75918  0.32836  1.0000
  C   C317      1.0  0.53346  0.68465  0.27221  1.0000
  Fe  Fe52      1.0  0.61277  0.79486  0.33796  1.0000
  H   H311      1.0  0.52978  0.68712  0.30005  1.0000
  H   H312      1.0  0.70443  0.67577  0.33086  1.0000
  C   C318      1.0  0.78535  0.00795  0.30616  1.0000
  H   H313      1.0  0.52392  0.70205  0.20929  1.0000
  H   H314      1.0  0.80690  0.00995  0.28990  1.0000
  S   S104      1.0  0.79954  0.63317  0.36894  1.0000
  H   H315      1.0  0.58443  0.79437  0.61957  1.0000
  Fe  Fe53      1.0  0.85139  0.64273  0.38813  1.0000
  S   S105      1.0  0.85816  0.61909  0.43709  1.0000
  S   S106      1.0  0.87969  0.70302  0.38014  1.0000
  Fe  Fe54      1.0  0.66250  0.84809  0.63194  1.0000
  S   S107      1.0  0.71987  0.87878  0.64490  1.0000
  S   S108      1.0  0.64355  0.85851  0.58269  1.0000
  H   H316      1.0  0.68429  0.63639  0.36014  1.0000
  S   S109      1.0  0.62987  0.83265  0.38150  1.0000
  Fe  Fe55      1.0  0.66190  0.80831  0.39802  1.0000
  S   S110      1.0  0.66832  0.79005  0.45043  1.0000
  S   S111      1.0  0.71158  0.84834  0.36729  1.0000
  Fe  Fe56      1.0  0.83242  0.66088  0.62146  1.0000
  S   S112      1.0  0.80781  0.66210  0.57218  1.0000
  C   C319      1.0  0.93850  0.71063  0.55702  1.0000
  C   C320      1.0  0.65178  0.84052  0.54585  1.0000
  C   C321      1.0  0.66600  0.81794  0.54811  1.0000
  C   C322      1.0  0.67109  0.80277  0.51861  1.0000
  C   C323      1.0  0.66245  0.81046  0.48664  1.0000
  C   C324      1.0  0.64890  0.83362  0.48427  1.0000
  C   C325      1.0  0.64338  0.84844  0.51387  1.0000
  H   H317      1.0  0.67281  0.81192  0.57258  1.0000
  H   H318      1.0  0.68167  0.78497  0.52055  1.0000
  H   H319      1.0  0.64204  0.83957  0.45976  1.0000
  H   H320      1.0  0.63232  0.86585  0.51199  1.0000
  N   N27       1.0  0.74034  0.69431  0.62409  1.0000
  H   H321      1.0  0.74257  0.64620  0.62269  1.0000
  C   C326      1.0  0.84322  0.63017  0.47455  1.0000
  C   C327      1.0  0.82404  0.64802  0.47294  1.0000
  C   C328      1.0  0.81287  0.65720  0.50313  1.0000
  C   C329      1.0  0.82139  0.64921  0.53500  1.0000
  C   C330      1.0  0.84101  0.63183  0.53661  1.0000
  C   C331      1.0  0.85163  0.62205  0.50642  1.0000
  H   H322      1.0  0.81759  0.65449  0.44843  1.0000
  H   H323      1.0  0.79778  0.67074  0.50175  1.0000
  H   H324      1.0  0.84764  0.62554  0.56109  1.0000
  H   H325      1.0  0.86648  0.60825  0.50774  1.0000
  C   C332      1.0  0.77499  0.76855  0.36794  1.0000
  C   C333      1.0  0.75483  0.78092  0.35142  1.0000
  H   H326      1.0  0.78169  0.77531  0.39411  1.0000
  H   H327      1.0  0.71427  0.76096  0.58703  1.0000
  H   H328      1.0  0.58076  0.84967  0.62108  1.0000
  H   H329      1.0  0.82370  0.75468  0.65891  1.0000
  H   H330      1.0  0.74631  0.79717  0.36483  1.0000
  H   H331      1.0  0.77621  0.70920  0.58038  1.0000
  S   S113      1.0  0.64087  0.76711  0.35772  1.0000
  C   C334      1.0  0.71479  0.69849  0.64097  1.0000
  S   S114      1.0  0.79829  0.63217  0.66889  1.0000
  C   C335      1.0  0.54237  0.73136  0.65380  1.0000
  H   H332      1.0  0.70300  0.74491  0.45653  1.0000
  C   C336      1.0  0.82416  0.97511  0.63169  1.0000
  C   C337      1.0  0.68486  0.72445  0.40715  1.0000
  H   H333      1.0  0.67030  0.73848  0.40463  1.0000
  H   H334      1.0  0.72280  0.95557  0.65498  1.0000
  S   S115      1.0  0.95807  0.74743  0.64566  1.0000
  H   H335      1.0  0.74107  0.66115  0.66532  1.0000
  C   C338      1.0  0.78576  0.74683  0.35122  1.0000
  C   C339      1.0  0.99756  0.75033  0.65964  1.0000
  C   C340      1.0  0.68622  0.70365  0.38083  1.0000
  C   C341      1.0  0.75592  0.71265  0.59362  1.0000
  C   C342      1.0  0.77904  0.98701  0.40246  1.0000
  H   H336      1.0  0.73235  0.66550  0.35474  1.0000
  S   S116      1.0  0.85996  0.71549  0.64364  1.0000
  H   H337      1.0  0.67277  0.70215  0.35764  1.0000
  C   C343      1.0  0.73936  0.98019  0.66808  1.0000
  Fe  Fe57      1.0  0.90095  0.70239  0.66041  1.0000
  N   N28       1.0  0.92696  0.70479  0.49730  1.0000
  C   C344      1.0  0.90490  0.71845  0.50162  1.0000
  C   C345      1.0  0.94361  0.70073  0.52448  1.0000
  C   C346      1.0  0.89897  0.72833  0.53386  1.0000
  H   H338      1.0  0.68552  0.72658  0.64171  1.0000
  H   H339      1.0  0.73868  0.67646  0.41487  1.0000
  C   C347      1.0  0.93367  0.69512  0.46336  1.0000
  H   H340      1.0  0.89108  0.72100  0.48026  1.0000
  H   H341      1.0  0.57079  0.73864  0.65190  1.0000
  H   H342      1.0  0.88059  0.73805  0.53749  1.0000
  H   H343      1.0  0.73750  0.71340  0.46177  1.0000
  C   C348      1.0  0.72087  0.74145  0.59686  1.0000
  H   H344      1.0  0.83110  0.99502  0.61094  1.0000
  C   C349      1.0  0.74659  0.73666  0.57963  1.0000
  H   H345      1.0  0.96146  0.71457  0.45363  1.0000
  S   S117      1.0  0.80669  0.72797  0.37503  1.0000
  N   N29       1.0  0.70548  0.68679  0.38373  1.0000
  C   C350      1.0  0.91610  0.72458  0.56161  1.0000
  H   H346      1.0  0.72540  0.92748  0.45584  1.0000
  H   H347      1.0  0.72739  0.92021  0.41085  1.0000
  S   S118      1.0  0.75410  0.81421  0.64955  1.0000
  H   H348      1.0  0.69586  0.93143  0.42701  1.0000
  H   H349      1.0  0.95163  0.70746  0.57871  1.0000
  S   S119      1.0  0.65406  0.79409  0.64868  1.0000
  N   N30       1.0  0.74954  0.97564  0.42402  1.0000
  C   C351      1.0  0.75151  0.67025  0.63847  1.0000
  S   S120      1.0  0.87555  0.64951  0.63422  1.0000
  C   C352      1.0  0.56355  0.79423  0.63558  1.0000
  C   C353      1.0  0.72299  0.68941  0.41277  1.0000
  Fe  Fe58      1.0  0.82924  0.69326  0.35666  1.0000
  C   C354      1.0  0.56150  0.82562  0.63623  1.0000
  H   H350      1.0  0.72107  0.99128  0.45798  1.0000
  H   H351      1.0  0.53329  0.85017  0.65785  1.0000
  H   H352      1.0  0.92914  0.66721  0.46440  1.0000
  H   H353      1.0  0.75974  0.75200  0.55600  1.0000
  C   C355      1.0  0.72343  0.93685  0.42988  1.0000
  C   C356      1.0  0.70331  0.72801  0.43646  1.0000
  C   C357      1.0  0.79332  0.78135  0.65586  1.0000
  C   C358      1.0  0.72248  0.71034  0.43941  1.0000
  C   C359      1.0  0.70649  0.66487  0.35605  1.0000
  H   H354      1.0  0.96492  0.69493  0.36207  1.0000
  C   C360      1.0  0.99030  0.71755  0.35235  1.0000
  H   H355      1.0  0.96085  0.68963  0.52110  1.0000
  H   H356      1.0  0.78277  0.96755  0.38851  1.0000
  H   H357      1.0  0.91515  0.69511  0.44460  1.0000
  H   H358      1.0  0.91193  0.73228  0.58672  1.0000
  H   H359      1.0  0.80730  0.79652  0.63246  1.0000
  C   C361      1.0  0.70461  0.72204  0.62757  1.0000
  H   H360      1.0  0.82207  0.93415  0.59934  1.0000
  C   C362      1.0  0.74443  0.00032  0.44087  1.0000
  H   H361      1.0  0.78108  0.68489  0.63889  1.0000
  C   C363      1.0  0.82006  0.98345  0.66507  1.0000
  N   N31       1.0  0.53987  0.76402  0.65507  1.0000
  C   C364      1.0  0.80254  0.75742  0.67070  1.0000
  Fe  Fe59      1.0  0.71022  0.82529  0.66599  1.0000
  C   C365      1.0  0.72937  0.00240  0.34752  1.0000
  H   H362      1.0  0.70772  0.00042  0.36357  1.0000
  H   H363      1.0  0.52845  0.71551  0.63156  1.0000
  C   C366      1.0  0.53485  0.82583  0.65676  1.0000
  C   C367      1.0  0.81902  0.94102  0.62519  1.0000
  C   C368      1.0  0.76597  0.78548  0.67081  1.0000
  S   S121      1.0  0.69039  0.92843  0.35127  1.0000
  Fe  Fe60      1.0  0.67830  0.87034  0.34730  1.0000
  C   C369      1.0  0.80923  0.91549  0.65225  1.0000
  H   H364      1.0  0.80507  0.88898  0.64695  1.0000
  H   H365      1.0  0.82371  0.00978  0.67042  1.0000
  H   H366      1.0  0.70306  0.68462  0.66553  1.0000
  H   H367      1.0  0.74984  0.51068  0.67086  1.0000
  Fe  Fe61      1.0  0.63768  0.80560  0.69984  1.0000
  S   S122      1.0  0.69359  0.83260  0.71860  1.0000
  S   S123      1.0  0.58859  0.75811  0.72710  1.0000
  C   C370      1.0  0.81004  0.95718  0.69147  1.0000
  S   S124      1.0  0.72923  0.93603  0.72464  1.0000
  H   H368      1.0  0.52398  0.79906  0.83992  1.0000
  Fe  Fe62      1.0  0.69935  0.88415  0.69615  1.0000
  C   C371      1.0  0.79262  0.89616  0.71277  1.0000
  H   H369      1.0  0.72696  0.76863  0.71285  1.0000
  C   C372      1.0  0.74811  0.76575  0.70108  1.0000
  H   H370      1.0  0.53055  0.71412  0.67764  1.0000
  S   S125      1.0  0.87156  0.67823  0.71139  1.0000
  S   S126      1.0  0.83869  0.57257  0.70445  1.0000
  N   N32       1.0  0.80390  0.92344  0.68473  1.0000
  S   S127      1.0  0.79472  0.70613  0.71973  1.0000
  Fe  Fe63      1.0  0.82820  0.68691  0.69164  1.0000
  C   C373      1.0  0.99665  0.72517  0.68336  1.0000
  H   H371      1.0  0.77921  0.86823  0.70323  1.0000
  H   H372      1.0  0.53315  0.74727  0.83415  1.0000
  C   C374      1.0  0.80595  0.54039  0.73465  1.0000
  C   C375      1.0  0.77642  0.54254  0.74614  1.0000
  H   H373      1.0  0.77416  0.56542  0.73801  1.0000
  H   H374      1.0  0.74361  0.72669  0.73947  1.0000
  H   H375      1.0  0.72641  0.51633  0.77604  1.0000
  H   H376      1.0  0.52659  0.82193  0.76231  1.0000
  H   H377      1.0  0.77309  0.00918  0.74554  1.0000
  H   H378      1.0  0.81610  0.90080  0.72687  1.0000
  C   C376      1.0  0.55246  0.76127  0.74471  1.0000
  C   C377      1.0  0.55438  0.79458  0.74706  1.0000
  H   H379      1.0  0.57867  0.81928  0.73860  1.0000
  C   C378      1.0  0.74606  0.97825  0.70238  1.0000
  C   C379      1.0  0.75753  0.74192  0.71607  1.0000
  S   S128      1.0  0.64214  0.85765  0.68174  1.0000
  C   C380      1.0  0.78460  0.73741  0.70083  1.0000
  C   C381      1.0  0.52073  0.72943  0.75596  1.0000
  Fe  Fe64      1.0  0.84364  0.62537  0.68444  1.0000
  H   H380      1.0  0.80606  0.96359  0.71727  1.0000
  H   H381      1.0  0.77293  0.89739  0.73068  1.0000
  C   C382      1.0  0.74935  0.51460  0.76765  1.0000
  C   C383      1.0  0.80850  0.51048  0.74564  1.0000
  H   H382      1.0  0.97122  0.70262  0.69310  1.0000
  H   H383      1.0  0.01110  0.77922  0.73751  1.0000
  C   C384      1.0  0.52479  0.79598  0.76047  1.0000
  H   H384      1.0  0.51907  0.70353  0.75429  1.0000
