data_image0
_chemical_formula_structural       S2FeSFeS3FeSFeSC6H4C2HC4HC3H2SFeSFeS3C2H3CH2FeHC6H4CHCSC2H2C2HCNHC2HN2C2H6CH3C3H3CNC5SH4CHCFeH2CH3CHC2HSC4FeSNHSFeC4HSHC2SCSFeH2CH3CHNH2CHCH2CH2C3H3C3HFeSCHSH2C2HCNCHCSCH4S2C2SCHSC2H3CNH2CSFeSHFeHSC2HCFeHFeHCFeC2HSH2FeS2HCSCHCH2C2HC6H4CHCH2CSHCH2NC2H2CSH4FeHSCHS2Fe2S2C7H4C2H2C2NCNH2SC3HFeC2HC3HCHCNCH3CH3C2H2CH4SHC2HCSHSCHCH3SC2FeS2FeS2FeSFeS3C3HSC3H2CH2CHCHC2HC6H12CFeCH2CNHNHNC2HCH8SHCHNHC3HC2HCHC3HCH2CSCH3FeS2CFeHS2HCHFeS2FeS2FeSFeS3C2H3C3H2SHCH2NCHC8H4CHC2HFeNCH3C2H3SCHC2H2CHCHC2HCHC3HCNCHCFeCHFeHC3FeCSHSFeS2FeS2FeSFeS3C2H3C3H2C4H3C6H4NC6H10SC2HCHCHC2HCHSC2HCNH2C2SCFeSCFeNSHSFeS2FeS2FeSFeS3CHC2H2C2H2C2SHCHC6HC6H4C4H2C2H2SHCFeC2H2C2H4CH3CHNH3CH2CHNC2H5FeCH2FeC3HCSFeSHSH3C2HC7H6CSC3H4NCH4C2HNCH2SCFeHCFeS2CHFeCSHC2SNCH3C6H4CH2CH3C3SH2C3NH2CHCHNSCHSC4H5SCH2CSH2SFeS2FeS2FeSFeS4FeSFeSFeSH3C2HNHC2FeHC7H4C3H2C6H4CH2SNC6H8NC3HC2HCHC2H3CSH2C2H2CH3SHCHC2FeC2HCFeSCFeS2FeS2FeSFeS4HSFeSFeSCHC3HCHCH2C6H5FeHCFeC6H5NHCH2CS2NC6H8SNC3NC2H2C2H2CH6CHC2
_chemical_formula_sum              "S144 Fe72 C432 H432 N36"
_cell_length_a       51.3182
_cell_length_b       51.2194
_cell_length_c       35.5662
_cell_angle_alpha    91.1486
_cell_angle_beta     87.3232
_cell_angle_gamma    119.779

_space_group_name_H-M_alt    "P 1"
_space_group_IT_number       1

loop_
  _space_group_symop_operation_xyz
  'x, y, z'

loop_
  _atom_site_type_symbol
  _atom_site_label
  _atom_site_symmetry_multiplicity
  _atom_site_fract_x
  _atom_site_fract_y
  _atom_site_fract_z
  _atom_site_occupancy
  S   S1        1.0  0.14841  0.27571  0.21648  1.0000
  S   S2        1.0  0.13403  0.25063  0.30435  1.0000
  Fe  Fe1       1.0  0.17480  0.27619  0.26570  1.0000
  S   S3        1.0  0.21683  0.27150  0.26266  1.0000
  Fe  Fe2       1.0  0.10804  0.25432  0.25728  1.0000
  S   S4        1.0  0.06357  0.21467  0.23987  1.0000
  S   S5        1.0  0.28351  0.12240  0.22305  1.0000
  S   S6        1.0  0.25052  0.11081  0.30730  1.0000
  Fe  Fe3       1.0  0.27652  0.09335  0.27347  1.0000
  S   S7        1.0  0.26995  0.04585  0.27202  1.0000
  Fe  Fe4       1.0  0.26140  0.14336  0.25960  1.0000
  S   S8        1.0  0.22287  0.15038  0.24301  1.0000
  C   C1        1.0  0.22216  0.18468  0.24641  1.0000
  C   C2        1.0  0.24744  0.21178  0.25591  1.0000
  C   C3        1.0  0.24558  0.23827  0.25975  1.0000
  C   C4        1.0  0.21838  0.23793  0.25472  1.0000
  C   C5        1.0  0.19317  0.21092  0.24482  1.0000
  C   C6        1.0  0.19514  0.18450  0.24048  1.0000
  H   H1        1.0  0.26844  0.21235  0.26018  1.0000
  H   H2        1.0  0.26527  0.25908  0.26716  1.0000
  H   H3        1.0  0.17214  0.21033  0.24063  1.0000
  H   H4        1.0  0.17550  0.16370  0.23288  1.0000
  C   C7        1.0  0.33687  0.14796  0.47286  1.0000
  C   C8        1.0  0.31992  0.08907  0.14782  1.0000
  H   H5        1.0  0.34247  0.21558  0.46548  1.0000
  C   C9        1.0  0.23093  0.21226  0.35005  1.0000
  C   C10       1.0  0.23760  0.01136  0.26118  1.0000
  C   C11       1.0  0.21181  0.01000  0.24758  1.0000
  C   C12       1.0  0.02767  0.27505  0.19513  1.0000
  H   H6        1.0  0.21142  0.03058  0.24263  1.0000
  C   C13       1.0  0.00165  0.18436  0.24481  1.0000
  C   C14       1.0  0.02812  0.21117  0.25290  1.0000
  C   C15       1.0  0.02578  0.23539  0.26792  1.0000
  H   H7        1.0  0.00318  0.16544  0.23324  1.0000
  H   H8        1.0  0.04586  0.25610  0.27446  1.0000
  S   S9        1.0  0.41765  0.19461  0.04349  1.0000
  Fe  Fe5       1.0  0.32620  0.15632  0.24960  1.0000
  S   S10       1.0  0.37260  0.17827  0.21794  1.0000
  Fe  Fe6       1.0  0.29444  0.14597  0.33008  1.0000
  S   S11       1.0  0.28791  0.15728  0.39160  1.0000
  S   S12       1.0  0.32010  0.12645  0.29921  1.0000
  S   S13       1.0  0.30448  0.17928  0.28306  1.0000
  C   C16       1.0  0.29945  0.14972  0.43474  1.0000
  C   C17       1.0  0.32664  0.14984  0.43731  1.0000
  H   H9        1.0  0.29711  0.07925  0.13853  1.0000
  H   H10       1.0  0.23205  0.25499  0.35482  1.0000
  H   H11       1.0  0.14804  0.17911  0.32510  1.0000
  C   C18       1.0  0.28223  0.14668  0.46811  1.0000
  H   H12       1.0  0.34033  0.15245  0.41206  1.0000
  H   H13       1.0  0.30606  0.07690  0.20569  1.0000
  Fe  Fe7       1.0  0.14114  0.29600  0.32229  1.0000
  H   H14       1.0  0.26118  0.14655  0.46657  1.0000
  C   C19       1.0  0.40594  0.19135  0.09228  1.0000
  C   C20       1.0  0.37519  0.17973  0.10205  1.0000
  C   C21       1.0  0.36460  0.17605  0.14013  1.0000
  C   C22       1.0  0.38464  0.18384  0.16921  1.0000
  C   C23       1.0  0.41542  0.19567  0.15943  1.0000
  C   C24       1.0  0.42601  0.19936  0.12136  1.0000
  H   H15       1.0  0.35936  0.17343  0.07995  1.0000
  H   H16       1.0  0.34089  0.16697  0.14697  1.0000
  H   H17       1.0  0.43121  0.20178  0.18155  1.0000
  H   H18       1.0  0.44967  0.20807  0.11457  1.0000
  C   C25       1.0  0.18452  0.17034  0.33324  1.0000
  H   H19       1.0  0.99596  0.25250  0.28371  1.0000
  C   C26       1.0  0.04916  0.30390  0.20645  1.0000
  S   S14       1.0  0.12838  0.30254  0.38318  1.0000
  C   C27       1.0  0.45365  0.31386  0.01687  1.0000
  C   C28       1.0  0.07964  0.31333  0.20044  1.0000
  H   H20       1.0  0.18726  0.31424  0.40783  1.0000
  H   H21       1.0  0.25012  0.17462  0.32588  1.0000
  C   C29       1.0  0.22800  0.16340  0.34153  1.0000
  C   C30       1.0  0.08826  0.29382  0.18358  1.0000
  H   H22       1.0  0.40687  0.28357  0.00676  1.0000
  C   C31       1.0  0.42302  0.26688  0.04986  1.0000
  N   N1        1.0  0.47507  0.29787  0.06376  1.0000
  H   H23       1.0  0.23141  0.15889  0.37080  1.0000
  C   C32       1.0  0.42589  0.28787  0.02319  1.0000
  C   C33       1.0  0.99742  0.23331  0.27306  1.0000
  H   H24       1.0  0.39258  0.12854  0.11508  1.0000
  N   N2        1.0  0.21409  0.18241  0.34147  1.0000
  N   N3        1.0  0.35386  0.10095  0.19796  1.0000
  C   C34       1.0  0.37787  0.11537  0.17302  1.0000
  C   C35       1.0  0.35924  0.10044  0.23798  1.0000
  H   H25       1.0  0.40059  0.12677  0.18287  1.0000
  H   H26       1.0  0.37558  0.09257  0.24177  1.0000
  H   H27       1.0  0.36840  0.12347  0.24981  1.0000
  H   H28       1.0  0.33825  0.08511  0.25446  1.0000
  H   H29       1.0  0.34067  0.10503  0.09263  1.0000
  H   H30       1.0  0.35834  0.14893  0.47451  1.0000
  C   C36       1.0  0.32514  0.08795  0.18587  1.0000
  H   H31       1.0  0.25451  0.22184  0.35586  1.0000
  H   H32       1.0  0.17862  0.23357  0.33954  1.0000
  H   H33       1.0  0.17138  0.14685  0.32546  1.0000
  C   C37       1.0  0.17116  0.18843  0.33304  1.0000
  C   C38       1.0  0.18828  0.21899  0.34125  1.0000
  C   C39       1.0  0.21834  0.23103  0.34986  1.0000
  H   H34       1.0  0.21415  0.14160  0.32715  1.0000
  H   H35       1.0  0.02097  0.20931  0.17038  1.0000
  H   H36       1.0  0.99197  0.21793  0.18254  1.0000
  C   C40       1.0  0.21146  0.99116  0.35010  1.0000
  N   N4        1.0  0.03637  0.25594  0.17901  1.0000
  C   C41       1.0  0.14325  0.30457  0.42817  1.0000
  C   C42       1.0  0.06621  0.26496  0.17320  1.0000
  C   C43       1.0  0.34430  0.10339  0.12211  1.0000
  C   C44       1.0  0.37349  0.11650  0.13468  1.0000
  C   C45       1.0  0.18408  0.31435  0.46888  1.0000
  S   S15       1.0  0.11296  0.29828  0.27676  1.0000
  H   H37       1.0  0.17666  0.99674  0.32693  1.0000
  H   H38       1.0  0.10209  0.29592  0.45775  1.0000
  H   H39       1.0  0.40188  0.24605  0.05419  1.0000
  H   H40       1.0  0.07310  0.24958  0.16114  1.0000
  C   C46       1.0  0.01366  0.22615  0.16617  1.0000
  H   H41       1.0  0.22779  0.01506  0.34925  1.0000
  C   C47       1.0  0.44800  0.27228  0.06993  1.0000
  Fe  Fe8       1.0  0.45953  0.21745  0.00255  1.0000
  H   H42       1.0  0.11192  0.30094  0.17908  1.0000
  H   H43       1.0  0.44576  0.25558  0.08997  1.0000
  C   C48       1.0  0.12496  0.30079  0.46074  1.0000
  H   H44       1.0  0.00979  0.22705  0.13592  1.0000
  H   H45       1.0  0.00399  0.26773  0.20021  1.0000
  H   H46       1.0  0.04221  0.31872  0.22009  1.0000
  C   C49       1.0  0.17282  0.31098  0.43252  1.0000
  H   H47       1.0  0.12448  0.24228  0.48652  1.0000
  C   C50       1.0  0.01561  0.20704  0.66991  1.0000
  C   C51       1.0  0.01817  0.23378  0.65664  1.0000
  H   H48       1.0  0.03553  0.20660  0.67768  1.0000
  S   S16       1.0  0.12440  0.27121  0.70621  1.0000
  C   C52       1.0  0.24004  0.20897  0.66176  1.0000
  C   C53       1.0  0.21421  0.23847  0.66327  1.0000
  C   C54       1.0  0.24088  0.23684  0.66080  1.0000
  C   C55       1.0  0.13048  0.20055  0.57196  1.0000
  Fe  Fe9       1.0  0.14693  0.25461  0.66340  1.0000
  S   S17       1.0  0.05303  0.26790  0.65354  1.0000
  N   N5        1.0  0.15558  0.22497  0.55691  1.0000
  H   H49       1.0  0.21534  0.26011  0.66304  1.0000
  S   S18       1.0  0.15192  0.21292  0.66858  1.0000
  Fe  Fe10      1.0  0.10072  0.27549  0.65660  1.0000
  C   C56       1.0  0.18539  0.18425  0.66715  1.0000
  C   C57       1.0  0.18428  0.23656  0.57513  1.0000
  C   C58       1.0  0.21210  0.18262  0.66477  1.0000
  C   C59       1.0  0.18627  0.21215  0.66658  1.0000
  H   H50       1.0  0.21105  0.16101  0.66553  1.0000
  S   S19       1.0  0.11982  0.25488  0.61545  1.0000
  H   H51       1.0  0.16392  0.16374  0.66972  1.0000
  C   C60       1.0  0.22070  0.02002  0.66619  1.0000
  C   C61       1.0  0.24694  0.01865  0.65817  1.0000
  S   S20       1.0  0.22139  0.05479  0.67327  1.0000
  C   C62       1.0  0.10245  0.19037  0.55656  1.0000
  S   S21       1.0  0.18540  0.30060  0.65057  1.0000
  Fe  Fe11      1.0  0.15730  0.30180  0.60453  1.0000
  H   H52       1.0  0.18695  0.21783  0.58594  1.0000
  H   H53       1.0  0.18499  0.25094  0.59931  1.0000
  C   C63       1.0  0.99200  0.23395  0.64683  1.0000
  H   H54       1.0  0.20369  0.25021  0.55548  1.0000
  H   H55       1.0  0.13191  0.18924  0.59664  1.0000
  H   H56       1.0  0.08253  0.17142  0.56918  1.0000
  C   C64       1.0  0.15359  0.23980  0.52656  1.0000
  H   H57       1.0  0.99374  0.25454  0.63662  1.0000
  N   N6        1.0  0.23429  0.03415  0.75854  1.0000
  H   H58       1.0  0.98534  0.16049  0.68467  1.0000
  H   H59       1.0  0.23892  0.99615  0.74269  1.0000
  C   C65       1.0  0.98710  0.18096  0.67394  1.0000
  H   H60       1.0  0.98534  0.25495  0.72531  1.0000
  C   C66       1.0  0.20144  0.01683  0.76316  1.0000
  H   H61       1.0  0.19129  0.02697  0.74566  1.0000
  H   H62       1.0  0.19435  0.01680  0.79312  1.0000
  C   C67       1.0  0.13600  0.30351  0.49709  1.0000
  H   H63       1.0  0.12157  0.30054  0.52170  1.0000
  H   H64       1.0  0.23598  0.07570  0.77209  1.0000
  C   C68       1.0  0.24872  0.06449  0.76478  1.0000
  C   C69       1.0  0.24588  0.99060  0.65675  1.0000
  C   C70       1.0  0.19331  0.99298  0.67143  1.0000
  H   H65       1.0  0.17284  0.99377  0.67742  1.0000
  H   H66       1.0  0.17334  0.25958  0.51517  1.0000
  H   H67       1.0  0.19231  0.99317  0.75372  1.0000
  C   C71       1.0  0.10023  0.20537  0.52557  1.0000
  C   C72       1.0  0.25034  0.02013  0.74838  1.0000
  C   C73       1.0  0.12596  0.23016  0.51031  1.0000
  H   H68       1.0  0.07857  0.19807  0.51371  1.0000
  Fe  Fe12      1.0  0.16177  0.31793  0.69053  1.0000
  S   S22       1.0  0.18149  0.31602  0.54647  1.0000
  C   C74       1.0  0.16580  0.31072  0.50137  1.0000
  H   H69       1.0  0.26144  0.21021  0.53736  1.0000
  S   S23       1.0  0.44621  0.23835  0.86455  1.0000
  H   H70       1.0  0.46677  0.20134  0.72279  1.0000
  H   H71       1.0  0.47354  0.15614  0.84623  1.0000
  C   C75       1.0  0.29220  0.14423  0.50358  1.0000
  C   C76       1.0  0.31093  0.21476  0.50857  1.0000
  H   H72       1.0  0.44749  0.21847  0.74761  1.0000
  C   C77       1.0  0.46287  0.17543  0.79982  1.0000
  N   N7        1.0  0.46839  0.20135  0.78227  1.0000
  C   C78       1.0  0.33835  0.21763  0.49534  1.0000
  H   H73       1.0  0.26338  0.18925  0.57623  1.0000
  C   C79       1.0  0.28004  0.08162  0.76089  1.0000
  S   S24       1.0  0.33127  0.18100  0.65059  1.0000
  C   C80       1.0  0.37630  0.17362  0.77987  1.0000
  H   H74       1.0  0.38015  0.22160  0.51135  1.0000
  H   H75       1.0  0.43077  0.17857  0.74702  1.0000
  H   H76       1.0  0.38116  0.21418  0.75615  1.0000
  H   H77       1.0  0.29420  0.02568  0.73417  1.0000
  S   S25       1.0  0.46264  0.19503  0.94789  1.0000
  S   S26       1.0  0.46428  0.25796  0.97236  1.0000
  C   C81       1.0  0.35951  0.22102  0.52105  1.0000
  C   C82       1.0  0.38777  0.20477  0.77830  1.0000
  S   S27       1.0  0.35260  0.14827  0.74474  1.0000
  C   C83       1.0  0.29655  0.06768  0.74977  1.0000
  H   H78       1.0  0.27883  0.14224  0.52890  1.0000
  S   S28       1.0  0.33552  0.14667  0.55057  1.0000
  C   C84       1.0  0.38546  0.16211  0.80910  1.0000
  C   C85       1.0  0.35337  0.22222  0.55947  1.0000
  H   H79       1.0  0.26236  0.25737  0.65867  1.0000
  H   H80       1.0  0.36932  0.22399  0.57974  1.0000
  H   H81       1.0  0.27857  0.22926  0.58005  1.0000
  C   C86       1.0  0.40583  0.18129  0.83602  1.0000
  N   N8        1.0  0.30495  0.21558  0.54637  1.0000
  H   H82       1.0  0.29144  0.10569  0.76586  1.0000
  H   H83       1.0  0.37682  0.13812  0.81087  1.0000
  C   C87       1.0  0.27560  0.21089  0.56040  1.0000
  S   S29       1.0  0.27545  0.13723  0.70858  1.0000
  Fe  Fe13      1.0  0.26260  0.10127  0.66401  1.0000
  S   S30       1.0  0.26537  0.13175  0.61710  1.0000
  H   H84       1.0  0.44599  0.15372  0.78959  1.0000
  Fe  Fe14      1.0  0.28251  0.16841  0.66047  1.0000
  H   H85       1.0  0.41747  0.24802  0.80281  1.0000
  S   S31       1.0  0.30961  0.10979  0.65381  1.0000
  C   C88       1.0  0.32586  0.21960  0.57168  1.0000
  C   C89       1.0  0.31994  0.14551  0.50628  1.0000
  H   H86       1.0  0.32102  0.22016  0.60162  1.0000
  C   C90       1.0  0.28167  0.03672  0.74346  1.0000
  Fe  Fe15      1.0  0.31325  0.14251  0.60927  1.0000
  H   H87       1.0  0.41257  0.17194  0.85810  1.0000
  Fe  Fe16      1.0  0.46897  0.23631  0.91842  1.0000
  H   H88       1.0  0.26817  0.03922  0.65400  1.0000
  C   C91       1.0  0.45268  0.19983  0.74818  1.0000
  Fe  Fe17      1.0  0.32327  0.14759  0.69630  1.0000
  C   C92       1.0  0.40849  0.22398  0.80489  1.0000
  C   C93       1.0  0.41790  0.21251  0.83386  1.0000
  H   H89       1.0  0.32081  0.08103  0.74569  1.0000
  S   S32       1.0  0.27450  0.20849  0.65830  1.0000
  H   H90       1.0  0.26642  0.98985  0.65127  1.0000
  H   H91       1.0  0.29413  0.21072  0.48841  1.0000
  Fe  Fe18      1.0  0.23398  0.45770  0.00178  1.0000
  S   S33       1.0  0.22692  0.41829  0.04015  1.0000
  S   S34       1.0  0.26134  0.50843  0.00747  1.0000
  H   H92       1.0  0.21546  0.32069  0.20004  1.0000
  C   C94       1.0  0.24445  0.41251  0.19585  1.0000
  S   S35       1.0  0.16440  0.36056  0.20177  1.0000
  C   C95       1.0  0.26655  0.40274  0.13988  1.0000
  H   H93       1.0  0.34791  0.55497  0.99921  1.0000
  C   C96       1.0  0.17343  0.64334  0.07853  1.0000
  H   H94       1.0  0.26189  0.44208  0.14762  1.0000
  H   H95       1.0  0.18785  0.33900  0.13796  1.0000
  C   C97       1.0  0.25841  0.42137  0.16016  1.0000
  C   C98       1.0  0.15167  0.64938  0.01128  1.0000
  H   H96       1.0  0.25391  0.32903  0.19382  1.0000
  C   C99       1.0  0.20721  0.40158  0.08397  1.0000
  C   C100      1.0  0.20368  0.37360  0.09484  1.0000
  C   C101      1.0  0.19000  0.36029  0.13013  1.0000
  C   C102      1.0  0.17969  0.37485  0.15539  1.0000
  C   C103      1.0  0.18272  0.40254  0.14423  1.0000
  C   C104      1.0  0.19628  0.41578  0.10889  1.0000
  H   H97       1.0  0.21193  0.36226  0.07595  1.0000
  H   H98       1.0  0.23682  0.42617  0.21121  1.0000
  H   H99       1.0  0.17486  0.41412  0.16331  1.0000
  H   H100      1.0  0.19871  0.43724  0.10123  1.0000
  C   C105      1.0  0.23867  0.38496  0.21072  1.0000
  H   H101      1.0  0.22977  0.60486  0.03183  1.0000
  C   C106      1.0  0.23909  0.33738  0.20604  1.0000
  H   H102      1.0  0.24152  0.33840  0.23703  1.0000
  H   H103      1.0  0.27643  0.40903  0.11154  1.0000
  C   C107      1.0  0.15623  0.62504  0.01637  1.0000
  S   S36       1.0  0.21330  0.54530  0.00638  1.0000
  H   H104      1.0  0.22659  0.37768  0.23776  1.0000
  C   C108      1.0  0.22193  0.60275  0.00361  1.0000
  H   H105      1.0  0.26596  0.36054  0.13916  1.0000
  H   H106      1.0  0.39363  0.59711  0.02618  1.0000
  N   N9        1.0  0.24686  0.36687  0.19074  1.0000
  C   C109      1.0  0.26041  0.37530  0.15559  1.0000
  C   C110      1.0  0.16720  0.62194  0.05016  1.0000
  H   H107      1.0  0.18263  0.64116  0.10436  1.0000
  H   H108      1.0  0.17151  0.60344  0.05387  1.0000
  C   C111      1.0  0.38789  0.59899  0.99784  1.0000
  S   S37       1.0  0.18361  0.32184  0.28626  1.0000
  H   H109      1.0  0.27886  0.58653  0.00343  1.0000
  H   H110      1.0  0.22647  0.64711  0.00358  1.0000
  H   H111      1.0  0.09666  0.33559  0.20919  1.0000
  H   H112      1.0  0.15210  0.60908  0.99370  1.0000
  Fe  Fe19      1.0  0.15492  0.31985  0.23870  1.0000
  H   H113      1.0  0.20721  0.32007  0.47177  1.0000
  S   S38       1.0  0.44096  0.65292  0.99573  1.0000
  C   C112      1.0  0.22005  0.62674  0.98766  1.0000
  H   H114      1.0  0.45640  0.32994  0.99546  1.0000
  S   S39       1.0  0.24136  0.51229  0.92066  1.0000
  S   S40       1.0  0.25538  0.45901  0.94390  1.0000
  Fe  Fe20      1.0  0.27887  0.50988  0.94806  1.0000
  Fe  Fe21      1.0  0.21660  0.46139  0.92082  1.0000
  S   S41       1.0  0.18493  0.42866  0.87646  1.0000
  S   S42       1.0  0.19304  0.35517  0.73122  1.0000
  C   C113      1.0  0.37371  0.60265  0.92422  1.0000
  C   C114      1.0  0.18806  0.40944  0.83524  1.0000
  C   C115      1.0  0.21554  0.41302  0.82089  1.0000
  C   C116      1.0  0.21651  0.39631  0.78916  1.0000
  C   C117      1.0  0.19011  0.37562  0.77124  1.0000
  C   C118      1.0  0.16264  0.37207  0.78554  1.0000
  C   C119      1.0  0.16168  0.38889  0.81716  1.0000
  H   H115      1.0  0.23606  0.42863  0.83430  1.0000
  H   H116      1.0  0.23795  0.39942  0.77846  1.0000
  H   H117      1.0  0.14210  0.35639  0.77224  1.0000
  H   H118      1.0  0.14025  0.38583  0.82783  1.0000
  C   C120      1.0  0.20338  0.57353  0.94706  1.0000
  C   C121      1.0  0.20047  0.59710  0.93166  1.0000
  H   H119      1.0  0.19651  0.55295  0.93139  1.0000
  H   H120      1.0  0.19140  0.59442  0.90408  1.0000
  C   C122      1.0  0.39914  0.62704  0.93989  1.0000
  C   C123      1.0  0.35503  0.57642  0.94539  1.0000
  N   N10       1.0  0.18258  0.37201  0.93347  1.0000
  C   C124      1.0  0.21183  0.38044  0.93974  1.0000
  N   N11       1.0  0.30692  0.62123  0.96473  1.0000
  H   H121      1.0  0.36857  0.60397  0.89539  1.0000
  H   H122      1.0  0.14683  0.35158  0.89557  1.0000
  S   S43       1.0  0.32490  0.54529  0.92326  1.0000
  C   C125      1.0  0.21607  0.35956  0.87982  1.0000
  C   C126      1.0  0.20841  0.62367  0.95200  1.0000
  C   C127      1.0  0.16949  0.40081  0.61186  1.0000
  H   H123      1.0  0.34771  0.62618  0.98465  1.0000
  Fe  Fe22      1.0  0.22337  0.50996  0.97986  1.0000
  C   C128      1.0  0.28931  0.58925  0.97466  1.0000
  C   C129      1.0  0.17738  0.40894  0.64918  1.0000
  H   H124      1.0  0.26917  0.62277  0.94470  1.0000
  C   C130      1.0  0.19893  0.40369  0.66434  1.0000
  C   C131      1.0  0.47134  0.63262  0.92220  1.0000
  C   C132      1.0  0.21341  0.57591  0.98355  1.0000
  H   H125      1.0  0.19126  0.37754  0.53393  1.0000
  C   C133      1.0  0.40684  0.62498  0.97649  1.0000
  H   H126      1.0  0.14411  0.65247  0.98460  1.0000
  C   C134      1.0  0.45917  0.63339  0.88812  1.0000
  N   N12       1.0  0.18298  0.38811  0.59017  1.0000
  C   C135      1.0  0.16966  0.35727  0.90114  1.0000
  H   H127      1.0  0.25247  0.38198  0.91758  1.0000
  H   H128      1.0  0.15316  0.35583  0.55230  1.0000
  H   H129      1.0  0.20486  0.40935  0.69349  1.0000
  C   C136      1.0  0.17339  0.37862  0.55170  1.0000
  H   H130      1.0  0.14429  0.35835  0.97043  1.0000
  H   H131      1.0  0.22796  0.38488  0.65455  1.0000
  H   H132      1.0  0.22929  0.35540  0.85833  1.0000
  C   C137      1.0  0.29295  0.63532  0.95001  1.0000
  C   C138      1.0  0.21209  0.39014  0.64233  1.0000
  H   H133      1.0  0.15840  0.39459  0.94788  1.0000
  H   H134      1.0  0.15221  0.40432  0.60052  1.0000
  C   C139      1.0  0.20379  0.38240  0.60506  1.0000
  H   H135      1.0  0.27120  0.57678  0.95458  1.0000
  H   H136      1.0  0.16804  0.39453  0.53783  1.0000
  H   H137      1.0  0.21365  0.37125  0.58841  1.0000
  H   H138      1.0  0.16647  0.41870  0.66653  1.0000
  S   S44       1.0  0.13711  0.32326  0.64287  1.0000
  H   H139      1.0  0.17604  0.33971  0.84785  1.0000
  C   C140      1.0  0.18610  0.35059  0.87399  1.0000
  C   C141      1.0  0.22907  0.37454  0.91292  1.0000
  H   H140      1.0  0.22217  0.39226  0.96529  1.0000
  C   C142      1.0  0.16488  0.37919  0.96094  1.0000
  S   S45       1.0  0.20101  0.65120  0.93330  1.0000
  H   H141      1.0  0.43623  0.61660  0.88224  1.0000
  S   S46       1.0  0.19474  0.45920  0.97849  1.0000
  C   C143      1.0  0.36189  0.57504  0.98264  1.0000
  H   H142      1.0  0.45743  0.61524  0.94270  1.0000
  C   C144      1.0  0.33681  0.63719  0.97212  1.0000
  H   H143      1.0  0.30344  0.57840  0.97369  1.0000
  H   H144      1.0  0.41332  0.64698  0.92320  1.0000
  H   H145      1.0  0.17772  0.39061  0.98626  1.0000
  S   S47       1.0  0.18469  0.75023  0.05428  1.0000
  C   C145      1.0  0.45490  0.81956  0.01447  1.0000
  C   C146      1.0  0.17565  0.68950  0.10319  1.0000
  Fe  Fe23      1.0  0.16384  0.82654  0.24941  1.0000
  S   S48       1.0  0.12872  0.83351  0.22344  1.0000
  S   S49       1.0  0.19738  0.81904  0.21176  1.0000
  Fe  Fe24      1.0  0.14904  0.84311  0.33028  1.0000
  S   S50       1.0  0.11287  0.85050  0.30768  1.0000
  S   S51       1.0  0.15828  0.86053  0.39123  1.0000
  Fe  Fe25      1.0  0.09922  0.80852  0.27400  1.0000
  S   S52       1.0  0.05185  0.76815  0.27214  1.0000
  Fe  Fe26      1.0  0.14599  0.87494  0.25983  1.0000
  S   S53       1.0  0.15369  0.91999  0.23851  1.0000
  S   S54       1.0  0.13366  0.79931  0.29893  1.0000
  S   S55       1.0  0.18268  0.86966  0.28333  1.0000
  C   C147      1.0  0.18644  0.95489  0.24696  1.0000
  C   C148      1.0  0.21222  0.95631  0.26066  1.0000
  C   C149      1.0  0.21138  0.89754  0.18714  1.0000
  H   H146      1.0  0.21259  0.93586  0.26627  1.0000
  S   S56       1.0  0.31971  0.75676  0.00870  1.0000
  C   C150      1.0  0.01793  0.76726  0.26166  1.0000
  C   C151      1.0  0.01653  0.79346  0.25585  1.0000
  C   C152      1.0  0.23776  0.98439  0.26721  1.0000
  H   H147      1.0  0.03685  0.81513  0.25611  1.0000
  H   H148      1.0  0.12169  0.91625  0.31347  1.0000
  C   C153      1.0  0.15436  0.84283  0.43551  1.0000
  H   H149      1.0  0.19831  0.70914  0.09686  1.0000
  H   H150      1.0  0.40975  0.74597  0.00311  1.0000
  C   C154      1.0  0.00809  0.76014  0.35273  1.0000
  H   H151      1.0  0.98967  0.78886  0.34341  1.0000
  C   C155      1.0  0.16105  0.81970  0.43959  1.0000
  H   H152      1.0  0.14255  0.87276  0.46549  1.0000
  C   C156      1.0  0.00185  0.73052  0.35658  1.0000
  C   C157      1.0  0.99126  0.73930  0.26124  1.0000
  H   H153      1.0  0.16650  0.81038  0.41490  1.0000
  C   C158      1.0  0.18888  0.76922  0.09835  1.0000
  C   C159      1.0  0.16314  0.76681  0.11768  1.0000
  C   C160      1.0  0.16516  0.78149  0.15247  1.0000
  C   C161      1.0  0.19304  0.79873  0.16870  1.0000
  C   C162      1.0  0.21875  0.80098  0.14948  1.0000
  C   C163      1.0  0.21675  0.78643  0.11458  1.0000
  H   H154      1.0  0.14141  0.75358  0.10559  1.0000
  H   H155      1.0  0.14514  0.77948  0.16669  1.0000
  H   H156      1.0  0.24047  0.81419  0.16161  1.0000
  H   H157      1.0  0.23680  0.78857  0.10030  1.0000
  H   H158      1.0  0.17537  0.68044  0.13141  1.0000
  H   H159      1.0  0.15388  0.90629  0.34932  1.0000
  H   H160      1.0  0.12748  0.86006  0.11562  1.0000
  H   H161      1.0  0.43207  0.76435  0.06870  1.0000
  H   H162      1.0  0.22170  0.87618  0.48053  1.0000
  H   H163      1.0  0.19853  0.90418  0.20730  1.0000
  H   H164      1.0  0.15947  0.89219  0.16621  1.0000
  H   H165      1.0  0.16779  0.79197  0.47860  1.0000
  C   C164      1.0  0.18450  0.84438  0.10594  1.0000
  Fe  Fe27      1.0  0.21649  0.74584  0.00960  1.0000
  C   C165      1.0  0.14772  0.85484  0.46816  1.0000
  H   H166      1.0  0.23100  0.91823  0.17537  1.0000
  H   H167      1.0  0.03122  0.77837  0.35147  1.0000
  C   C166      1.0  0.20191  0.86239  0.13513  1.0000
  N   N13       1.0  0.16823  0.66678  0.07364  1.0000
  H   H168      1.0  0.14343  0.82884  0.07703  1.0000
  N   N14       1.0  0.19269  0.87895  0.15670  1.0000
  H   H169      1.0  0.15916  0.69765  0.10476  1.0000
  N   N15       1.0  0.46055  0.80746  0.04491  1.0000
  C   C167      1.0  0.16995  0.93019  0.34931  1.0000
  C   C168      1.0  0.19870  0.93987  0.36208  1.0000
  H   H170      1.0  0.36191  0.73978  0.03223  1.0000
  C   C169      1.0  0.98866  0.79159  0.24976  1.0000
  H   H171      1.0  0.41463  0.78721  0.06560  1.0000
  H   H172      1.0  0.98777  0.81194  0.24513  1.0000
  H   H173      1.0  0.99212  0.71890  0.26564  1.0000
  H   H174      1.0  0.19153  0.83063  0.08960  1.0000
  H   H175      1.0  0.20663  0.91375  0.46679  1.0000
  H   H176      1.0  0.15428  0.68907  0.03613  1.0000
  H   H177      1.0  0.25759  0.98520  0.27774  1.0000
  H   H178      1.0  0.21939  0.88475  0.20345  1.0000
  S   S57       1.0  0.23599  0.71508  0.01380  1.0000
  H   H179      1.0  0.11762  0.94171  0.34606  1.0000
  C   C170      1.0  0.15748  0.84335  0.09896  1.0000
  H   H180      1.0  0.22240  0.86230  0.14121  1.0000
  N   N16       1.0  0.16238  0.95046  0.33655  1.0000
  H   H181      1.0  0.20465  0.92351  0.37136  1.0000
  C   C171      1.0  0.16670  0.87885  0.14929  1.0000
  C   C172      1.0  0.14854  0.86079  0.12061  1.0000
  C   C173      1.0  0.13216  0.93998  0.32321  1.0000
  H   H182      1.0  0.13312  0.95339  0.29843  1.0000
  C   C174      1.0  0.16194  0.80942  0.47585  1.0000
  C   C175      1.0  0.15771  0.67011  0.04043  1.0000
  H   H183      1.0  0.43228  0.81488  0.00950  1.0000
  C   C176      1.0  0.21960  0.97058  0.36230  1.0000
  H   H184      1.0  0.16672  0.98104  0.22931  1.0000
  C   C177      1.0  0.18648  0.98187  0.24012  1.0000
  C   C178      1.0  0.98449  0.76589  0.34799  1.0000
  C   C179      1.0  0.36940  0.74956  0.00441  1.0000
  H   H185      1.0  0.44182  0.79551  0.10063  1.0000
  C   C180      1.0  0.18255  0.98064  0.33731  1.0000
  H   H186      1.0  0.02015  0.72580  0.35866  1.0000
  H   H187      1.0  0.24219  0.97842  0.37139  1.0000
  C   C181      1.0  0.43601  0.78769  0.07126  1.0000
  S   S58       1.0  0.46789  0.73733  0.01034  1.0000
  C   C182      1.0  0.39653  0.75309  0.98803  1.0000
  H   H188      1.0  0.20487  0.71607  0.87029  1.0000
  H   H189      1.0  0.26361  0.75182  0.82955  1.0000
  H   H190      1.0  0.17437  0.70210  0.79181  1.0000
  Fe  Fe28      1.0  0.23900  0.76231  0.92683  1.0000
  S   S59       1.0  0.19612  0.72577  0.95365  1.0000
  S   S60       1.0  0.24202  0.79047  0.87502  1.0000
  C   C183      1.0  0.07499  0.76101  0.73970  1.0000
  Fe  Fe29      1.0  0.22007  0.69891  0.95590  1.0000
  H   H191      1.0  0.37760  0.68040  0.96886  1.0000
  S   S61       1.0  0.25875  0.78364  0.98269  1.0000
  S   S62       1.0  0.26179  0.73408  0.92545  1.0000
  H   H192      1.0  0.04014  0.70112  0.72372  1.0000
  C   C184      1.0  0.20496  0.73967  0.75716  1.0000
  H   H193      1.0  0.18790  0.73717  0.73816  1.0000
  Fe  Fe30      1.0  0.15737  0.81851  0.69855  1.0000
  S   S63       1.0  0.14666  0.85547  0.71203  1.0000
  S   S64       1.0  0.15685  0.78711  0.74517  1.0000
  Fe  Fe31      1.0  0.15411  0.82678  0.61179  1.0000
  S   S65       1.0  0.14329  0.86389  0.62057  1.0000
  S   S66       1.0  0.16033  0.81011  0.55356  1.0000
  Fe  Fe32      1.0  0.17882  0.88134  0.66369  1.0000
  S   S67       1.0  0.21898  0.92914  0.66298  1.0000
  Fe  Fe33      1.0  0.11194  0.83456  0.66769  1.0000
  S   S68       1.0  0.06514  0.82819  0.67964  1.0000
  S   S69       1.0  0.19168  0.84547  0.65251  1.0000
  S   S70       1.0  0.12065  0.79630  0.65654  1.0000
  C   C185      1.0  0.21859  0.96361  0.66282  1.0000
  C   C186      1.0  0.19220  0.96491  0.66969  1.0000
  H   H194      1.0  0.29788  0.67725  0.93024  1.0000
  H   H195      1.0  0.17102  0.94433  0.67429  1.0000
  H   H196      1.0  0.07442  0.82067  0.78236  1.0000
  C   C187      1.0  0.03190  0.79482  0.66796  1.0000
  C   C188      1.0  0.03292  0.77076  0.65009  1.0000
  C   C189      1.0  0.00377  0.79162  0.67902  1.0000
  H   H197      1.0  0.05435  0.77298  0.64109  1.0000
  H   H198      1.0  0.00274  0.81013  0.69283  1.0000
  S   S71       1.0  0.47495  0.72164  0.92040  1.0000
  H   H199      1.0  0.39737  0.78653  0.90612  1.0000
  C   C190      1.0  0.38940  0.77574  0.93337  1.0000
  H   H200      1.0  0.14336  0.85402  0.52913  1.0000
  H   H201      1.0  0.23996  0.77985  0.73004  1.0000
  N   N17       1.0  0.21858  0.72404  0.81274  1.0000
  C   C191      1.0  0.22149  0.90144  0.56842  1.0000
  H   H202      1.0  0.25872  0.87402  0.54698  1.0000
  C   C192      1.0  0.15587  0.82183  0.50852  1.0000
  C   C193      1.0  0.21284  0.92279  0.56150  1.0000
  C   C194      1.0  0.18019  0.79020  0.78304  1.0000
  C   C195      1.0  0.21002  0.81343  0.78511  1.0000
  C   C196      1.0  0.22819  0.81346  0.81393  1.0000
  C   C197      1.0  0.21693  0.79051  0.84143  1.0000
  C   C198      1.0  0.18686  0.76770  0.83996  1.0000
  C   C199      1.0  0.16878  0.76748  0.81088  1.0000
  H   H203      1.0  0.21931  0.83110  0.76410  1.0000
  H   H204      1.0  0.25133  0.83132  0.81468  1.0000
  H   H205      1.0  0.17763  0.74997  0.86087  1.0000
  H   H206      1.0  0.14577  0.74940  0.80983  1.0000
  C   C200      1.0  0.25559  0.76772  0.77838  1.0000
  H   H207      1.0  0.18969  0.68250  0.84178  1.0000
  C   C201      1.0  0.36180  0.77135  0.94924  1.0000
  C   C202      1.0  0.08571  0.78824  0.75904  1.0000
  H   H208      1.0  0.00722  0.72490  0.63098  1.0000
  Fe  Fe34      1.0  0.27730  0.75161  0.98327  1.0000
  N   N18       1.0  0.04545  0.74475  0.73077  1.0000
  C   C203      1.0  0.02588  0.75474  0.74109  1.0000
  H   H209      1.0  0.09065  0.75331  0.73127  1.0000
  H   H210      1.0  0.21006  0.93551  0.58460  1.0000
  H   H211      1.0  0.10926  0.80125  0.76555  1.0000
  C   C204      1.0  0.23421  0.76372  0.75264  1.0000
  C   C205      1.0  0.14820  0.84427  0.50439  1.0000
  H   H212      1.0  0.34879  0.77885  0.93432  1.0000
  H   H213      1.0  0.35260  0.70614  0.94118  1.0000
  H   H214      1.0  0.22442  0.85189  0.57520  1.0000
  S   S72       1.0  0.44306  0.77596  0.93344  1.0000
  C   C206      1.0  0.00616  0.74351  0.64441  1.0000
  H   H215      1.0  0.00260  0.74230  0.73324  1.0000
  C   C207      1.0  0.03525  0.71700  0.70897  1.0000
  C   C208      1.0  0.24731  0.74758  0.80849  1.0000
  H   H216      1.0  0.04694  0.72239  0.68071  1.0000
  H   H217      1.0  0.22817  0.70056  0.85395  1.0000
  C   C209      1.0  0.40706  0.76696  0.95281  1.0000
  H   H218      1.0  0.22563  0.89809  0.59708  1.0000
  C   C210      1.0  0.30911  0.66608  0.94156  1.0000
  H   H219      1.0  0.47311  0.84551  0.96329  1.0000
  C   C211      1.0  0.23384  0.86284  0.54736  1.0000
  C   C212      1.0  0.35378  0.66790  0.96347  1.0000
  H   H220      1.0  0.27805  0.78705  0.77610  1.0000
  C   C213      1.0  0.03593  0.78205  0.76010  1.0000
  H   H221      1.0  0.02071  0.79064  0.76647  1.0000
  C   C214      1.0  0.20984  0.70481  0.84625  1.0000
  C   C215      1.0  0.19745  0.71997  0.78763  1.0000
  C   C216      1.0  0.35196  0.75882  0.98521  1.0000
  H   H222      1.0  0.01066  0.70551  0.70455  1.0000
  C   C217      1.0  0.06610  0.79896  0.76885  1.0000
  N   N19       1.0  0.22438  0.88483  0.53960  1.0000
  C   C218      1.0  0.33977  0.68235  0.94801  1.0000
  H   H223      1.0  0.22505  0.84431  0.52638  1.0000
  C   C219      1.0  0.21981  0.88960  0.50337  1.0000
  Fe  Fe35      1.0  0.47210  0.70168  0.97709  1.0000
  C   C220      1.0  0.20757  0.92740  0.52477  1.0000
  H   H224      1.0  0.20043  0.94360  0.51920  1.0000
  Fe  Fe36      1.0  0.47301  0.75847  0.95400  1.0000
  H   H225      1.0  0.46721  0.65753  0.83598  1.0000
  C   C221      1.0  0.47650  0.65631  0.86224  1.0000
  C   C222      1.0  0.21126  0.91088  0.49541  1.0000
  C   C223      1.0  0.97810  0.74004  0.65629  1.0000
  Fe  Fe37      1.0  0.76610  0.23109  0.00930  1.0000
  C   C224      1.0  0.60334  0.20541  0.00836  1.0000
  S   S73       1.0  0.79766  0.23046  0.05343  1.0000
  H   H226      1.0  0.77863  0.31694  0.06298  1.0000
  S   S74       1.0  0.74264  0.25863  0.01330  1.0000
  Fe  Fe38      1.0  0.88880  0.16708  0.26528  1.0000
  S   S75       1.0  0.85287  0.17809  0.28563  1.0000
  S   S76       1.0  0.93653  0.20717  0.26618  1.0000
  Fe  Fe39      1.0  0.84251  0.10084  0.25386  1.0000
  S   S77       1.0  0.80439  0.10793  0.27301  1.0000
  S   S78       1.0  0.83673  0.05464  0.23962  1.0000
  Fe  Fe40      1.0  0.82657  0.14996  0.23671  1.0000
  S   S79       1.0  0.79417  0.15878  0.20277  1.0000
  Fe  Fe41      1.0  0.83398  0.13550  0.31983  1.0000
  S   S80       1.0  0.81149  0.12267  0.37902  1.0000
  S   S81       1.0  0.86342  0.14113  0.21460  1.0000
  S   S82       1.0  0.87117  0.12621  0.30238  1.0000
  C   C225      1.0  0.57880  0.20590  0.99272  1.0000
  C   C226      1.0  0.50106  0.30215  0.08420  1.0000
  H   H227      1.0  0.84146  0.04261  0.32180  1.0000
  H   H228      1.0  0.95307  0.16166  0.24316  1.0000
  H   H229      1.0  0.87993  0.20214  0.46477  1.0000
  C   C227      1.0  0.82655  0.13831  0.42343  1.0000
  C   C228      1.0  0.81208  0.12183  0.45651  1.0000
  C   C229      1.0  0.85140  0.16716  0.42670  1.0000
  H   H230      1.0  0.79272  0.09958  0.45445  1.0000
  H   H231      1.0  0.86276  0.18020  0.40162  1.0000
  C   C230      1.0  0.80281  0.02015  0.24726  1.0000
  C   C231      1.0  0.80278  0.99287  0.24146  1.0000
  C   C232      1.0  0.77623  0.01927  0.26023  1.0000
  C   C233      1.0  0.86107  0.17957  0.46262  1.0000
  H   H232      1.0  0.77589  0.04003  0.26479  1.0000
  H   H233      1.0  0.84737  0.28257  0.01652  1.0000
  H   H234      1.0  0.60264  0.20111  0.03816  1.0000
  C   C234      1.0  0.79587  0.20914  0.09405  1.0000
  C   C235      1.0  0.82288  0.21367  0.10877  1.0000
  C   C236      1.0  0.82288  0.19812  0.14131  1.0000
  C   C237      1.0  0.79578  0.17799  0.16017  1.0000
  C   C238      1.0  0.76877  0.17357  0.14556  1.0000
  C   C239      1.0  0.76875  0.18878  0.11269  1.0000
  H   H235      1.0  0.84406  0.22930  0.09483  1.0000
  H   H236      1.0  0.84389  0.20197  0.15198  1.0000
  H   H237      1.0  0.74761  0.15815  0.15970  1.0000
  H   H238      1.0  0.74775  0.18502  0.10209  1.0000
  N   N20       1.0  0.77292  0.16509  0.30246  1.0000
  C   C240      1.0  0.77895  0.15994  0.33776  1.0000
  C   C241      1.0  0.78987  0.19275  0.28585  1.0000
  C   C242      1.0  0.80191  0.18305  0.35783  1.0000
  C   C243      1.0  0.81309  0.21634  0.30506  1.0000
  C   C244      1.0  0.81906  0.21141  0.34133  1.0000
  C   C245      1.0  0.74899  0.14032  0.28191  1.0000
  H   H239      1.0  0.76635  0.13772  0.35043  1.0000
  H   H240      1.0  0.78588  0.19658  0.25729  1.0000
  H   H241      1.0  0.80681  0.17868  0.38565  1.0000
  H   H242      1.0  0.82681  0.23804  0.29148  1.0000
  H   H243      1.0  0.83738  0.22928  0.35631  1.0000
  H   H244      1.0  0.75703  0.12505  0.27066  1.0000
  H   H245      1.0  0.72867  0.12737  0.30053  1.0000
  H   H246      1.0  0.74239  0.14865  0.25748  1.0000
  H   H247      1.0  0.49490  0.29657  0.11450  1.0000
  H   H248      1.0  0.77553  0.05566  0.38511  1.0000
  S   S83       1.0  0.50943  0.23908  0.01131  1.0000
  C   C246      1.0  0.75002  0.99146  0.26741  1.0000
  C   C247      1.0  0.82668  0.30751  0.03972  1.0000
  H   H249      1.0  0.80745  0.98757  0.32522  1.0000
  C   C248      1.0  0.76366  0.00947  0.37331  1.0000
  H   H250      1.0  0.55944  0.20187  0.01046  1.0000
  C   C249      1.0  0.78261  0.04069  0.37211  1.0000
  H   H251      1.0  0.82327  0.99334  0.23147  1.0000
  C   C250      1.0  0.80041  0.00229  0.33894  1.0000
  C   C251      1.0  0.81081  0.05265  0.35374  1.0000
  H   H252      1.0  0.82554  0.07682  0.35220  1.0000
  C   C252      1.0  0.84300  0.30097  0.01225  1.0000
  H   H253      1.0  0.50948  0.28746  0.07189  1.0000
  S   S84       1.0  0.65702  0.20531  0.00622  1.0000
  C   C253      1.0  0.97101  0.20688  0.26386  1.0000
  C   C254      1.0  0.81986  0.03341  0.33709  1.0000
  H   H254      1.0  0.74171  0.00029  0.38753  1.0000
  C   C255      1.0  0.97319  0.18214  0.25042  1.0000
  N   N21       1.0  0.77257  0.99073  0.35653  1.0000
  H   H255      1.0  0.72960  0.99110  0.27743  1.0000
  H   H256      1.0  0.81862  0.29396  0.06521  1.0000
  C   C256      1.0  0.47820  0.31846  0.03739  1.0000
  C   C257      1.0  0.90996  0.22815  0.73218  1.0000
  S   S85       1.0  0.72247  0.23786  0.92487  1.0000
  C   C258      1.0  0.75005  0.99271  0.63576  1.0000
  Fe  Fe42      1.0  0.74828  0.21274  0.92647  1.0000
  S   S86       1.0  0.74898  0.18106  0.87976  1.0000
  C   C259      1.0  0.96158  0.23957  0.73129  1.0000
  Fe  Fe43      1.0  0.51315  0.22061  0.95449  1.0000
  N   N22       1.0  0.67254  0.13333  0.92698  1.0000
  S   S87       1.0  0.54622  0.20563  0.93207  1.0000
  H   H257      1.0  0.62635  0.16764  0.89005  1.0000
  S   S88       1.0  0.51965  0.26072  0.92173  1.0000
  Fe  Fe44      1.0  0.83362  0.16254  0.68463  1.0000
  S   S89       1.0  0.84017  0.12360  0.69917  1.0000
  S   S90       1.0  0.82962  0.19402  0.72914  1.0000
  Fe  Fe45      1.0  0.84754  0.15757  0.59862  1.0000
  S   S91       1.0  0.85480  0.11867  0.60880  1.0000
  S   S92       1.0  0.86009  0.17993  0.54025  1.0000
  Fe  Fe46      1.0  0.81383  0.10126  0.64773  1.0000
  S   S93       1.0  0.77456  0.05386  0.64006  1.0000
  Fe  Fe47      1.0  0.88065  0.14477  0.65868  1.0000
  S   S94       1.0  0.92546  0.14827  0.67145  1.0000
  S   S95       1.0  0.80489  0.13921  0.63503  1.0000
  S   S96       1.0  0.87582  0.18473  0.64679  1.0000
  C   C260      1.0  0.96094  0.18130  0.66463  1.0000
  H   H258      1.0  0.68918  0.13607  0.87022  1.0000
  C   C261      1.0  0.67446  0.13999  0.88953  1.0000
  C   C262      1.0  0.49988  0.20446  0.84534  1.0000
  H   H259      1.0  0.94366  0.20852  0.64347  1.0000
  H   H260      1.0  0.52187  0.25251  0.83774  1.0000
  C   C263      1.0  0.50562  0.23071  0.82699  1.0000
  C   C264      1.0  0.82223  0.13396  0.49242  1.0000
  H   H261      1.0  0.81079  0.12099  0.51754  1.0000
  H   H262      1.0  0.51191  0.20571  0.87024  1.0000
  C   C265      1.0  0.79143  0.01772  0.67727  1.0000
  C   C266      1.0  0.77263  0.01942  0.65136  1.0000
  S   S97       1.0  0.72690  0.19150  0.98320  1.0000
  H   H263      1.0  0.80876  0.03810  0.68963  1.0000
  C   C267      1.0  0.89063  0.12099  0.51188  1.0000
  H   H264      1.0  0.94214  0.21010  0.52503  1.0000
  C   C268      1.0  0.84655  0.16312  0.49573  1.0000
  C   C269      1.0  0.95187  0.21040  0.74420  1.0000
  C   C270      1.0  0.57860  0.20978  0.95392  1.0000
  C   C271      1.0  0.60387  0.21450  0.93131  1.0000
  C   C272      1.0  0.62887  0.21504  0.94717  1.0000
  C   C273      1.0  0.91212  0.16019  0.76451  1.0000
  H   H265      1.0  0.96029  0.20699  0.56532  1.0000
  C   C274      1.0  0.77215  0.18531  0.83834  1.0000
  C   C275      1.0  0.79541  0.21330  0.82558  1.0000
  C   C276      1.0  0.81261  0.21540  0.79228  1.0000
  C   C277      1.0  0.80703  0.18964  0.77117  1.0000
  C   C278      1.0  0.78391  0.16162  0.78408  1.0000
  C   C279      1.0  0.76662  0.15953  0.81729  1.0000
  H   H266      1.0  0.80001  0.23338  0.84117  1.0000
  H   H267      1.0  0.83030  0.23724  0.78269  1.0000
  H   H268      1.0  0.77919  0.14157  0.76833  1.0000
  H   H269      1.0  0.74877  0.13771  0.82668  1.0000
  C   C280      1.0  0.91482  0.11663  0.56607  1.0000
  C   C281      1.0  0.48953  0.22874  0.79537  1.0000
  C   C282      1.0  0.92953  0.14792  0.56990  1.0000
  C   C283      1.0  0.96356  0.20786  0.65064  1.0000
  H   H270      1.0  0.62197  0.15396  0.95759  1.0000
  H   H271      1.0  0.92832  0.15260  0.75535  1.0000
  C   C284      1.0  0.65816  0.15269  0.87570  1.0000
  C   C285      1.0  0.68970  0.11978  0.94061  1.0000
  H   H272      1.0  0.66060  0.15885  0.84620  1.0000
  H   H273      1.0  0.65235  0.13312  0.98102  1.0000
  S   S98       1.0  0.78838  0.25113  0.95245  1.0000
  H   H274      1.0  0.87728  0.18364  0.75073  1.0000
  C   C286      1.0  0.63664  0.15007  0.93817  1.0000
  Fe  Fe48      1.0  0.76128  0.27500  0.95486  1.0000
  C   C287      1.0  0.63908  0.15768  0.90025  1.0000
  C   C288      1.0  0.65383  0.13811  0.95124  1.0000
  H   H275      1.0  0.89321  0.23470  0.72746  1.0000
  H   H276      1.0  0.73539  0.99381  0.61573  1.0000
  C   C289      1.0  0.67206  0.30483  0.96499  1.0000
  C   C290      1.0  0.90105  0.19919  0.74519  1.0000
  H   H277      1.0  0.86400  0.31167  0.95656  1.0000
  H   H278      1.0  0.62789  0.26860  0.98098  1.0000
  H   H279      1.0  0.64803  0.21855  0.92938  1.0000
  H   H280      1.0  0.67882  0.09569  0.93261  1.0000
  C   C291      1.0  0.94041  0.24837  0.72499  1.0000
  H   H281      1.0  0.60396  0.21747  0.90126  1.0000
  H   H282      1.0  0.90979  0.15977  0.79570  1.0000
  H   H283      1.0  0.71307  0.13157  0.92822  1.0000
  C   C292      1.0  0.90597  0.15222  0.51640  1.0000
  H   H284      1.0  0.89027  0.14359  0.75284  1.0000
  N   N23       1.0  0.92190  0.19051  0.75042  1.0000
  H   H285      1.0  0.92277  0.20194  0.57046  1.0000
  H   H286      1.0  0.94754  0.27074  0.71440  1.0000
  H   H287      1.0  0.88271  0.07878  0.53444  1.0000
  C   C293      1.0  0.89506  0.10309  0.53698  1.0000
  H   H288      1.0  0.68208  0.29049  0.96230  1.0000
  H   H289      1.0  0.90203  0.16595  0.49721  1.0000
  C   C294      1.0  0.93831  0.19770  0.55186  1.0000
  H   H290      1.0  0.94420  0.15817  0.59310  1.0000
  N   N24       1.0  0.92489  0.16527  0.54534  1.0000
  C   C295      1.0  0.62907  0.31118  0.97902  1.0000
  C   C296      1.0  0.64166  0.29252  0.97547  1.0000
  H   H291      1.0  0.96844  0.20353  0.74820  1.0000
  H   H292      1.0  0.69158  0.12169  0.97167  1.0000
  H   H293      1.0  0.91790  0.10299  0.58645  1.0000
  H   H294      1.0  0.49352  0.24932  0.78199  1.0000
  H   H295      1.0  0.72805  0.99344  0.71741  1.0000
  Fe  Fe49      1.0  0.51427  0.27832  0.97790  1.0000
  C   C297      1.0  0.78709  0.98946  0.68816  1.0000
  H   H296      1.0  0.87481  0.11082  0.48965  1.0000
  H   H297      1.0  0.80127  0.98829  0.70886  1.0000
  Fe  Fe50      1.0  0.70477  0.22030  0.98320  1.0000
  C   C298      1.0  0.85235  0.31731  0.97866  1.0000
  C   C299      1.0  0.62839  0.20967  0.98570  1.0000
  C   C300      1.0  0.47834  0.17661  0.83179  1.0000
  H   H298      1.0  0.60542  0.30188  0.98709  1.0000
  C   C301      1.0  0.83615  0.59612  0.01117  1.0000
  S   S99       1.0  0.72230  0.47044  0.01779  1.0000
  Fe  Fe51      1.0  0.75373  0.52059  0.01078  1.0000
  S   S100      1.0  0.76326  0.56103  0.04975  1.0000
  H   H299      1.0  0.80137  0.60495  0.99548  1.0000
  S   S101      1.0  0.81571  0.61167  0.21273  1.0000
  H   H300      1.0  0.75903  0.64711  0.24430  1.0000
  H   H301      1.0  0.80226  0.35701  0.05750  1.0000
  H   H302      1.0  0.75383  0.32652  0.00767  1.0000
  C   C302      1.0  0.82971  0.34645  0.00144  1.0000
  C   C303      1.0  0.76631  0.39751  0.99024  1.0000
  H   H303      1.0  0.81059  0.64093  0.14476  1.0000
  C   C304      1.0  0.59903  0.37699  0.00866  1.0000
  C   C305      1.0  0.77994  0.57501  0.09422  1.0000
  C   C306      1.0  0.79071  0.60557  0.10304  1.0000
  C   C307      1.0  0.80263  0.61746  0.13851  1.0000
  C   C308      1.0  0.80350  0.59881  0.16610  1.0000
  C   C309      1.0  0.79314  0.56837  0.15706  1.0000
  C   C310      1.0  0.78166  0.55659  0.12140  1.0000
  H   H304      1.0  0.78967  0.62018  0.08236  1.0000
  H   H305      1.0  0.87127  0.58546  0.01810  1.0000
  H   H306      1.0  0.79378  0.55366  0.17796  1.0000
  H   H307      1.0  0.77351  0.53307  0.11531  1.0000
  H   H308      1.0  0.74793  0.57217  0.22215  1.0000
  H   H309      1.0  0.74944  0.36823  0.03874  1.0000
  C   C311      1.0  0.75791  0.37067  0.00982  1.0000
  S   S102      1.0  0.76455  0.42729  0.01431  1.0000
  C   C312      1.0  0.80226  0.33568  0.06286  1.0000
  C   C313      1.0  0.73687  0.60056  0.17001  1.0000
  C   C314      1.0  0.75342  0.63944  0.21564  1.0000
  H   H310      1.0  0.73023  0.57755  0.16221  1.0000
  H   H311      1.0  0.73301  0.61269  0.11358  1.0000
  H   H312      1.0  0.59461  0.37442  0.03879  1.0000
  H   H313      1.0  0.71956  0.57748  0.24804  1.0000
  N   N25       1.0  0.74476  0.61033  0.20598  1.0000
  C   C315      1.0  0.74251  0.58908  0.23468  1.0000
  H   H314      1.0  0.83050  0.59528  0.04109  1.0000
  H   H315      1.0  0.49991  0.33827  0.03149  1.0000
  H   H316      1.0  0.75919  0.60081  0.25666  1.0000
  H   H317      1.0  0.64040  0.41955  0.01310  1.0000
  C   C316      1.0  0.76045  0.34704  0.99234  1.0000
  C   C317      1.0  0.73847  0.62040  0.14231  1.0000
  H   H318      1.0  0.81123  0.33731  0.09117  1.0000
  N   N26       1.0  0.82036  0.33010  0.03416  1.0000
  C   C318      1.0  0.62509  0.40261  0.99419  1.0000
  H   H319      1.0  0.82409  0.36386  0.99642  1.0000
  H   H320      1.0  0.51986  0.32578  0.08213  1.0000
  S   S103      1.0  0.54530  0.32396  0.00429  1.0000
  C   C319      1.0  0.85900  0.59058  0.99824  1.0000
  Fe  Fe52      1.0  0.75914  0.46474  0.98845  1.0000
  H   H321      1.0  0.78794  0.64464  0.48550  1.0000
  C   C320      1.0  0.74801  0.65031  0.15172  1.0000
  Fe  Fe53      1.0  0.77241  0.51369  0.92875  1.0000
  S   S104      1.0  0.73569  0.52115  0.95379  1.0000
  S   S105      1.0  0.80567  0.54092  0.87987  1.0000
  C   C321      1.0  0.84567  0.34019  0.97315  1.0000
  H   H322      1.0  0.78387  0.42098  0.93754  1.0000
  Fe  Fe54      1.0  0.70783  0.47037  0.95914  1.0000
  C   C322      1.0  0.79746  0.57314  0.63716  1.0000
  S   S106      1.0  0.74365  0.46309  0.93018  1.0000
  H   H323      1.0  0.77635  0.54700  0.72637  1.0000
  C   C323      1.0  0.79038  0.58722  0.60929  1.0000
  C   C324      1.0  0.76099  0.57449  0.67955  1.0000
  S   S107      1.0  0.80376  0.61952  0.74225  1.0000
  N   N27       1.0  0.82632  0.60212  0.94743  1.0000
  C   C325      1.0  0.76838  0.59522  0.61712  1.0000
  H   H324      1.0  0.88269  0.58599  0.94913  1.0000
  H   H325      1.0  0.79128  0.53259  0.69001  1.0000
  H   H326      1.0  0.81456  0.56965  0.70973  1.0000
  C   C326      1.0  0.80457  0.56277  0.84194  1.0000
  C   C327      1.0  0.83088  0.57999  0.81938  1.0000
  C   C328      1.0  0.83134  0.59793  0.78932  1.0000
  C   C329      1.0  0.80535  0.59879  0.78118  1.0000
  C   C330      1.0  0.77904  0.58156  0.80373  1.0000
  C   C331      1.0  0.77865  0.56382  0.83397  1.0000
  H   H327      1.0  0.85109  0.57938  0.82509  1.0000
  H   H328      1.0  0.85174  0.61087  0.77227  1.0000
  H   H329      1.0  0.75873  0.58190  0.79778  1.0000
  H   H330      1.0  0.75819  0.55074  0.85087  1.0000
  C   C332      1.0  0.84888  0.59694  0.93450  1.0000
  H   H331      1.0  0.71645  0.39245  0.93893  1.0000
  H   H332      1.0  0.80246  0.59274  0.58210  1.0000
  C   C333      1.0  0.63060  0.40684  0.95526  1.0000
  H   H333      1.0  0.73716  0.59589  0.65928  1.0000
  H   H334      1.0  0.56901  0.34206  0.92665  1.0000
  H   H335      1.0  0.76335  0.60695  0.59606  1.0000
  C   C334      1.0  0.75361  0.58891  0.65248  1.0000
  C   C335      1.0  0.61022  0.38468  0.93114  1.0000
  C   C336      1.0  0.58459  0.35867  0.94563  1.0000
  S   S108      1.0  0.66157  0.43991  0.93536  1.0000
  H   H336      1.0  0.78976  0.37995  0.90718  1.0000
  H   H337      1.0  0.70231  0.39787  0.98397  1.0000
  C   C337      1.0  0.77235  0.35041  0.95542  1.0000
  C   C338      1.0  0.78046  0.37709  0.93573  1.0000
  C   C339      1.0  0.69565  0.38653  0.95626  1.0000
  N   N28       1.0  0.78276  0.56688  0.67172  1.0000
  H   H338      1.0  0.61413  0.38783  0.90098  1.0000
  H   H339      1.0  0.81524  0.56784  0.63125  1.0000
  C   C340      1.0  0.77710  0.40038  0.95285  1.0000
  H   H340      1.0  0.75013  0.57062  0.70741  1.0000
  C   C341      1.0  0.79159  0.55323  0.70080  1.0000
  H   H341      1.0  0.78704  0.58414  0.91622  1.0000
  N   N29       1.0  0.67697  0.35394  0.96176  1.0000
  S   S109      1.0  0.86027  0.64675  0.64712  1.0000
  C   C342      1.0  0.64725  0.34204  0.97230  1.0000
  H   H342      1.0  0.71307  0.34522  0.94999  1.0000
  S   S110      1.0  0.77946  0.32294  0.93378  1.0000
  C   C343      1.0  0.86546  0.59097  0.95964  1.0000
  C   C344      1.0  0.68949  0.33580  0.95816  1.0000
  C   C345      1.0  0.57859  0.35491  0.98451  1.0000
  C   C346      1.0  0.80763  0.60612  0.92076  1.0000
  H   H343      1.0  0.51194  0.63085  0.96864  1.0000
  H   H344      1.0  0.85358  0.59652  0.90450  1.0000
  H   H345      1.0  0.80095  0.62256  0.93149  1.0000
  H   H346      1.0  0.81970  0.61447  0.89301  1.0000
  H   H347      1.0  0.85175  0.35231  0.94659  1.0000
  S   S111      1.0  0.79161  0.51485  0.98531  1.0000
  C   C347      1.0  0.51204  0.65246  0.96618  1.0000
  H   H348      1.0  0.68328  0.39574  0.94153  1.0000
  H   H349      1.0  0.63749  0.35646  0.97559  1.0000
  C   C348      1.0  0.81977  0.60165  0.98521  1.0000
  S   S112      1.0  0.81684  0.65240  0.55544  1.0000
  H   H350      1.0  0.75924  0.94590  0.33783  1.0000
  H   H351      1.0  0.92598  0.69534  0.35173  1.0000
  S   S113      1.0  0.54060  0.78778  0.06602  1.0000
  Fe  Fe55      1.0  0.66807  0.82160  0.23183  1.0000
  S   S114      1.0  0.71599  0.85860  0.22057  1.0000
  S   S115      1.0  0.64104  0.79893  0.17864  1.0000
  Fe  Fe56      1.0  0.67827  0.82500  0.31860  1.0000
  S   S116      1.0  0.72593  0.86229  0.31136  1.0000
  S   S117      1.0  0.66248  0.80253  0.37672  1.0000
  Fe  Fe57      1.0  0.70836  0.88201  0.27037  1.0000
  S   S118      1.0  0.71651  0.93007  0.27226  1.0000
  Fe  Fe58      1.0  0.72901  0.83509  0.26250  1.0000
  S   S119      1.0  0.77105  0.83059  0.25655  1.0000
  S   S120      1.0  0.65973  0.84612  0.28033  1.0000
  S   S121      1.0  0.68211  0.79680  0.27115  1.0000
  S   S122      1.0  0.84038  0.70013  0.22244  1.0000
  Fe  Fe59      1.0  0.84944  0.68298  0.32721  1.0000
  S   S123      1.0  0.85656  0.72776  0.30822  1.0000
  Fe  Fe60      1.0  0.81513  0.70215  0.27497  1.0000
  S   S124      1.0  0.77389  0.70813  0.27308  1.0000
  Fe  Fe61      1.0  0.88146  0.72175  0.25801  1.0000
  S   S125      1.0  0.92726  0.76241  0.24329  1.0000
  H   H352      1.0  0.53514  0.83446  0.02921  1.0000
  H   H353      1.0  0.89691  0.69053  0.45451  1.0000
  H   H354      1.0  0.72775  0.94281  0.18857  1.0000
  C   C349      1.0  0.82254  0.66173  0.44102  1.0000
  C   C350      1.0  0.85329  0.67456  0.43188  1.0000
  H   H355      1.0  0.76131  0.93130  0.14835  1.0000
  N   N30       1.0  0.95548  0.74272  0.34729  1.0000
  H   H356      1.0  0.94314  0.71578  0.25536  1.0000
  C   C351      1.0  0.77659  0.96501  0.24893  1.0000
  C   C352      1.0  0.75010  0.96425  0.26201  1.0000
  Fe  Fe62      1.0  0.51873  0.76246  0.01131  1.0000
  H   H357      1.0  0.77695  0.94421  0.24461  1.0000
  C   C353      1.0  0.48900  0.81284  0.05040  1.0000
  C   C354      1.0  0.77150  0.79616  0.25835  1.0000
  C   C355      1.0  0.79917  0.79695  0.26096  1.0000
  C   C356      1.0  0.80041  0.77021  0.26465  1.0000
  C   C357      1.0  0.77394  0.74233  0.26542  1.0000
  C   C358      1.0  0.74634  0.74150  0.26183  1.0000
  C   C359      1.0  0.74507  0.76825  0.25859  1.0000
  H   H358      1.0  0.81977  0.81840  0.26048  1.0000
  H   H359      1.0  0.82182  0.77121  0.26716  1.0000
  H   H360      1.0  0.72573  0.72007  0.26227  1.0000
  H   H361      1.0  0.72364  0.76725  0.25642  1.0000
  C   C360      1.0  0.66883  0.82011  0.42185  1.0000
  C   C361      1.0  0.67826  0.85071  0.42616  1.0000
  C   C362      1.0  0.66322  0.80252  0.45440  1.0000
  H   H362      1.0  0.68242  0.86451  0.40154  1.0000
  H   H363      1.0  0.65566  0.77879  0.45148  1.0000
  C   C363      1.0  0.56825  0.78989  0.09719  1.0000
  C   C364      1.0  0.57357  0.80695  0.13050  1.0000
  C   C365      1.0  0.59524  0.80963  0.15592  1.0000
  C   C366      1.0  0.61233  0.79550  0.14834  1.0000
  C   C367      1.0  0.60701  0.77845  0.11504  1.0000
  C   C368      1.0  0.58518  0.77560  0.08974  1.0000
  H   H364      1.0  0.56063  0.81803  0.13688  1.0000
  H   H365      1.0  0.59854  0.82247  0.18150  1.0000
  H   H366      1.0  0.61991  0.76731  0.10869  1.0000
  H   H367      1.0  0.58157  0.76241  0.06440  1.0000
  C   C369      1.0  0.96341  0.73747  0.25560  1.0000
  H   H368      1.0  0.73986  0.88314  0.11261  1.0000
  H   H369      1.0  0.96701  0.68395  0.35937  1.0000
  S   S126      1.0  0.86831  0.68285  0.38461  1.0000
  N   N31       1.0  0.75403  0.79610  0.35142  1.0000
  C   C370      1.0  0.76015  0.77295  0.35044  1.0000
  C   C371      1.0  0.72496  0.79030  0.35405  1.0000
  C   C372      1.0  0.73680  0.74304  0.35098  1.0000
  C   C373      1.0  0.70106  0.76070  0.35445  1.0000
  C   C374      1.0  0.70707  0.73695  0.35270  1.0000
  C   C375      1.0  0.77881  0.82726  0.35128  1.0000
  H   H370      1.0  0.78318  0.77749  0.34788  1.0000
  H   H371      1.0  0.72004  0.80859  0.35548  1.0000
  H   H372      1.0  0.74182  0.72480  0.34860  1.0000
  H   H373      1.0  0.67804  0.75635  0.35583  1.0000
  H   H374      1.0  0.68873  0.71391  0.35228  1.0000
  H   H375      1.0  0.79814  0.82964  0.33318  1.0000
  H   H376      1.0  0.77198  0.84266  0.33901  1.0000
  H   H377      1.0  0.78603  0.83451  0.38038  1.0000
  N   N32       1.0  0.68790  0.90233  0.17490  1.0000
  C   C376      1.0  0.67600  0.87586  0.15545  1.0000
  C   C377      1.0  0.71816  0.92214  0.17245  1.0000
  C   C378      1.0  0.69440  0.86866  0.13253  1.0000
  H   H378      1.0  0.93908  0.77152  0.32950  1.0000
  C   C379      1.0  0.72526  0.88877  0.12966  1.0000
  C   C380      1.0  0.66809  0.90846  0.19998  1.0000
  H   H379      1.0  0.65220  0.85979  0.15824  1.0000
  C   C381      1.0  0.94905  0.71366  0.35210  1.0000
  H   H380      1.0  0.68476  0.84712  0.11817  1.0000
  C   C382      1.0  0.96194  0.76363  0.24986  1.0000
  C   C383      1.0  0.73728  0.91573  0.14971  1.0000
  H   H381      1.0  0.64719  0.90321  0.18584  1.0000
  H   H382      1.0  0.66209  0.89445  0.22584  1.0000
  H   H383      1.0  0.67916  0.93242  0.20885  1.0000
  C   C384      1.0  0.93091  0.74887  0.34190  1.0000
  S   S127      1.0  0.87559  0.67779  0.27753  1.0000
  H   H384      1.0  0.76282  0.68311  0.19644  1.0000
  H   H385      1.0  0.68756  0.88674  0.46547  1.0000
  C   C385      1.0  0.68113  0.86326  0.46252  1.0000
  C   C386      1.0  0.87310  0.68082  0.46119  1.0000
  H   H386      1.0  0.72915  0.95232  0.35179  1.0000
  H   H387      1.0  0.75196  0.94966  0.38729  1.0000
  C   C387      1.0  0.75235  0.95809  0.35862  1.0000
  H   H388      1.0  0.49344  0.80280  0.07413  1.0000
  H   H389      1.0  0.49797  0.65414  0.98984  1.0000
  H   H390      1.0  0.91509  0.73252  0.32172  1.0000
  S   S128      1.0  0.80579  0.65720  0.29755  1.0000
  H   H391      1.0  0.91842  0.74672  0.36906  1.0000
  C   C388      1.0  0.81181  0.65487  0.47888  1.0000
  H   H392      1.0  0.80697  0.65664  0.41886  1.0000
  C   C389      1.0  0.97213  0.70708  0.35659  1.0000
  C   C390      1.0  0.51272  0.83076  0.02507  1.0000
  Fe  Fe63      1.0  0.83260  0.65617  0.24571  1.0000
  C   C391      1.0  0.50708  0.84278  0.99366  1.0000
  C   C392      1.0  0.75542  0.65991  0.18864  1.0000
  H   H393      1.0  0.74977  0.66607  0.13046  1.0000
  C   C393      1.0  0.47803  0.83724  0.98832  1.0000
  Fe  Fe64      1.0  0.52518  0.74881  0.92687  1.0000
  S   S129      1.0  0.56139  0.75341  0.88211  1.0000
  C   C394      1.0  0.66119  0.91224  0.72165  1.0000
  Fe  Fe65      1.0  0.65676  0.83353  0.68332  1.0000
  S   S130      1.0  0.70137  0.84247  0.70246  1.0000
  S   S131      1.0  0.61690  0.82391  0.72454  1.0000
  Fe  Fe66      1.0  0.68178  0.85061  0.60046  1.0000
  S   S132      1.0  0.72771  0.86105  0.61607  1.0000
  S   S133      1.0  0.67732  0.86249  0.54017  1.0000
  Fe  Fe67      1.0  0.70559  0.81590  0.65033  1.0000
  S   S134      1.0  0.72885  0.76204  0.64753  1.0000
  Fe  Fe68      1.0  0.72076  0.88398  0.66642  1.0000
  S   S135      1.0  0.75743  0.92760  0.69017  1.0000
  S   S136      1.0  0.65821  0.80699  0.63258  1.0000
  S   S137      1.0  0.67626  0.87650  0.64940  1.0000
  S   S138      1.0  0.87363  0.70036  0.70982  1.0000
  H   H394      1.0  0.66156  0.80125  0.51542  1.0000
  S   S139      1.0  0.87924  0.71522  0.61864  1.0000
  Fe  Fe69      1.0  0.89711  0.69455  0.65784  1.0000
  S   S140      1.0  0.94556  0.70425  0.65205  1.0000
  Fe  Fe70      1.0  0.85230  0.71689  0.66942  1.0000
  S   S141      1.0  0.84860  0.75889  0.67966  1.0000
  C   C395      1.0  0.68918  0.89649  0.76094  1.0000
  H   H395      1.0  0.81031  0.73212  0.55593  1.0000
  C   C396      1.0  0.86243  0.67434  0.49909  1.0000
  C   C397      1.0  0.83165  0.66117  0.50817  1.0000
  C   C398      1.0  0.83461  0.74247  0.55373  1.0000
  H   H396      1.0  0.95551  0.76197  0.68258  1.0000
  C   C399      1.0  0.76421  0.96274  0.67292  1.0000
  H   H397      1.0  0.87798  0.67915  0.52120  1.0000
  C   C400      1.0  0.74600  0.96451  0.64622  1.0000
  H   H398      1.0  0.89042  0.73978  0.50173  1.0000
  H   H399      1.0  0.72831  0.94416  0.63426  1.0000
  C   C401      1.0  0.76256  0.76209  0.65737  1.0000
  C   C402      1.0  0.78789  0.78733  0.67115  1.0000
  C   C403      1.0  0.81386  0.78583  0.67843  1.0000
  C   C404      1.0  0.81487  0.75920  0.67212  1.0000
  C   C405      1.0  0.78974  0.73409  0.65805  1.0000
  C   C406      1.0  0.76375  0.73554  0.65085  1.0000
  H   H400      1.0  0.78774  0.80802  0.67653  1.0000
  H   H401      1.0  0.83327  0.80542  0.68913  1.0000
  H   H402      1.0  0.79026  0.71351  0.65276  1.0000
  H   H403      1.0  0.74437  0.71586  0.64025  1.0000
  H   H404      1.0  0.63913  0.92794  0.68548  1.0000
  Fe  Fe71      1.0  0.83578  0.65384  0.69731  1.0000
  H   H405      1.0  0.64239  0.88936  0.72244  1.0000
  C   C407      1.0  0.67527  0.84566  0.49510  1.0000
  Fe  Fe72      1.0  0.84116  0.66841  0.61090  1.0000
  C   C408      1.0  0.57687  0.77390  0.83879  1.0000
  C   C409      1.0  0.56525  0.79027  0.82207  1.0000
  C   C410      1.0  0.57782  0.80535  0.78734  1.0000
  C   C411      1.0  0.60230  0.80455  0.76873  1.0000
  C   C412      1.0  0.61410  0.78840  0.78561  1.0000
  C   C413      1.0  0.60139  0.77313  0.82020  1.0000
  H   H406      1.0  0.54641  0.79113  0.83570  1.0000
  H   H407      1.0  0.56835  0.81764  0.77470  1.0000
  H   H408      1.0  0.63284  0.78742  0.77190  1.0000
  H   H409      1.0  0.61067  0.76060  0.83269  1.0000
  H   H410      1.0  0.68695  0.89983  0.79160  1.0000
  N   N33       1.0  0.68689  0.91946  0.73972  1.0000
  H   H411      1.0  0.92286  0.81504  0.59586  1.0000
  C   C414      1.0  0.50579  0.67789  0.87049  1.0000
  H   H412      1.0  0.88914  0.80804  0.62194  1.0000
  H   H413      1.0  0.51943  0.69606  0.85076  1.0000
  C   C415      1.0  0.68326  0.96342  0.69939  1.0000
  S   S142      1.0  0.52262  0.72530  0.98161  1.0000
  S   S143      1.0  0.81318  0.67119  0.65992  1.0000
  N   N34       1.0  0.69577  0.77991  0.61861  1.0000
  C   C416      1.0  0.68346  0.77075  0.65691  1.0000
  C   C417      1.0  0.72642  0.80358  0.61033  1.0000
  C   C418      1.0  0.70294  0.78608  0.68977  1.0000
  C   C419      1.0  0.74693  0.81969  0.64241  1.0000
  C   C420      1.0  0.73500  0.81072  0.68232  1.0000
  C   C421      1.0  0.67779  0.76261  0.58698  1.0000
  H   H414      1.0  0.66101  0.75197  0.66203  1.0000
  H   H415      1.0  0.73518  0.80888  0.58152  1.0000
  H   H416      1.0  0.69448  0.77860  0.71830  1.0000
  H   H417      1.0  0.77014  0.83671  0.63668  1.0000
  H   H418      1.0  0.74960  0.82125  0.70557  1.0000
  H   H419      1.0  0.68116  0.77778  0.56308  1.0000
  H   H420      1.0  0.68469  0.74600  0.57778  1.0000
  H   H421      1.0  0.65344  0.75037  0.59505  1.0000
  S   S144      1.0  0.52352  0.78714  0.95691  1.0000
  N   N35       1.0  0.88290  0.77626  0.57831  1.0000
  C   C422      1.0  0.87961  0.74676  0.52343  1.0000
  C   C423      1.0  0.85231  0.76386  0.58011  1.0000
  C   C424      1.0  0.84842  0.73406  0.52509  1.0000
  N   N36       1.0  0.50005  0.65394  0.93014  1.0000
  C   C425      1.0  0.89660  0.76777  0.55064  1.0000
  C   C426      1.0  0.90095  0.79705  0.60771  1.0000
  H   H422      1.0  0.92072  0.77673  0.55001  1.0000
  H   H423      1.0  0.68237  0.98045  0.68268  1.0000
  C   C427      1.0  0.71044  0.94833  0.73893  1.0000
  C   C428      1.0  0.65913  0.93401  0.70083  1.0000
  H   H424      1.0  0.52505  0.85572  0.97304  1.0000
  H   H425      1.0  0.84137  0.77014  0.60233  1.0000
  C   C429      1.0  0.66665  0.81522  0.49077  1.0000
  H   H426      1.0  0.71121  0.89782  0.75428  1.0000
  H   H427      1.0  0.90504  0.78444  0.62961  1.0000
  H   H428      1.0  0.53542  0.67115  0.96935  1.0000
  H   H429      1.0  0.83492  0.71733  0.50460  1.0000
  H   H430      1.0  0.67139  0.87338  0.75371  1.0000
  H   H431      1.0  0.73103  0.95394  0.75266  1.0000
  C   C430      1.0  0.51731  0.67635  0.90475  1.0000
  H   H432      1.0  0.54002  0.69350  0.91099  1.0000
  C   C431      1.0  0.70891  0.97077  0.71899  1.0000
  C   C432      1.0  0.97696  0.76438  0.67319  1.0000
