data_image0
_chemical_formula_structural       HCFeSCHSC6H6SH2C3NC3SHFeCH5SH6C3H2CFe2HSHS2CFeS2C6H6C3H3NHCHCFeCS2C2NH2CH3C3SHCNHCH3FeS2FeSCSCSFeSC3HC6H4CHCHCHC2HFeHNH2CH3C2SH2CHCSHFeSCSHC8H5C3SH3NCFeHNH2SHCH2CH3SC4H2C2NSFeSHFe2SC7H4CSCSHS2C7H4C2HS2H4CFeCNHC2HCH2CHCH2C3HCH3Fe2SHCHCHCHFeSCS2FeS2HC6H4FeHSC2SFeS2C6H4NH4FeCHCH2C6H2CH2CHNH2C2HS2H4CH2CSCFeS2FeS2C6H5NFeHSH3SFeSCHC7H3CHCSFeCSHC2H5C3HC2NS3H2CHCHCHNCHNH2C3SCFeSC2SNHC6H4CSH2CSCSC7H4CH2NHFeH2CHNFeH2FeHC2S2CFeH2SHCHCHC2H5CHFeSHCH3SCFeSCHCSCSFeC6NH3SCNH5C2HC2H2C3HCH3CHC2SH2CH2SHCHNC3FeHFeSCFeSH2FeSC2HS3HC6H5CHFeH3CHC2HCH2CSHFeSNSCS2C6H2FeHCHCH2C2Fe2CSH2CHSH4CHCHC2SFeCHSC2FeSCHCHSC6H2C2HCNHC2NH2SCHC3H2SH2C3H2CHFeH3
_chemical_formula_sum              "H288 C288 Fe48 S96 N24"
_cell_length_a       39.6133
_cell_length_b       25.3555
_cell_length_c       37.5393
_cell_angle_alpha    90.2896
_cell_angle_beta     74.8067
_cell_angle_gamma    89.7932

_space_group_name_H-M_alt    "P 1"
_space_group_IT_number       1

loop_
  _space_group_symop_operation_xyz
  'x, y, z'

loop_
  _atom_site_type_symbol
  _atom_site_label
  _atom_site_symmetry_multiplicity
  _atom_site_fract_x
  _atom_site_fract_y
  _atom_site_fract_z
  _atom_site_occupancy
  H   H1        1.0  0.12573  0.19991  0.16379  1.0000
  C   C1        1.0  0.16589  0.32996  0.07800  1.0000
  Fe  Fe1       1.0  0.09742  0.31717  0.02696  1.0000
  S   S1        1.0  0.07109  0.29298  0.08617  1.0000
  C   C2        1.0  0.16167  0.17099  0.11412  1.0000
  H   H2        1.0  0.03520  0.39673  0.48729  1.0000
  S   S2        1.0  0.07786  0.07161  0.16224  1.0000
  C   C3        1.0  0.06881  0.22854  0.10483  1.0000
  C   C4        1.0  0.08651  0.18569  0.08458  1.0000
  C   C5        1.0  0.08726  0.13659  0.10191  1.0000
  C   C6        1.0  0.07005  0.12970  0.13943  1.0000
  C   C7        1.0  0.05131  0.17207  0.15928  1.0000
  C   C8        1.0  0.05077  0.22123  0.14207  1.0000
  H   H3        1.0  0.10054  0.19075  0.05593  1.0000
  H   H4        1.0  0.10210  0.10418  0.08643  1.0000
  H   H5        1.0  0.03891  0.16764  0.18836  1.0000
  H   H6        1.0  0.03722  0.25427  0.15796  1.0000
  H   H7        1.0  0.13902  0.34512  0.08031  1.0000
  H   H8        1.0  0.99876  0.23736  0.23443  1.0000
  S   S3        1.0  0.11554  0.40198  0.01956  1.0000
  H   H9        1.0  0.02352  0.48402  0.42035  1.0000
  H   H10       1.0  0.17835  0.35467  0.09544  1.0000
  C   C9        1.0  0.07964  0.44678  0.48591  1.0000
  C   C10       1.0  0.26329  0.46273  0.47926  1.0000
  C   C11       1.0  0.14263  0.21024  0.13701  1.0000
  N   N1        1.0  0.16435  0.27486  0.09001  1.0000
  C   C12       1.0  0.14410  0.26223  0.12435  1.0000
  C   C13       1.0  0.18325  0.23664  0.06738  1.0000
  C   C14       1.0  0.18205  0.18412  0.07902  1.0000
  S   S4        1.0  0.28931  0.40430  0.46660  1.0000
  H   H11       1.0  0.09251  0.43691  0.45743  1.0000
  Fe  Fe2       1.0  0.03527  0.02772  0.20437  1.0000
  C   C15       1.0  0.23999  0.47751  0.45833  1.0000
  H   H12       1.0  0.12819  0.29221  0.14173  1.0000
  H   H13       1.0  0.19641  0.15366  0.06076  1.0000
  H   H14       1.0  0.02173  0.43819  0.01743  1.0000
  H   H15       1.0  0.15959  0.13020  0.12322  1.0000
  H   H16       1.0  0.19905  0.24648  0.03999  1.0000
  S   S5        1.0  0.01910  0.04078  0.26610  1.0000
  H   H17       1.0  0.23778  0.45268  0.43553  1.0000
  H   H18       1.0  0.18125  0.33468  0.04879  1.0000
  H   H19       1.0  0.01578  0.07194  0.37342  1.0000
  H   H20       1.0  0.14748  0.47398  0.47388  1.0000
  H   H21       1.0  0.18883  0.49858  0.01095  1.0000
  H   H22       1.0  0.99259  0.21260  0.33871  1.0000
  C   C16       1.0  0.01028  0.47128  0.00663  1.0000
  C   C17       1.0  0.01124  0.49772  0.44808  1.0000
  C   C18       1.0  0.21695  0.50279  0.00264  1.0000
  H   H23       1.0  0.98909  0.13949  0.42068  1.0000
  H   H24       1.0  0.04441  0.36438  0.91506  1.0000
  C   C19       1.0  0.07723  0.49710  0.54005  1.0000
  Fe  Fe3       1.0  0.16434  0.36956  0.98098  1.0000
  Fe  Fe4       1.0  0.12131  0.29200  0.94460  1.0000
  H   H25       1.0  0.10193  0.30500  0.82955  1.0000
  S   S6        1.0  0.12752  0.23650  0.89483  1.0000
  H   H26       1.0  0.07348  0.39422  0.87544  1.0000
  S   S7        1.0  0.06992  0.31990  0.98128  1.0000
  S   S8        1.0  0.14281  0.37371  0.93141  1.0000
  C   C20       1.0  0.02608  0.25807  0.81613  1.0000
  Fe  Fe5       1.0  0.00836  0.06930  0.78199  1.0000
  S   S9        1.0  0.01215  0.11566  0.83366  1.0000
  S   S10       1.0  0.03303  0.07376  0.72062  1.0000
  C   C21       1.0  0.09535  0.20029  0.87955  1.0000
  C   C22       1.0  0.10551  0.17187  0.84605  1.0000
  C   C23       1.0  0.08067  0.14491  0.83179  1.0000
  C   C24       1.0  0.04526  0.14588  0.85102  1.0000
  C   C25       1.0  0.03520  0.17360  0.88482  1.0000
  C   C26       1.0  0.05999  0.20080  0.89895  1.0000
  H   H27       1.0  0.13279  0.17107  0.83082  1.0000
  H   H28       1.0  0.08891  0.12376  0.80584  1.0000
  H   H29       1.0  0.00792  0.17459  0.90001  1.0000
  H   H30       1.0  0.05171  0.22223  0.92478  1.0000
  H   H31       1.0  0.00399  0.42238  0.55133  1.0000
  H   H32       1.0  0.28321  0.48459  0.52529  1.0000
  C   C27       1.0  0.00281  0.28167  0.84650  1.0000
  C   C28       1.0  0.06448  0.35594  0.88877  1.0000
  C   C29       1.0  0.03908  0.03408  0.61681  1.0000
  H   H33       1.0  0.08678  0.33604  0.89606  1.0000
  H   H34       1.0  0.14968  0.49498  0.96469  1.0000
  H   H35       1.0  0.03070  0.48799  0.58506  1.0000
  N   N2        1.0  0.05097  0.32230  0.86382  1.0000
  H   H36       1.0  0.29126  0.43290  0.96598  1.0000
  C   C30       1.0  0.07395  0.29970  0.83391  1.0000
  H   H37       1.0  0.08024  0.24782  0.78674  1.0000
  C   C31       1.0  0.27461  0.46601  0.97754  1.0000
  Fe  Fe6       1.0  0.09285  0.40104  0.97071  1.0000
  C   C32       1.0  0.01576  0.31415  0.87012  1.0000
  S   S11       1.0  0.06942  0.47037  0.94814  1.0000
  S   S12       1.0  0.22010  0.39732  0.97888  1.0000
  C   C33       1.0  0.04466  0.47540  0.55745  1.0000
  C   C34       1.0  0.06187  0.26736  0.80960  1.0000
  N   N3        1.0  0.09443  0.48225  0.50483  1.0000
  H   H38       1.0  0.02964  0.06680  0.63558  1.0000
  H   H39       1.0  0.01651  0.23123  0.79837  1.0000
  C   C35       1.0  0.02974  0.43837  0.53862  1.0000
  H   H40       1.0  0.99753  0.33200  0.89384  1.0000
  H   H41       1.0  0.08962  0.03258  0.62857  1.0000
  H   H42       1.0  0.21104  0.46373  0.90870  1.0000
  C   C36       1.0  0.02822  0.49432  0.97331  1.0000
  C   C37       1.0  0.26582  0.49545  0.50861  1.0000
  C   C38       1.0  0.23799  0.45951  0.98747  1.0000
  S   S13       1.0  0.14781  0.28418  0.99102  1.0000
  H   H43       1.0  0.14834  0.49534  0.91700  1.0000
  C   C39       1.0  0.07320  0.01547  0.61254  1.0000
  N   N4        1.0  0.01774  0.01103  0.59795  1.0000
  H   H44       1.0  0.27246  0.49371  0.89334  1.0000
  C   C40       1.0  0.04729  0.42392  0.50262  1.0000
  H   H45       1.0  0.99751  0.01313  0.88307  1.0000
  H   H46       1.0  0.03789  0.79947  0.29383  1.0000
  H   H47       1.0  0.00013  0.65012  0.07635  1.0000
  Fe  Fe7       1.0  0.12675  0.73577  0.43622  1.0000
  S   S14       1.0  0.07123  0.71709  0.46467  1.0000
  S   S15       1.0  0.13887  0.78835  0.38507  1.0000
  Fe  Fe8       1.0  0.08934  0.63328  0.46270  1.0000
  S   S16       1.0  0.06539  0.56718  0.43737  1.0000
  C   C41       1.0  0.08045  0.67550  0.36755  1.0000
  S   S17       1.0  0.14439  0.65068  0.43081  1.0000
  C   C42       1.0  0.31282  0.55343  0.42278  1.0000
  S   S18       1.0  0.03986  0.93948  0.21037  1.0000
  Fe  Fe9       1.0  0.01847  0.95217  0.27168  1.0000
  S   S19       1.0  0.02391  0.91219  0.32480  1.0000
  C   C43       1.0  0.02121  0.77176  0.31375  1.0000
  C   C44       1.0  0.07749  0.73607  0.31910  1.0000
  C   C45       1.0  0.30274  0.62526  0.46671  1.0000
  H   H48       1.0  0.09551  0.65121  0.38155  1.0000
  C   C46       1.0  0.10706  0.82469  0.36922  1.0000
  C   C47       1.0  0.11679  0.84915  0.33441  1.0000
  C   C48       1.0  0.09194  0.87640  0.32027  1.0000
  C   C49       1.0  0.05709  0.88020  0.34112  1.0000
  C   C50       1.0  0.04749  0.85622  0.37605  1.0000
  C   C51       1.0  0.07217  0.82840  0.38992  1.0000
  H   H49       1.0  0.14370  0.84664  0.31814  1.0000
  H   H50       1.0  0.09981  0.89460  0.29337  1.0000
  H   H51       1.0  0.02066  0.85885  0.39248  1.0000
  H   H52       1.0  0.06421  0.81009  0.41674  1.0000
  C   C52       1.0  0.02593  0.53980  0.46315  1.0000
  H   H53       1.0  0.27660  0.61744  0.42339  1.0000
  C   C53       1.0  0.04417  0.67841  0.38079  1.0000
  H   H54       1.0  0.09094  0.75932  0.29549  1.0000
  C   C54       1.0  0.09730  0.70453  0.33659  1.0000
  H   H55       1.0  0.12566  0.70405  0.32701  1.0000
  C   C55       1.0  0.02516  0.71070  0.36281  1.0000
  C   C56       1.0  0.29597  0.60077  0.43597  1.0000
  H   H56       1.0  0.99698  0.71317  0.37345  1.0000
  Fe  Fe10      1.0  0.15533  0.65864  0.48629  1.0000
  H   H57       1.0  0.03101  0.65607  0.40506  1.0000
  N   N5        1.0  0.04190  0.73913  0.33246  1.0000
  H   H58       1.0  0.28856  0.66090  0.47802  1.0000
  H   H59       1.0  0.20359  0.53637  0.44858  1.0000
  C   C57       1.0  0.22029  0.52484  0.46586  1.0000
  H   H60       1.0  0.21570  0.58529  0.01794  1.0000
  H   H61       1.0  0.00680  0.74645  0.29859  1.0000
  H   H62       1.0  0.00229  0.79670  0.33413  1.0000
  C   C58       1.0  0.22326  0.55799  0.49482  1.0000
  C   C59       1.0  0.23232  0.55199  0.00673  1.0000
  S   S20       1.0  0.14330  0.74678  0.48914  1.0000
  H   H63       1.0  0.30667  0.53294  0.39984  1.0000
  H   H64       1.0  0.12537  0.53283  0.46458  1.0000
  C   C60       1.0  0.12840  0.50537  0.48653  1.0000
  H   H65       1.0  0.17626  0.61637  0.95081  1.0000
  C   C61       1.0  0.25894  0.57330  0.91233  1.0000
  S   S21       1.0  0.04838  0.76747  0.56357  1.0000
  H   H66       1.0  0.05656  0.81292  0.71796  1.0000
  Fe  Fe11      1.0  0.02711  0.98537  0.71908  1.0000
  S   S22       1.0  0.06947  0.93002  0.68629  1.0000
  C   C62       1.0  0.06373  0.95043  0.56908  1.0000
  S   S23       1.0  0.10063  0.63673  0.51821  1.0000
  H   H67       1.0  0.04920  0.86156  0.75436  1.0000
  C   C63       1.0  0.25140  0.52149  0.90446  1.0000
  C   C64       1.0  0.05533  0.81253  0.59720  1.0000
  C   C65       1.0  0.02658  0.84148  0.61827  1.0000
  C   C66       1.0  0.03055  0.87786  0.64532  1.0000
  C   C67       1.0  0.06327  0.88487  0.65225  1.0000
  C   C68       1.0  0.09202  0.85569  0.63137  1.0000
  C   C69       1.0  0.08818  0.82006  0.60370  1.0000
  C   C70       1.0  0.24591  0.54256  0.51632  1.0000
  H   H68       1.0  0.01271  0.95091  0.55954  1.0000
  H   H69       1.0  0.11748  0.86088  0.63640  1.0000
  H   H70       1.0  0.11051  0.79794  0.58772  1.0000
  H   H71       1.0  0.00828  0.90052  0.66052  1.0000
  H   H72       1.0  0.28589  0.58612  0.90750  1.0000
  C   C71       1.0  0.02963  0.96974  0.57425  1.0000
  C   C72       1.0  0.19715  0.58980  0.93698  1.0000
  C   C73       1.0  0.04421  0.81991  0.74784  1.0000
  S   S24       1.0  0.00796  0.98045  0.78103  1.0000
  H   H73       1.0  0.00737  0.74366  0.79042  1.0000
  H   H74       1.0  0.11164  0.95772  0.58566  1.0000
  H   H75       1.0  0.99811  0.87598  0.72427  1.0000
  N   N6        1.0  0.18998  0.53897  0.92898  1.0000
  C   C74       1.0  0.01316  0.53727  0.95958  1.0000
  Fe  Fe12      1.0  0.08799  0.72369  0.51755  1.0000
  H   H76       1.0  0.00109  0.83596  0.61337  1.0000
  N   N7        1.0  0.00648  0.81033  0.75605  1.0000
  H   H77       1.0  0.24846  0.56770  0.53883  1.0000
  H   H78       1.0  0.13982  0.52778  0.50610  1.0000
  S   S25       1.0  0.20185  0.62087  0.50344  1.0000
  H   H79       1.0  0.23758  0.64728  0.93655  1.0000
  C   C75       1.0  0.23170  0.60776  0.92868  1.0000
  H   H80       1.0  0.13438  0.55226  0.94524  1.0000
  H   H81       1.0  0.05726  0.79407  0.76405  1.0000
  C   C76       1.0  0.15391  0.51961  0.93952  1.0000
  H   H82       1.0  0.02693  0.55523  0.93381  1.0000
  H   H83       1.0  0.07279  0.91669  0.55109  1.0000
  H   H84       1.0  0.02109  0.59009  0.51065  1.0000
  S   S26       1.0  0.28627  0.62401  0.99678  1.0000
  C   C77       1.0  0.99161  0.76919  0.77806  1.0000
  C   C78       1.0  0.28997  0.51529  0.98153  1.0000
  C   C79       1.0  0.08557  0.97349  0.58843  1.0000
  C   C80       1.0  0.26890  0.55899  0.99571  1.0000
  H   H85       1.0  0.31809  0.51974  0.97288  1.0000
  H   H86       1.0  0.08845  0.52628  0.55475  1.0000
  C   C81       1.0  0.00995  0.55752  0.49892  1.0000
  C   C82       1.0  0.21657  0.50479  0.91321  1.0000
  N   N8        1.0  0.47725  0.19801  0.24918  1.0000
  S   S27       1.0  0.38994  0.39734  0.45071  1.0000
  Fe  Fe13      1.0  0.40667  0.31186  0.44766  1.0000
  S   S28       1.0  0.44521  0.27406  0.39818  1.0000
  H   H87       1.0  0.51656  0.13956  0.24477  1.0000
  Fe  Fe14      1.0  0.60652  0.27298  0.01238  1.0000
  Fe  Fe15      1.0  0.33689  0.36921  0.48299  1.0000
  S   S29       1.0  0.42125  0.06667  0.31205  1.0000
  C   C83       1.0  0.51182  0.49729  0.44758  1.0000
  C   C84       1.0  0.43807  0.21437  0.37674  1.0000
  C   C85       1.0  0.46687  0.18791  0.35358  1.0000
  C   C86       1.0  0.46222  0.14188  0.33432  1.0000
  C   C87       1.0  0.42859  0.12232  0.33764  1.0000
  C   C88       1.0  0.39982  0.14825  0.36131  1.0000
  C   C89       1.0  0.40453  0.19388  0.38101  1.0000
  H   H88       1.0  0.49293  0.20346  0.35022  1.0000
  H   H89       1.0  0.48458  0.12220  0.31635  1.0000
  H   H90       1.0  0.37370  0.13338  0.36402  1.0000
  H   H91       1.0  0.38215  0.21396  0.39871  1.0000
  C   C90       1.0  0.50885  0.17088  0.22779  1.0000
  S   S30       1.0  0.61685  0.35282  0.03400  1.0000
  C   C91       1.0  0.44518  0.17630  0.25151  1.0000
  S   S31       1.0  0.59176  0.19313  0.04006  1.0000
  H   H92       1.0  0.53119  0.19839  0.21850  1.0000
  S   S32       1.0  0.48378  0.03321  0.21268  1.0000
  S   S33       1.0  0.57898  0.08557  0.19471  1.0000
  C   C92       1.0  0.58337  0.17461  0.08707  1.0000
  C   C93       1.0  0.60675  0.18670  0.10810  1.0000
  C   C94       1.0  0.60419  0.16076  0.14187  1.0000
  C   C95       1.0  0.57814  0.12285  0.15504  1.0000
  C   C96       1.0  0.55353  0.11311  0.13509  1.0000
  C   C97       1.0  0.55637  0.13847  0.10115  1.0000
  C   C98       1.0  0.38557  0.09408  0.46307  1.0000
  H   H93       1.0  0.56081  0.01265  0.04483  1.0000
  H   H94       1.0  0.53325  0.08428  0.14487  1.0000
  H   H95       1.0  0.53841  0.12838  0.08490  1.0000
  H   H96       1.0  0.62806  0.21362  0.09729  1.0000
  C   C99       1.0  0.44505  0.15488  0.45525  1.0000
  C   C100      1.0  0.41475  0.20018  0.27317  1.0000
  H   H97       1.0  0.34805  0.49313  0.43122  1.0000
  S   S34       1.0  0.53387  0.43714  0.03514  1.0000
  S   S35       1.0  0.35296  0.28267  0.47584  1.0000
  H   H98       1.0  0.46776  0.10395  0.40937  1.0000
  H   H99       1.0  0.50443  0.15240  0.20250  1.0000
  H   H100      1.0  0.44300  0.13938  0.23753  1.0000
  H   H101      1.0  0.38952  0.18176  0.27585  1.0000
  C   C101      1.0  0.58198  0.02141  0.05726  1.0000
  Fe  Fe16      1.0  0.53745  0.02523  0.22072  1.0000
  C   C102      1.0  0.48008  0.24275  0.26872  1.0000
  N   N9        1.0  0.41495  0.08281  0.43543  1.0000
  H   H102      1.0  0.62335  0.16864  0.15711  1.0000
  C   C103      1.0  0.45018  0.26755  0.29080  1.0000
  C   C104      1.0  0.41528  0.16643  0.48358  1.0000
  H   H103      1.0  0.46812  0.44384  0.45628  1.0000
  C   C105      1.0  0.38532  0.13595  0.48762  1.0000
  H   H104      1.0  0.39408  0.26382  0.31102  1.0000
  H   H105      1.0  0.45254  0.30191  0.30736  1.0000
  C   C106      1.0  0.41734  0.24604  0.29296  1.0000
  H   H106      1.0  0.50557  0.25879  0.26807  1.0000
  C   C107      1.0  0.60785  0.05696  0.03964  1.0000
  H   H107      1.0  0.60650  0.07606  0.01421  1.0000
  H   H108      1.0  0.52380  0.48301  0.41993  1.0000
  C   C108      1.0  0.44455  0.11235  0.43148  1.0000
  C   C109      1.0  0.63466  0.04828  0.09007  1.0000
  C   C110      1.0  0.48031  0.47508  0.46813  1.0000
  H   H109      1.0  0.44108  0.40329  0.00318  1.0000
  C   C111      1.0  0.60841  0.01282  0.10692  1.0000
  H   H110      1.0  0.47203  0.50106  0.05369  1.0000
  H   H111      1.0  0.65341  0.10004  0.04367  1.0000
  H   H112      1.0  0.36211  0.07070  0.46622  1.0000
  Fe  Fe17      1.0  0.46533  0.01929  0.27379  1.0000
  Fe  Fe18      1.0  0.57731  0.38252  0.00528  1.0000
  S   S36       1.0  0.51899  0.01667  0.28272  1.0000
  H   H113      1.0  0.43851  0.03658  0.38704  1.0000
  C   C112      1.0  0.51403  0.47580  0.00760  1.0000
  H   H114      1.0  0.46814  0.17940  0.45130  1.0000
  C   C113      1.0  0.41455  0.03816  0.41051  1.0000
  H   H115      1.0  0.39205  0.04174  0.39809  1.0000
  C   C114      1.0  0.63427  0.07051  0.05625  1.0000
  H   H116      1.0  0.65419  0.06026  0.10402  1.0000
  Fe  Fe19      1.0  0.37055  0.29146  0.52821  1.0000
  S   S37       1.0  0.36225  0.22745  0.57229  1.0000
  C   C115      1.0  0.46318  0.32890  0.62645  1.0000
  S   S38       1.0  0.34900  0.37437  0.53820  1.0000
  S   S39       1.0  0.45717  0.08106  0.75873  1.0000
  Fe  Fe20      1.0  0.48172  0.08869  0.69726  1.0000
  S   S40       1.0  0.47541  0.15203  0.65564  1.0000
  S   S41       1.0  0.56383  0.30244  0.98812  1.0000
  H   H117      1.0  0.50381  0.38117  0.57284  1.0000
  C   C116      1.0  0.39473  0.20221  0.59287  1.0000
  C   C117      1.0  0.38472  0.16829  0.62339  1.0000
  C   C118      1.0  0.40928  0.15037  0.64202  1.0000
  C   C119      1.0  0.44425  0.16614  0.63026  1.0000
  C   C120      1.0  0.45445  0.19854  0.59894  1.0000
  C   C121      1.0  0.42994  0.21649  0.58036  1.0000
  H   H118      1.0  0.35761  0.15674  0.63325  1.0000
  H   H119      1.0  0.40094  0.12566  0.66613  1.0000
  H   H120      1.0  0.48141  0.21099  0.58957  1.0000
  H   H121      1.0  0.43824  0.24237  0.55697  1.0000
  Fe  Fe21      1.0  0.60561  0.31553  0.93590  1.0000
  H   H122      1.0  0.38651  0.27251  0.67244  1.0000
  S   S42       1.0  0.59575  0.29930  0.87909  1.0000
  C   C122      1.0  0.46476  0.49346  0.50385  1.0000
  C   C123      1.0  0.45257  0.42689  0.94619  1.0000
  S   S43       1.0  0.61614  0.39929  0.95131  1.0000
  Fe  Fe22      1.0  0.51218  0.07498  0.76522  1.0000
  S   S44       1.0  0.52227  0.10375  0.81991  1.0000
  S   S45       1.0  0.53674  0.08778  0.70451  1.0000
  C   C124      1.0  0.57580  0.24398  0.86306  1.0000
  C   C125      1.0  0.57460  0.24212  0.82587  1.0000
  C   C126      1.0  0.55852  0.19972  0.81206  1.0000
  C   C127      1.0  0.54324  0.15849  0.83536  1.0000
  C   C128      1.0  0.54422  0.16059  0.87262  1.0000
  C   C129      1.0  0.56036  0.20292  0.88640  1.0000
  H   H123      1.0  0.58649  0.27350  0.80745  1.0000
  H   H124      1.0  0.55813  0.19882  0.78336  1.0000
  H   H125      1.0  0.53262  0.12904  0.89098  1.0000
  H   H126      1.0  0.56098  0.20360  0.91504  1.0000
  N   N10       1.0  0.50209  0.38416  0.90511  1.0000
  H   H127      1.0  0.52900  0.33607  0.86001  1.0000
  H   H128      1.0  0.55222  0.45812  0.95651  1.0000
  H   H129      1.0  0.45080  0.06346  0.84038  1.0000
  H   H130      1.0  0.44932  0.27426  0.67201  1.0000
  Fe  Fe23      1.0  0.40259  0.39862  0.50550  1.0000
  C   C130      1.0  0.47609  0.38915  0.57337  1.0000
  H   H131      1.0  0.55296  0.39230  0.86940  1.0000
  C   C131      1.0  0.47539  0.42030  0.91102  1.0000
  H   H132      1.0  0.43217  0.45685  0.95101  1.0000
  H   H133      1.0  0.36580  0.32526  0.62655  1.0000
  C   C132      1.0  0.44029  0.03816  0.86386  1.0000
  C   C133      1.0  0.41697  0.35727  0.60149  1.0000
  C   C134      1.0  0.43985  0.29868  0.65291  1.0000
  C   C135      1.0  0.39298  0.32714  0.62734  1.0000
  C   C136      1.0  0.40457  0.29765  0.65316  1.0000
  C   C137      1.0  0.52874  0.47990  0.96957  1.0000
  H   H134      1.0  0.49067  0.32839  0.62601  1.0000
  H   H135      1.0  0.40782  0.37991  0.58140  1.0000
  C   C138      1.0  0.52659  0.37831  0.86852  1.0000
  H   H136      1.0  0.59400  0.02261  0.54655  1.0000
  H   H137      1.0  0.52842  0.32607  0.92884  1.0000
  C   C139      1.0  0.50699  0.35428  0.93358  1.0000
  H   H138      1.0  0.48421  0.04927  0.88680  1.0000
  N   N11       1.0  0.45162  0.35745  0.60106  1.0000
  H   H139      1.0  0.47209  0.44540  0.88886  1.0000
  H   H140      1.0  0.51816  0.40081  0.84704  1.0000
  C   C140      1.0  0.45762  0.39697  0.97547  1.0000
  C   C141      1.0  0.48496  0.36037  0.96920  1.0000
  H   H141      1.0  0.47306  0.38042  0.54530  1.0000
  S   S46       1.0  0.64843  0.28228  0.95877  1.0000
  S   S47       1.0  0.42513  0.46681  0.53015  1.0000
  H   H142      1.0  0.47063  0.43186  0.57912  1.0000
  H   H143      1.0  0.39434  0.01792  0.84675  1.0000
  H   H144      1.0  0.48962  0.33788  0.99199  1.0000
  H   H145      1.0  0.35367  0.49541  0.50516  1.0000
  C   C142      1.0  0.45908  0.03016  0.89003  1.0000
  H   H146      1.0  0.41531  0.19906  0.50234  1.0000
  H   H147      1.0  0.36208  0.14505  0.50965  1.0000
  C   C143      1.0  0.40829  0.01257  0.86781  1.0000
  S   S48       1.0  0.42481  0.31676  0.49965  1.0000
  C   C144      1.0  0.58730  0.72582  0.31284  1.0000
  Fe  Fe24      1.0  0.39112  0.70516  0.03546  1.0000
  S   S49       1.0  0.39827  0.72286  0.09318  1.0000
  S   S50       1.0  0.37995  0.62149  0.02036  1.0000
  Fe  Fe25      1.0  0.48584  0.94462  0.20503  1.0000
  S   S51       1.0  0.47484  0.91620  0.15077  1.0000
  S   S52       1.0  0.46196  0.93144  0.26579  1.0000
  C   C145      1.0  0.41973  0.77696  0.10862  1.0000
  C   C146      1.0  0.42076  0.77924  0.14585  1.0000
  C   C147      1.0  0.43745  0.82125  0.15933  1.0000
  C   C148      1.0  0.45345  0.86168  0.13567  1.0000
  C   C149      1.0  0.45268  0.85911  0.09836  1.0000
  C   C150      1.0  0.43600  0.81713  0.08489  1.0000
  H   H148      1.0  0.40827  0.74850  0.16452  1.0000
  H   H149      1.0  0.43771  0.82249  0.18806  1.0000
  H   H150      1.0  0.46483  0.89009  0.07975  1.0000
  H   H151      1.0  0.43543  0.81618  0.05624  1.0000
  H   H152      1.0  0.53507  0.98765  0.13106  1.0000
  N   N12       1.0  0.60459  0.69923  0.33443  1.0000
  Fe  Fe26      1.0  0.62790  0.73244  0.44228  1.0000
  H   H153      1.0  0.60080  0.75481  0.29307  1.0000
  S   S53       1.0  0.63549  0.79984  0.40070  1.0000
  H   H154      1.0  0.63919  0.87267  0.34110  1.0000
  H   H155      1.0  0.50567  0.67651  0.34750  1.0000
  H   H156      1.0  0.39114  0.51696  0.46949  1.0000
  S   S54       1.0  0.54113  0.93738  0.21046  1.0000
  Fe  Fe27      1.0  0.51730  0.92929  0.27200  1.0000
  S   S55       1.0  0.52453  0.86391  0.31171  1.0000
  C   C151      1.0  0.55328  0.57651  0.03677  1.0000
  H   H157      1.0  0.56124  0.77522  0.41124  1.0000
  C   C152      1.0  0.60334  0.82164  0.37854  1.0000
  C   C153      1.0  0.56903  0.80277  0.38875  1.0000
  C   C154      1.0  0.54483  0.81859  0.36918  1.0000
  C   C155      1.0  0.55454  0.85305  0.33895  1.0000
  C   C156      1.0  0.58857  0.87316  0.32940  1.0000
  C   C157      1.0  0.61277  0.85758  0.34916  1.0000
  C   C158      1.0  0.55153  0.71785  0.31705  1.0000
  H   H158      1.0  0.51860  0.80277  0.37684  1.0000
  H   H159      1.0  0.59654  0.89952  0.30615  1.0000
  H   H160      1.0  0.41263  0.00041  0.42574  1.0000
  C   C159      1.0  0.52019  0.64483  0.99918  1.0000
  H   H161      1.0  0.47256  0.66990  0.08594  1.0000
  C   C160      1.0  0.32644  0.60196  0.48385  1.0000
  S   S56       1.0  0.64902  0.73495  0.49260  1.0000
  Fe  Fe28      1.0  0.59472  0.62514  0.46276  1.0000
  C   C161      1.0  0.33625  0.53112  0.44066  1.0000
  S   S57       1.0  0.56727  0.56488  0.43599  1.0000
  H   H162      1.0  0.51221  0.59783  0.08448  1.0000
  C   C162      1.0  0.52324  0.60455  0.05524  1.0000
  C   C163      1.0  0.64216  0.70766  0.32922  1.0000
  H   H163      1.0  0.53791  0.62663  0.38547  1.0000
  H   H164      1.0  0.60792  0.99766  0.13406  1.0000
  H   H165      1.0  0.60101  0.64138  0.37648  1.0000
  H   H166      1.0  0.56447  0.93179  0.12319  1.0000
  H   H167      1.0  0.53766  0.74077  0.30092  1.0000
  C   C164      1.0  0.55433  0.96488  0.10961  1.0000
  C   C165      1.0  0.47513  0.66608  0.05582  1.0000
  C   C166      1.0  0.55152  0.65455  0.36484  1.0000
  H   H168      1.0  0.56508  0.54799  0.05141  1.0000
  C   C167      1.0  0.53354  0.68224  0.34343  1.0000
  C   C168      1.0  0.52804  0.53758  0.46273  1.0000
  N   N13       1.0  0.50740  0.63867  0.03647  1.0000
  S   S58       1.0  0.57425  0.70770  0.47323  1.0000
  S   S59       1.0  0.35000  0.73968  0.01066  1.0000
  S   S60       1.0  0.64755  0.64960  0.42805  1.0000
  H   H169      1.0  0.47434  0.70684  0.04526  1.0000
  H   H170      1.0  0.45202  0.64431  0.05201  1.0000
  C   C169      1.0  0.58731  0.66330  0.35975  1.0000
  H   H171      1.0  0.58542  0.82330  0.47290  1.0000
  C   C170      1.0  0.58632  0.85609  0.49128  1.0000
  H   H172      1.0  0.64933  0.74920  0.32140  1.0000
  C   C171      1.0  0.46780  0.53683  0.00303  1.0000
  H   H173      1.0  0.44412  0.55826  0.01601  1.0000
  N   N14       1.0  0.58269  0.99953  0.09032  1.0000
  C   C172      1.0  0.36663  0.53023  0.48960  1.0000
  H   H174      1.0  0.64980  0.70085  0.35528  1.0000
  N   N15       1.0  0.34301  0.55564  0.47058  1.0000
  H   H175      1.0  0.54018  0.94708  0.09058  1.0000
  H   H176      1.0  0.64011  0.87394  0.46511  1.0000
  C   C173      1.0  0.48352  0.50423  0.02427  1.0000
  C   C174      1.0  0.61709  0.88470  0.48693  1.0000
  C   C175      1.0  0.56688  0.58324  0.99886  1.0000
  S   S61       1.0  0.38227  0.66725  0.93672  1.0000
  C   C176      1.0  0.58501  0.77369  0.67879  1.0000
  Fe  Fe29      1.0  0.39334  0.74692  0.95800  1.0000
  S   S62       1.0  0.41050  0.82549  0.92920  1.0000
  C   C177      1.0  0.58678  0.82005  0.69839  1.0000
  C   C178      1.0  0.55253  0.75126  0.68047  1.0000
  S   S63       1.0  0.46326  0.58057  0.93757  1.0000
  N   N16       1.0  0.39547  0.97971  0.89703  1.0000
  H   H177      1.0  0.46021  0.99006  0.94022  1.0000
  C   C179      1.0  0.41802  0.84304  0.88212  1.0000
  C   C180      1.0  0.39375  0.83156  0.86202  1.0000
  C   C181      1.0  0.39570  0.85747  0.82836  1.0000
  C   C182      1.0  0.42189  0.89492  0.81450  1.0000
  C   C183      1.0  0.44738  0.90386  0.83346  1.0000
  C   C184      1.0  0.44537  0.87814  0.86708  1.0000
  H   H178      1.0  0.37225  0.80525  0.87351  1.0000
  H   H179      1.0  0.37592  0.85007  0.81381  1.0000
  H   H180      1.0  0.46770  0.93251  0.82325  1.0000
  H   H181      1.0  0.46419  0.88747  0.88247  1.0000
  C   C185      1.0  0.49206  0.84775  0.74175  1.0000
  S   S64       1.0  0.42046  0.93222  0.77504  1.0000
  H   H182      1.0  0.34015  0.97986  0.91603  1.0000
  H   H183      1.0  0.52487  0.58688  0.51037  1.0000
  C   C186      1.0  0.44560  0.99712  0.91996  1.0000
  S   S65       1.0  0.55937  0.74158  0.57493  1.0000
  C   C187      1.0  0.48268  0.54123  0.96507  1.0000
  S   S66       1.0  0.57901  0.95297  0.65904  1.0000
  C   C188      1.0  0.55588  0.84353  0.71934  1.0000
  C   C189      1.0  0.56515  0.80332  0.59466  1.0000
  C   C190      1.0  0.53578  0.82930  0.61722  1.0000
  C   C191      1.0  0.53950  0.87606  0.63621  1.0000
  C   C192      1.0  0.57276  0.89681  0.63327  1.0000
  C   C193      1.0  0.60208  0.87151  0.61003  1.0000
  C   C194      1.0  0.59830  0.82521  0.59053  1.0000
  H   H184      1.0  0.51004  0.81263  0.62052  1.0000
  H   H185      1.0  0.51672  0.89526  0.65382  1.0000
  H   H186      1.0  0.62793  0.88727  0.60762  1.0000
  H   H187      1.0  0.62112  0.80543  0.57338  1.0000
  C   C195      1.0  0.52214  0.77568  0.70185  1.0000
  H   H188      1.0  0.55742  0.88084  0.73314  1.0000
  H   H189      1.0  0.49694  0.75893  0.70208  1.0000
  N   N17       1.0  0.52414  0.82099  0.72116  1.0000
  H   H190      1.0  0.46986  0.81992  0.75067  1.0000
  Fe  Fe30      1.0  0.59586  0.70576  0.52301  1.0000
  H   H191      1.0  0.61173  0.83914  0.69608  1.0000
  H   H192      1.0  0.40353  0.94560  0.94607  1.0000
  C   C196      1.0  0.41343  0.97233  0.92321  1.0000
  H   H193      1.0  0.55084  0.71650  0.66399  1.0000
  N   N18       1.0  0.58878  0.94037  0.53822  1.0000
  Fe  Fe31      1.0  0.42026  0.63639  0.96699  1.0000
  H   H194      1.0  0.46894  0.54817  0.54664  1.0000
  H   H195      1.0  0.48455  0.87871  0.72437  1.0000
  Fe  Fe32      1.0  0.46166  0.99307  0.74900  1.0000
  H   H196      1.0  0.56611  0.98930  0.58548  1.0000
  C   C197      1.0  0.59033  0.98535  0.56249  1.0000
  C   C198      1.0  0.55842  0.91256  0.54256  1.0000
  S   S67       1.0  0.43446  0.71615  0.98417  1.0000
  S   S68       1.0  0.51509  0.98636  0.75786  1.0000
  C   C199      1.0  0.61791  0.92693  0.51088  1.0000
  Fe  Fe33      1.0  0.34203  0.65642  0.99140  1.0000
  H   H197      1.0  0.37450  0.55727  0.50937  1.0000
  H   H198      1.0  0.36049  0.91586  0.91618  1.0000
  S   S69       1.0  0.61145  0.61946  0.51549  1.0000
  H   H199      1.0  0.49579  0.86667  0.76719  1.0000
  C   C200      1.0  0.55683  0.86975  0.51936  1.0000
  H   H200      1.0  0.61228  0.98018  0.57556  1.0000
  C   C201      1.0  0.48089  0.53380  0.51901  1.0000
  H   H201      1.0  0.64199  0.94885  0.50749  1.0000
  C   C202      1.0  0.51254  0.55576  0.49854  1.0000
  C   C203      1.0  0.36172  0.95367  0.90093  1.0000
  H   H202      1.0  0.53543  0.92262  0.56450  1.0000
  H   H203      1.0  0.35779  0.94358  0.87343  1.0000
  H   H204      1.0  0.55976  0.62154  0.95016  1.0000
  H   H205      1.0  0.33081  0.62056  0.50831  1.0000
  H   H206      1.0  0.60864  0.75621  0.66122  1.0000
  C   C204      1.0  0.55025  0.61754  0.97986  1.0000
  H   H207      1.0  0.53310  0.84666  0.52353  1.0000
  Fe  Fe34      1.0  0.53420  0.99976  0.69675  1.0000
  S   S70       1.0  0.48086  0.00105  0.68700  1.0000
  H   H208      1.0  0.50664  0.66988  0.98399  1.0000
  C   C205      1.0  0.51320  0.51284  0.94839  1.0000
  H   H209      1.0  0.52478  0.51616  0.91900  1.0000
  H   H210      1.0  0.58948  0.56035  0.98406  1.0000
  H   H211      1.0  0.71633  0.42499  0.05219  1.0000
  S   S71       1.0  0.89003  0.39189  0.45675  1.0000
  C   C206      1.0  0.80350  0.42323  0.03095  1.0000
  Fe  Fe35      1.0  0.90974  0.30785  0.44603  1.0000
  S   S72       1.0  0.94551  0.27726  0.39192  1.0000
  C   C207      1.0  0.78842  0.49566  0.47716  1.0000
  H   H212      1.0  0.92137  0.13819  0.48213  1.0000
  C   C208      1.0  0.93013  0.04031  0.38742  1.0000
  S   S73       1.0  0.92047  0.08297  0.29432  1.0000
  C   C209      1.0  0.76459  0.49051  0.06157  1.0000
  S   S74       1.0  0.93341  0.30626  0.49446  1.0000
  Fe  Fe36      1.0  0.96471  0.03195  0.25994  1.0000
  C   C210      1.0  0.93817  0.21997  0.36799  1.0000
  C   C211      1.0  0.96663  0.19660  0.34228  1.0000
  C   C212      1.0  0.96173  0.15338  0.32056  1.0000
  C   C213      1.0  0.92817  0.13350  0.32396  1.0000
  C   C214      1.0  0.89970  0.15643  0.35003  1.0000
  C   C215      1.0  0.90468  0.19923  0.37221  1.0000
  N   N19       1.0  0.94711  0.20708  0.24326  1.0000
  H   H213      1.0  0.91333  0.01353  0.37737  1.0000
  H   H214      1.0  0.87359  0.14156  0.35267  1.0000
  H   H215      1.0  0.88249  0.21728  0.39163  1.0000
  S   S75       1.0  0.98064  0.02476  0.19764  1.0000
  C   C216      1.0  0.95860  0.16346  0.21704  1.0000
  N   N20       1.0  0.93687  0.11376  0.42577  1.0000
  H   H216      1.0  0.81646  0.49214  0.47248  1.0000
  H   H217      1.0  0.97058  0.17881  0.18890  1.0000
  H   H218      1.0  0.93635  0.19073  0.44941  1.0000
  H   H219      1.0  0.93661  0.13705  0.21562  1.0000
  H   H220      1.0  0.91896  0.31732  0.31677  1.0000
  C   C217      1.0  0.97736  0.49108  0.02602  1.0000
  C   C218      1.0  0.97240  0.11141  0.41167  1.0000
  H   H221      1.0  0.96354  0.47306  0.05175  1.0000
  C   C219      1.0  0.96630  0.03783  0.37274  1.0000
  C   C220      1.0  0.90194  0.25243  0.28850  1.0000
  H   H222      1.0  0.87487  0.25513  0.30454  1.0000
  H   H223      1.0  0.97805  0.13870  0.22599  1.0000
  C   C221      1.0  0.96162  0.28234  0.27544  1.0000
  C   C222      1.0  0.92150  0.15312  0.45429  1.0000
  C   C223      1.0  0.76754  0.45065  0.48591  1.0000
  H   H224      1.0  0.74545  0.37480  0.02927  1.0000
  C   C224      1.0  0.91578  0.07841  0.41434  1.0000
  H   H225      1.0  0.85830  0.44422  0.01296  1.0000
  H   H226      1.0  0.88761  0.08029  0.42538  1.0000
  H   H227      1.0  0.98381  0.13663  0.30041  1.0000
  C   C225      1.0  0.91267  0.21217  0.26227  1.0000
  H   H228      1.0  0.89354  0.18366  0.25842  1.0000
  C   C226      1.0  0.97143  0.24179  0.24926  1.0000
  C   C227      1.0  0.98120  0.47231  0.46909  1.0000
  S   S76       1.0  0.85880  0.27214  0.47689  1.0000
  H   H229      1.0  0.97773  0.00859  0.35169  1.0000
  H   H230      1.0  0.89417  0.16306  0.45418  1.0000
  C   C228      1.0  0.92667  0.28741  0.29530  1.0000
  H   H231      1.0  0.97043  0.43911  0.45762  1.0000
  H   H232      1.0  0.98109  0.30869  0.28119  1.0000
  S   S77       1.0  0.78505  0.38718  0.49268  1.0000
  H   H233      1.0  0.80801  0.38342  0.01999  1.0000
  C   C229      1.0  0.74086  0.40368  0.05251  1.0000
  H   H234      1.0  0.73687  0.38210  0.07890  1.0000
  N   N21       1.0  0.77029  0.44024  0.04782  1.0000
  C   C230      1.0  0.83201  0.45728  0.02686  1.0000
  C   C231      1.0  0.73110  0.45642  0.49136  1.0000
  C   C232      1.0  0.98764  0.07348  0.38495  1.0000
  Fe  Fe37      1.0  0.84032  0.35648  0.49139  1.0000
  H   H235      1.0  0.67763  0.49997  0.00475  1.0000
  Fe  Fe38      1.0  0.88177  0.27402  0.52614  1.0000
  S   S78       1.0  0.87878  0.20011  0.56186  1.0000
  C   C233      1.0  0.76361  0.47396  0.96598  1.0000
  Fe  Fe39      1.0  0.90857  0.38611  0.50824  1.0000
  S   S79       1.0  0.85815  0.35404  0.54368  1.0000
  H   H236      1.0  0.79355  0.42351  0.57063  1.0000
  H   H237      1.0  0.96616  0.00650  0.58955  1.0000
  Fe  Fe40      1.0  0.97827  0.07607  0.71298  1.0000
  S   S80       1.0  0.95389  0.07676  0.77444  1.0000
  C   C234      1.0  0.78347  0.46321  0.56979  1.0000
  C   C235      1.0  0.72726  0.46493  0.97754  1.0000
  H   H238      1.0  0.96851  0.03431  0.63283  1.0000
  S   S81       1.0  0.93040  0.45474  0.53353  1.0000
  S   S82       1.0  0.71097  0.40039  0.97168  1.0000
  S   S83       1.0  0.97428  0.13830  0.66989  1.0000
  H   H239      1.0  0.94924  0.04696  0.85873  1.0000
  C   C236      1.0  0.90494  0.18444  0.59264  1.0000
  C   C237      1.0  0.89666  0.13982  0.61548  1.0000
  C   C238      1.0  0.91700  0.12553  0.63981  1.0000
  C   C239      1.0  0.94625  0.15544  0.64131  1.0000
  C   C240      1.0  0.95462  0.19984  0.61832  1.0000
  C   C241      1.0  0.93409  0.21441  0.59429  1.0000
  H   H240      1.0  0.87410  0.11642  0.61460  1.0000
  H   H241      1.0  0.90996  0.09149  0.65739  1.0000
  H   H242      1.0  0.97715  0.22333  0.61915  1.0000
  H   H243      1.0  0.94090  0.24878  0.57697  1.0000
  H   H244      1.0  0.78074  0.44268  0.95200  1.0000
  C   C242      1.0  0.96572  0.48912  0.50521  1.0000
  H   H245      1.0  0.72986  0.43715  0.58292  1.0000
  Fe  Fe41      1.0  0.65565  0.36549  0.97865  1.0000
  H   H246      1.0  0.85223  0.47584  0.52289  1.0000
  H   H247      1.0  0.97501  0.27385  0.85208  1.0000
  H   H248      1.0  0.98324  0.07210  0.59122  1.0000
  C   C243      1.0  0.98219  0.03175  0.60295  1.0000
  H   H249      1.0  0.85077  0.46889  0.57110  1.0000
  C   C244      1.0  0.84369  0.49509  0.55049  1.0000
  C   C245      1.0  0.74731  0.47070  0.57685  1.0000
  H   H250      1.0  0.71458  0.42205  0.49793  1.0000
  C   C246      1.0  0.94461  0.01454  0.87819  1.0000
  H   H251      1.0  0.89052  0.00569  0.87836  1.0000
  H   H252      1.0  0.88270  0.75013  0.18322  1.0000
  C   C247      1.0  0.77295  0.54563  0.47512  1.0000
  S   S84       1.0  0.92103  0.55785  0.03727  1.0000
  H   H253      1.0  0.73824  0.50443  0.07428  1.0000
  Fe  Fe42      1.0  0.86768  0.73582  0.03925  1.0000
  S   S85       1.0  0.86123  0.79737  0.08539  1.0000
  N   N22       1.0  0.94796  0.66953  0.10782  1.0000
  S   S86       1.0  0.84649  0.65375  0.05077  1.0000
  C   C248      1.0  0.96223  0.53387  0.01218  1.0000
  S   S87       1.0  0.97617  0.87044  0.16689  1.0000
  S   S88       1.0  0.96291  0.94399  0.26771  1.0000
  C   C249      1.0  0.89441  0.82296  0.10480  1.0000
  C   C250      1.0  0.88480  0.85639  0.13594  1.0000
  C   C251      1.0  0.90978  0.87393  0.15414  1.0000
  C   C252      1.0  0.94479  0.85815  0.14140  1.0000
  C   C253      1.0  0.95459  0.82621  0.10949  1.0000
  C   C254      1.0  0.92965  0.80879  0.09124  1.0000
  H   H254      1.0  0.85766  0.86780  0.14663  1.0000
  H   H255      1.0  0.90171  0.89813  0.17875  1.0000
  Fe  Fe43      1.0  0.98407  0.93701  0.20596  1.0000
  H   H256      1.0  0.93756  0.78338  0.06727  1.0000
  C   C255      1.0  0.91309  0.66886  0.10938  1.0000
  H   H257      1.0  0.70298  0.58623  0.01610  1.0000
  C   C256      1.0  0.73640  0.55164  0.48162  1.0000
  H   H258      1.0  0.65739  0.68060  0.30754  1.0000
  H   H259      1.0  0.86166  0.69896  0.13667  1.0000
  C   C257      1.0  0.93636  0.72557  0.16159  1.0000
  C   C258      1.0  0.88904  0.69734  0.13672  1.0000
  Fe  Fe44      1.0  0.66373  0.64832  0.48126  1.0000
  Fe  Fe45      1.0  0.89781  0.62674  0.01387  1.0000
  C   C259      1.0  0.95974  0.69701  0.13365  1.0000
  S   S89       1.0  0.71813  0.61680  0.48335  1.0000
  H   H260      1.0  0.90382  0.64701  0.08896  1.0000
  H   H261      1.0  0.78940  0.58012  0.46904  1.0000
  C   C260      1.0  0.90084  0.72598  0.16288  1.0000
  H   H262      1.0  0.94596  0.74951  0.18092  1.0000
  S   S90       1.0  0.92018  0.70816  0.00611  1.0000
  H   H263      1.0  0.78765  0.56610  0.06741  1.0000
  H   H264      1.0  0.98157  0.81375  0.09936  1.0000
  H   H265      1.0  0.96902  0.59665  0.08380  1.0000
  H   H266      1.0  0.84816  0.53577  0.03671  1.0000
  C   C261      1.0  0.72009  0.55501  0.00199  1.0000
  H   H267      1.0  0.68755  0.50994  0.49424  1.0000
  C   C262      1.0  0.97247  0.63967  0.07853  1.0000
  H   H268      1.0  0.96741  0.64792  0.05129  1.0000
  C   C263      1.0  0.82635  0.50877  0.04036  1.0000
  C   C264      1.0  0.71563  0.50637  0.48920  1.0000
  S   S91       1.0  0.77330  0.62567  0.00194  1.0000
  Fe  Fe46      1.0  0.82858  0.65775  0.99870  1.0000
  C   C265      1.0  0.79248  0.52556  0.05793  1.0000
  H   H269      1.0  0.98740  0.69826  0.13229  1.0000
  S   S92       1.0  0.87940  0.62678  0.96215  1.0000
  C   C266      1.0  0.98633  0.84295  0.74113  1.0000
  C   C267      1.0  0.91156  0.99176  0.88955  1.0000
  Fe  Fe47      1.0  0.89692  0.71218  0.95731  1.0000
  S   S93       1.0  0.93435  0.74960  0.90705  1.0000
  C   C268      1.0  0.75648  0.56385  0.99080  1.0000
  H   H270      1.0  0.81087  0.58690  0.54761  1.0000
  C   C269      1.0  0.73413  0.52104  0.57361  1.0000
  H   H271      1.0  0.70628  0.52699  0.57723  1.0000
  S   S94       1.0  0.91033  0.93760  0.80421  1.0000
  C   C270      1.0  0.92631  0.80384  0.88088  1.0000
  C   C271      1.0  0.89269  0.81764  0.87869  1.0000
  C   C272      1.0  0.88810  0.85887  0.85525  1.0000
  C   C273      1.0  0.91696  0.88720  0.83436  1.0000
  C   C274      1.0  0.95039  0.87427  0.83753  1.0000
  C   C275      1.0  0.95504  0.83260  0.86039  1.0000
  H   H272      1.0  0.87034  0.79561  0.89423  1.0000
  H   H273      1.0  0.86209  0.86855  0.85306  1.0000
  C   C276      1.0  0.77813  0.52292  0.97245  1.0000
  C   C277      1.0  0.97979  0.53226  0.51988  1.0000
  H   H274      1.0  0.88051  0.93157  0.92243  1.0000
  C   C278      1.0  0.96554  0.95274  0.91633  1.0000
  N   N23       1.0  0.80586  0.50477  0.56003  1.0000
  H   H275      1.0  0.97282  0.89549  0.82181  1.0000
  C   C279      1.0  0.98024  0.55706  0.97896  1.0000
  C   C280      1.0  0.75711  0.56322  0.56368  1.0000
  N   N24       1.0  0.93314  0.93010  0.92692  1.0000
  H   H276      1.0  0.85888  0.53200  0.54975  1.0000
  H   H277      1.0  0.93420  0.86194  0.73721  1.0000
  S   S95       1.0  0.97394  0.98769  0.70878  1.0000
  C   C281      1.0  0.70558  0.50605  0.99550  1.0000
  H   H278      1.0  0.90313  0.86365  0.95257  1.0000
  C   C282      1.0  0.97179  0.99521  0.89176  1.0000
  C   C283      1.0  0.93485  0.79334  0.77070  1.0000
  C   C284      1.0  0.95557  0.76019  0.78583  1.0000
  H   H279      1.0  0.96877  0.59009  0.96811  1.0000
  H   H280      1.0  0.74714  0.60197  0.55935  1.0000
  S   S96       1.0  0.84487  0.74388  0.99026  1.0000
  H   H281      1.0  0.90671  0.78796  0.77746  1.0000
  H   H282      1.0  0.96781  0.54541  0.54782  1.0000
  C   C285      1.0  0.90617  0.94956  0.91429  1.0000
  C   C286      1.0  0.95028  0.83491  0.74810  1.0000
  C   C287      1.0  0.79315  0.55431  0.55681  1.0000
  H   H283      1.0  0.92471  0.90051  0.98143  1.0000
  H   H284      1.0  0.94362  0.72881  0.80443  1.0000
  C   C288      1.0  0.92723  0.88589  0.95289  1.0000
  H   H285      1.0  0.80609  0.52888  0.96341  1.0000
  Fe  Fe48      1.0  0.95495  0.98803  0.77110  1.0000
  H   H286      1.0  0.94916  0.85694  0.94523  1.0000
  H   H287      1.0  0.98113  0.82225  0.86197  1.0000
  H   H288      1.0  0.98680  0.93780  0.92671  1.0000
