data_image0
_chemical_formula_structural       SCFeCFeSFeS2FeS2FeSFeNS3H2CH2C3H4CHC4H2C6H4CNCHCNC2HCHC2H2C2H2C2H2CH2C7H2C2HCSC3H5CHSC2H3CH3C2NCH6CSC2HFeSFeS2FeS2FeSFeCS3H5C4HC3HCSC2H2C6H5CHCH3C2NCHCHC2SHCHCH5CH2C2NHC5H2C3HC2H2NCFeC2HC2SH3C4HCFeSFeS3FeSCHCFeSFeS3NC2H2CHCH2C6H7C2S2FeSFeSFeS2FeS2HFeHS2HC3HC2H3C6H4FeH2CHCNH2C3HC2NC5H3C2HSCHCHSCH4C2H3C2H2CH2CHCHCNCHC3HCHCHCHFeSH2CFeSFeS3FeSH2SFeSFeS3HC3H2C2H2C6H9S2FeSFeSFeS2FeS2CFeHS2HC2H2C2H2NC6H4C4HCFeC2HCHCFeNHC5H2CH2CHCH2NHCH5SHC7H2CH2CSNCHC2HFeS2HSFeSHFeS2FeSFeS3C3H7CNHCH6C6H5C4SHCH6CH2C3HC5H3FeSCHCSNH3C3H5SC3H2C3H2FeS2CSFeSHFeS2FeSFeS3C2NCH3SHC6H3CHC6H4CHCHCSCH2CHCH2CH2NC5HC3H2CH2NSCH4C2N2H2CH7FeCHC2H3CH2CHNSFeSCNFeS2FeS2FeSFeS4C6H4C3H2CSHSHC2HC8H7CHCSHSCH2CHCH7C3H2NCNC5H6CHCFe2H2CH2CHCH2C2H2NH4C2HSC4FeS2FeS2FeSFeS4C6H4CHCH2C2H2NC3H2C6H4CHCHFeH7CSCHCFeH3SC3HNCNC6H2SCH9CHNH3C3SCHCFeSFeS2FeS2Fe2S3C3HC4H2C2SCHC6H4SCFeS2HFeS2FeS2HFeSCSC3H2CH4C2H2C7H5NHSHC3H2FeCHSH6C3HCH8NFeHC2HC2HCHCNC2NC3HCH2C3SC3FeSFeS2FeS2Fe2S3C3H2C3H2CHCHC7H6FeS2HFeS2FeS2HFeS3C3H2CH2NHC2HC8H4CHSH3CH3SHCH2CHFeHCH3SHCHCH4NC2NCHCNHC3HCH3C2H2C2HNH3SCHCH2FeHSHC3FeHCNHCH2CH2SFeS2FeS2FeSFeS3C2H3C6H5CH2CH5C6H4NC3H5CSHC5SC2HC3HCHNH2C5HNHC2HFeSCH2C2HNFeHC2SCHCH2SFeS2FeS2FeSFeS3C3H2C6H4C4H2NHC8H4CH2Fe2CH3C2HCSHNC6H9C2HSNC2H2CH2C
_chemical_formula_sum              "S192 C576 Fe96 N48 H576"
_cell_length_a       39.8963
_cell_length_b       45.9436
_cell_length_c       41.0113
_cell_angle_alpha    90.1012
_cell_angle_beta     89.9753
_cell_angle_gamma    90.0611

_space_group_name_H-M_alt    "P 1"
_space_group_IT_number       1

loop_
  _space_group_symop_operation_xyz
  'x, y, z'

loop_
  _atom_site_type_symbol
  _atom_site_label
  _atom_site_symmetry_multiplicity
  _atom_site_fract_x
  _atom_site_fract_y
  _atom_site_fract_z
  _atom_site_occupancy
  S   S1        1.0  0.07970  0.02749  0.25004  1.0000
  C   C1        1.0  0.36255  0.24169  0.48059  1.0000
  Fe  Fe1       1.0  0.09471  0.00357  0.29596  1.0000
  C   C2        1.0  0.28947  0.32107  0.33762  1.0000
  Fe  Fe2       1.0  0.13539  0.03555  0.24289  1.0000
  S   S2        1.0  0.16016  0.07686  0.22381  1.0000
  Fe  Fe3       1.0  0.31570  0.10530  0.09890  1.0000
  S   S3        1.0  0.31586  0.12090  0.04680  1.0000
  S   S4        1.0  0.27616  0.07303  0.11661  1.0000
  Fe  Fe4       1.0  0.38855  0.12621  0.10948  1.0000
  S   S5        1.0  0.39396  0.14293  0.05840  1.0000
  S   S6        1.0  0.42932  0.12598  0.14789  1.0000
  Fe  Fe5       1.0  0.34213  0.16113  0.06574  1.0000
  S   S7        1.0  0.32643  0.20798  0.05477  1.0000
  Fe  Fe6       1.0  0.36743  0.10145  0.04411  1.0000
  N   N1        1.0  0.25624  0.02717  0.23082  1.0000
  S   S8        1.0  0.33818  0.14676  0.11845  1.0000
  S   S9        1.0  0.36598  0.08364  0.09471  1.0000
  S   S10       1.0  0.36658  0.29520  0.45127  1.0000
  H   H1        1.0  0.26511  0.07287  0.23497  1.0000
  H   H2        1.0  0.47046  0.19221  0.12044  1.0000
  C   C3        1.0  0.37313  0.02165  0.03284  1.0000
  H   H3        1.0  0.38123  0.23523  0.46286  1.0000
  H   H4        1.0  0.36525  0.03426  0.05364  1.0000
  C   C4        1.0  0.34427  0.23188  0.02550  1.0000
  C   C5        1.0  0.33656  0.26175  0.02704  1.0000
  C   C6        1.0  0.37758  0.01915  0.47566  1.0000
  H   H5        1.0  0.02759  0.09452  0.48341  1.0000
  H   H6        1.0  0.25051  0.30504  0.44624  1.0000
  H   H7        1.0  0.28412  0.27921  0.44403  1.0000
  H   H8        1.0  0.32100  0.26977  0.04671  1.0000
  C   C7        1.0  0.49608  0.11998  0.16073  1.0000
  H   H9        1.0  0.05658  0.01267  0.07950  1.0000
  C   C8        1.0  0.23052  0.02665  0.25630  1.0000
  C   C9        1.0  0.48201  0.12749  0.10401  1.0000
  C   C10       1.0  0.47183  0.12420  0.13645  1.0000
  C   C11       1.0  0.29632  0.05337  0.19839  1.0000
  H   H10       1.0  0.46351  0.13066  0.08509  1.0000
  H   H11       1.0  0.48836  0.11725  0.18584  1.0000
  C   C12       1.0  0.19202  0.07614  0.19346  1.0000
  C   C13       1.0  0.21034  0.10156  0.18640  1.0000
  C   C14       1.0  0.23603  0.10136  0.16264  1.0000
  C   C15       1.0  0.24319  0.07577  0.14543  1.0000
  C   C16       1.0  0.22457  0.05056  0.15225  1.0000
  C   C17       1.0  0.19943  0.05067  0.17623  1.0000
  H   H12       1.0  0.20481  0.12146  0.19947  1.0000
  H   H13       1.0  0.25022  0.12094  0.15766  1.0000
  H   H14       1.0  0.23010  0.03061  0.13925  1.0000
  H   H15       1.0  0.18601  0.03094  0.18130  1.0000
  C   C18       1.0  0.51381  0.19263  0.19171  1.0000
  N   N2        1.0  0.03455  0.05141  0.46607  1.0000
  C   C19       1.0  0.08454  0.07222  0.12030  1.0000
  H   H16       1.0  0.34264  0.30421  0.00491  1.0000
  C   C20       1.0  0.27204  0.05268  0.22300  1.0000
  N   N3        1.0  0.09621  0.01277  0.11452  1.0000
  C   C21       1.0  0.07185  0.02560  0.09598  1.0000
  C   C22       1.0  0.11542  0.02916  0.13523  1.0000
  H   H17       1.0  0.29494  0.02151  0.45932  1.0000
  C   C23       1.0  0.10974  0.05905  0.13866  1.0000
  H   H18       1.0  0.43629  0.06006  0.11892  1.0000
  C   C24       1.0  0.02393  0.01483  0.16277  1.0000
  C   C25       1.0  0.29452  0.01643  0.48512  1.0000
  H   H19       1.0  0.30774  0.07383  0.19114  1.0000
  H   H20       1.0  0.32837  0.28849  0.33858  1.0000
  C   C26       1.0  0.01976  0.03664  0.35763  1.0000
  C   C27       1.0  0.30426  0.02781  0.18171  1.0000
  H   H21       1.0  0.37740  0.02945  0.45195  1.0000
  H   H22       1.0  0.29324  0.32658  0.31215  1.0000
  C   C28       1.0  0.50890  0.05474  0.05707  1.0000
  C   C29       1.0  0.48644  0.19132  0.17057  1.0000
  H   H23       1.0  0.24096  0.01735  0.27913  1.0000
  H   H24       1.0  0.05830  0.06561  0.42225  1.0000
  C   C30       1.0  0.27684  0.30197  0.43812  1.0000
  H   H25       1.0  0.03643  0.02657  0.18216  1.0000
  H   H26       1.0  0.12484  0.07186  0.15548  1.0000
  C   C31       1.0  0.05212  0.00502  0.48694  1.0000
  C   C32       1.0  0.30908  0.29968  0.35240  1.0000
  C   C33       1.0  0.34883  0.28133  0.00340  1.0000
  C   C34       1.0  0.30441  0.29347  0.38551  1.0000
  C   C35       1.0  0.45981  0.02550  0.44942  1.0000
  C   C36       1.0  0.07704  0.02414  0.43783  1.0000
  C   C37       1.0  0.05678  0.04885  0.44079  1.0000
  H   H27       1.0  0.07978  0.09536  0.12282  1.0000
  H   H28       1.0  0.45940  0.04235  0.43093  1.0000
  C   C38       1.0  0.06552  0.05546  0.09870  1.0000
  C   C39       1.0  0.45935  0.03307  0.48240  1.0000
  H   H29       1.0  0.47063  0.05813  0.01970  1.0000
  C   C40       1.0  0.03245  0.03012  0.48929  1.0000
  S   S11       1.0  0.14916  0.01649  0.29169  1.0000
  C   C41       1.0  0.47598  0.05736  0.04567  1.0000
  C   C42       1.0  0.35082  0.27056  0.48089  1.0000
  C   C43       1.0  0.44975  0.05913  0.06801  1.0000
  H   H30       1.0  0.32053  0.27754  0.39717  1.0000
  H   H31       1.0  0.13522  0.01914  0.14931  1.0000
  H   H32       1.0  0.42426  0.06149  0.05938  1.0000
  H   H33       1.0  0.22022  0.04872  0.26125  1.0000
  H   H34       1.0  0.46130  0.18775  0.17996  1.0000
  C   C44       1.0  0.45652  0.05805  0.10134  1.0000
  H   H35       1.0  0.23703  0.32510  0.99596  1.0000
  S   S12       1.0  0.38505  0.07396  0.00147  1.0000
  C   C45       1.0  0.26151  0.32914  0.38900  1.0000
  C   C46       1.0  0.03447  0.01010  0.36612  1.0000
  H   H36       1.0  0.30184  0.04802  0.00958  1.0000
  H   H37       1.0  0.51011  0.19057  0.21780  1.0000
  H   H38       1.0  0.04554  0.06531  0.08453  1.0000
  C   C47       1.0  0.38405  0.03559  0.00445  1.0000
  H   H39       1.0  0.20911  0.01291  0.24844  1.0000
  H   H40       1.0  0.02949  0.04888  0.33718  1.0000
  H   H41       1.0  0.09374  0.02173  0.41706  1.0000
  C   C48       1.0  0.48970  0.05527  0.11191  1.0000
  C   C49       1.0  0.49159  0.19375  0.13705  1.0000
  N   N4        1.0  0.28052  0.30789  0.40321  1.0000
  C   C50       1.0  0.36456  0.22179  0.00006  1.0000
  H   H42       1.0  0.37060  0.19888  0.99850  1.0000
  H   H43       1.0  0.32198  0.02842  0.16161  1.0000
  H   H44       1.0  0.29331  0.31691  0.45214  1.0000
  H   H45       1.0  0.26281  0.27621  0.00414  1.0000
  H   H46       1.0  0.49478  0.05490  0.13789  1.0000
  H   H47       1.0  0.45794  0.05579  0.48969  1.0000
  C   C51       1.0  0.29794  0.00302  0.99441  1.0000
  S   S13       1.0  0.08395  0.03529  0.76123  1.0000
  C   C52       1.0  0.37645  0.24130  0.97617  1.0000
  C   C53       1.0  0.25163  0.31508  0.97665  1.0000
  H   H48       1.0  0.35923  0.25348  0.63542  1.0000
  Fe  Fe7       1.0  0.13866  0.03637  0.74650  1.0000
  S   S14       1.0  0.16580  0.07651  0.72773  1.0000
  Fe  Fe8       1.0  0.31825  0.10179  0.60350  1.0000
  S   S15       1.0  0.31040  0.11526  0.55131  1.0000
  S   S16       1.0  0.28600  0.06625  0.62637  1.0000
  Fe  Fe9       1.0  0.38716  0.13182  0.60625  1.0000
  S   S17       1.0  0.38484  0.14649  0.55407  1.0000
  S   S18       1.0  0.42869  0.14688  0.63977  1.0000
  Fe  Fe10      1.0  0.33182  0.15895  0.56566  1.0000
  S   S19       1.0  0.30970  0.20368  0.55451  1.0000
  Fe  Fe11      1.0  0.36398  0.10166  0.54430  1.0000
  C   C54       1.0  0.43125  0.20635  0.58324  1.0000
  S   S20       1.0  0.33501  0.14656  0.61884  1.0000
  S   S21       1.0  0.37109  0.08611  0.59552  1.0000
  S   S22       1.0  0.38229  0.29427  0.94566  1.0000
  H   H49       1.0  0.31415  0.05875  0.70352  1.0000
  H   H50       1.0  0.45853  0.01693  0.53167  1.0000
  H   H51       1.0  0.29424  0.26726  0.88297  1.0000
  H   H52       1.0  0.40205  0.02931  0.95538  1.0000
  H   H53       1.0  0.37833  0.03586  0.55634  1.0000
  C   C55       1.0  0.32566  0.22881  0.52557  1.0000
  C   C56       1.0  0.41792  0.24692  0.54835  1.0000
  C   C57       1.0  0.24119  0.05540  0.76517  1.0000
  C   C58       1.0  0.28521  0.27537  0.95622  1.0000
  H   H54       1.0  0.49168  0.16227  0.66875  1.0000
  C   C59       1.0  0.28156  0.03123  0.73231  1.0000
  C   C60       1.0  0.31717  0.02244  0.93322  1.0000
  C   C61       1.0  0.43870  0.22354  0.55618  1.0000
  H   H55       1.0  0.39169  0.23315  0.95634  1.0000
  C   C62       1.0  0.37747  0.03638  0.50389  1.0000
  S   S23       1.0  0.08367  0.00829  0.85782  1.0000
  C   C63       1.0  0.46881  0.13111  0.63626  1.0000
  C   C64       1.0  0.47422  0.10656  0.61677  1.0000
  H   H56       1.0  0.01533  0.03225  0.50972  1.0000
  H   H57       1.0  0.45361  0.09702  0.60336  1.0000
  C   C65       1.0  0.19704  0.07369  0.69716  1.0000
  C   C66       1.0  0.20816  0.04659  0.68602  1.0000
  C   C67       1.0  0.23483  0.04487  0.66366  1.0000
  C   C68       1.0  0.25080  0.07016  0.65229  1.0000
  C   C69       1.0  0.23938  0.09734  0.66292  1.0000
  C   C70       1.0  0.21256  0.09906  0.68527  1.0000
  H   H58       1.0  0.19661  0.02693  0.69503  1.0000
  H   H59       1.0  0.24352  0.02377  0.65556  1.0000
  H   H60       1.0  0.25144  0.11698  0.65428  1.0000
  H   H61       1.0  0.20409  0.12013  0.69376  1.0000
  H   H62       1.0  0.32709  0.29383  0.89028  1.0000
  C   C71       1.0  0.25634  0.32961  0.94716  1.0000
  H   H63       1.0  0.28904  0.10456  0.72432  1.0000
  C   C72       1.0  0.04595  0.02128  0.87551  1.0000
  H   H64       1.0  0.27966  0.32836  0.90003  1.0000
  H   H65       1.0  0.51032  0.07483  0.60030  1.0000
  H   H66       1.0  0.33301  0.25314  0.59925  1.0000
  C   C73       1.0  0.49574  0.14328  0.65362  1.0000
  C   C74       1.0  0.35031  0.22099  0.50297  1.0000
  N   N5        1.0  0.38198  0.23499  0.59346  1.0000
  C   C75       1.0  0.32663  0.27856  0.50393  1.0000
  H   H67       1.0  0.31757  0.30072  0.50475  1.0000
  C   C76       1.0  0.31379  0.25766  0.52581  1.0000
  H   H68       1.0  0.29665  0.25423  0.96020  1.0000
  C   C77       1.0  0.39352  0.01872  0.97743  1.0000
  C   C78       1.0  0.37811  0.02288  0.53442  1.0000
  S   S24       1.0  0.15580  0.01512  0.79292  1.0000
  H   H69       1.0  0.33993  0.22016  0.62070  1.0000
  C   C79       1.0  0.27590  0.31673  0.92278  1.0000
  H   H70       1.0  0.42428  0.31992  0.89418  1.0000
  C   C80       1.0  0.40260  0.21243  0.60171  1.0000
  H   H71       1.0  0.29202  0.01133  0.72239  1.0000
  H   H72       1.0  0.24106  0.10231  0.76309  1.0000
  H   H73       1.0  0.21932  0.05467  0.78091  1.0000
  H   H74       1.0  0.37366  0.27073  0.56130  1.0000
  H   H75       1.0  0.39672  0.19879  0.62251  1.0000
  C   C81       1.0  0.38975  0.25260  0.56766  1.0000
  H   H76       1.0  0.44725  0.18813  0.58969  1.0000
  H   H77       1.0  0.31986  0.06520  0.95504  1.0000
  C   C82       1.0  0.25345  0.08249  0.75521  1.0000
  C   C83       1.0  0.47369  0.30733  0.90965  1.0000
  N   N6        1.0  0.25555  0.03024  0.75405  1.0000
  H   H78       1.0  0.29473  0.26393  0.54324  1.0000
  C   C84       1.0  0.36850  0.27110  0.97758  1.0000
  C   C85       1.0  0.28021  0.08373  0.73334  1.0000
  C   C86       1.0  0.35219  0.24091  0.61333  1.0000
  C   C87       1.0  0.29359  0.03931  0.50769  1.0000
  C   C88       1.0  0.03716  0.01175  0.90696  1.0000
  H   H79       1.0  0.29382  0.06178  0.49950  1.0000
  H   H80       1.0  0.32790  0.26011  0.91153  1.0000
  C   C89       1.0  0.29436  0.05797  0.72170  1.0000
  C   C90       1.0  0.50632  0.09403  0.61510  1.0000
  C   C91       1.0  0.26600  0.28770  0.98122  1.0000
  H   H81       1.0  0.42321  0.26033  0.52717  1.0000
  C   C92       1.0  0.29360  0.03308  0.54095  1.0000
  C   C93       1.0  0.02432  0.04011  0.85898  1.0000
  H   H82       1.0  0.29337  0.05061  0.55873  1.0000
  H   H83       1.0  0.46049  0.21867  0.54131  1.0000
  N   N7        1.0  0.29049  0.29016  0.92773  1.0000
  C   C94       1.0  0.31077  0.27710  0.90176  1.0000
  Fe  Fe12      1.0  0.10094  0.00961  0.80486  1.0000
  C   C95       1.0  0.29465  0.00421  0.55130  1.0000
  C   C96       1.0  0.45059  0.31880  0.88768  1.0000
  H   H84       1.0  0.03086  0.04772  0.83486  1.0000
  C   C97       1.0  0.49567  0.32766  0.84970  1.0000
  C   C98       1.0  0.30377  0.03273  0.98944  1.0000
  S   S25       1.0  0.37735  0.07456  0.49998  1.0000
  H   H85       1.0  0.46516  0.29940  0.93319  1.0000
  H   H86       1.0  0.32520  0.02966  0.90932  1.0000
  H   H87       1.0  0.35969  0.19890  0.50249  1.0000
  C   C99       1.0  0.45958  0.01124  0.50599  1.0000
  C   C100      1.0  0.50766  0.30632  0.90109  1.0000
  C   C101      1.0  0.46155  0.32905  0.85751  1.0000
  C   C102      1.0  0.31384  0.04239  0.95874  1.0000
  H   H88       1.0  0.23242  0.00252  0.78927  1.0000
  C   C103      1.0  0.24118  0.00213  0.76353  1.0000
  Fe  Fe13      1.0  0.09802  0.48441  0.20861  1.0000
  S   S26       1.0  0.06843  0.46368  0.16695  1.0000
  Fe  Fe14      1.0  0.15782  0.47164  0.25552  1.0000
  S   S27       1.0  0.20540  0.44481  0.26163  1.0000
  S   S28       1.0  0.10403  0.45767  0.25406  1.0000
  S   S29       1.0  0.15317  0.49418  0.20710  1.0000
  Fe  Fe15      1.0  0.36675  0.40800  0.46429  1.0000
  S   S30       1.0  0.35786  0.42537  0.41413  1.0000
  C   C104      1.0  0.46565  0.43028  0.47352  1.0000
  H   H89       1.0  0.27965  0.50297  0.14424  1.0000
  C   C105      1.0  0.50082  0.44632  0.41805  1.0000
  Fe  Fe16      1.0  0.39248  0.38940  0.39812  1.0000
  S   S31       1.0  0.43212  0.39935  0.36013  1.0000
  Fe  Fe17      1.0  0.31689  0.39200  0.41136  1.0000
  S   S32       1.0  0.26292  0.40304  0.39871  1.0000
  S   S33       1.0  0.40425  0.37426  0.44868  1.0000
  S   S34       1.0  0.32355  0.37650  0.46315  1.0000
  N   N8        1.0  0.23400  0.64294  0.06425  1.0000
  C   C106      1.0  0.47478  0.39175  0.36796  1.0000
  C   C107      1.0  0.04092  0.48236  0.14025  1.0000
  H   H90       1.0  0.28974  0.47552  0.46823  1.0000
  H   H91       1.0  0.46612  0.36842  0.41261  1.0000
  C   C108      1.0  0.37387  0.48903  0.47310  1.0000
  H   H92       1.0  0.45656  0.47761  0.01745  1.0000
  C   C109      1.0  0.37873  0.48942  0.03324  1.0000
  H   H93       1.0  0.36914  0.47618  0.45160  1.0000
  H   H94       1.0  0.38226  0.47870  0.05645  1.0000
  C   C110      1.0  0.24843  0.41641  0.36073  1.0000
  C   C111      1.0  0.26805  0.41502  0.33249  1.0000
  C   C112      1.0  0.25460  0.42397  0.30234  1.0000
  C   C113      1.0  0.22174  0.43491  0.30024  1.0000
  C   C114      1.0  0.20241  0.43684  0.32861  1.0000
  C   C115      1.0  0.21560  0.42734  0.35862  1.0000
  H   H95       1.0  0.29331  0.40657  0.33375  1.0000
  H   H96       1.0  0.26971  0.42236  0.28050  1.0000
  H   H97       1.0  0.17704  0.44505  0.32730  1.0000
  H   H98       1.0  0.20019  0.42836  0.38030  1.0000
  H   H99       1.0  0.05295  0.54828  0.34330  1.0000
  H   H100      1.0  0.24647  0.63198  0.01479  1.0000
  H   H101      1.0  0.08285  0.53108  0.41748  1.0000
  C   C116      1.0  0.47047  0.57161  0.18820  1.0000
  C   C117      1.0  0.49937  0.40199  0.34627  1.0000
  S   S35       1.0  0.08432  0.52541  0.23536  1.0000
  S   S36       1.0  0.14710  0.51126  0.28562  1.0000
  Fe  Fe18      1.0  0.09229  0.49915  0.28128  1.0000
  S   S37       1.0  0.05245  0.48774  0.31950  1.0000
  Fe  Fe19      1.0  0.14050  0.53346  0.23689  1.0000
  S   S38       1.0  0.17016  0.57504  0.22716  1.0000
  Fe  Fe20      1.0  0.31736  0.60697  0.09327  1.0000
  S   S39       1.0  0.31981  0.62151  0.04096  1.0000
  S   S40       1.0  0.27056  0.58088  0.10638  1.0000
  Fe  Fe21      1.0  0.38969  0.62694  0.10517  1.0000
  S   S41       1.0  0.39741  0.64241  0.05377  1.0000
  S   S42       1.0  0.42906  0.63170  0.14457  1.0000
  H   H102      1.0  0.21138  0.47913  0.15967  1.0000
  Fe  Fe22      1.0  0.37062  0.60067  0.04031  1.0000
  H   H103      1.0  0.36980  0.52994  0.44757  1.0000
  S   S43       1.0  0.33959  0.64881  0.11166  1.0000
  S   S44       1.0  0.36700  0.58386  0.09144  1.0000
  H   H104      1.0  0.49187  0.41344  0.32442  1.0000
  C   C118      1.0  0.03568  0.51236  0.14276  1.0000
  C   C119      1.0  0.38071  0.51994  0.03138  1.0000
  C   C120      1.0  0.06816  0.51766  0.43390  1.0000
  H   H105      1.0  0.38610  0.53250  0.05303  1.0000
  C   C121      1.0  0.48082  0.61796  0.10252  1.0000
  C   C122      1.0  0.47142  0.62793  0.13344  1.0000
  H   H106      1.0  0.20225  0.61584  0.09303  1.0000
  H   H107      1.0  0.46181  0.61271  0.08462  1.0000
  H   H108      1.0  0.45023  0.48999  0.39699  1.0000
  C   C123      1.0  0.19782  0.57710  0.19336  1.0000
  C   C124      1.0  0.19488  0.55793  0.16702  1.0000
  C   C125      1.0  0.21719  0.55978  0.14058  1.0000
  C   C126      1.0  0.24301  0.58056  0.14023  1.0000
  C   C127      1.0  0.24599  0.59998  0.16641  1.0000
  C   C128      1.0  0.22324  0.59839  0.19275  1.0000
  H   H109      1.0  0.17499  0.54198  0.16669  1.0000
  H   H110      1.0  0.21451  0.54483  0.12032  1.0000
  H   H111      1.0  0.26574  0.61613  0.16637  1.0000
  H   H112      1.0  0.22557  0.61342  0.21296  1.0000
  Fe  Fe23      1.0  0.36011  0.34407  0.44269  1.0000
  H   H113      1.0  0.05592  0.55298  0.46611  1.0000
  H   H114      1.0  0.46172  0.46072  0.36927  1.0000
  C   C129      1.0  0.48473  0.37675  0.39596  1.0000
  H   H115      1.0  0.03759  0.44898  0.44113  1.0000
  C   C130      1.0  0.05289  0.52989  0.46143  1.0000
  N   N9        1.0  0.46707  0.45136  0.41995  1.0000
  H   H116      1.0  0.04953  0.52490  0.16060  1.0000
  H   H117      1.0  0.44392  0.57638  0.19058  1.0000
  C   C131      1.0  0.03447  0.53606  0.35692  1.0000
  C   C132      1.0  0.02901  0.50669  0.34963  1.0000
  C   C133      1.0  0.21649  0.63596  0.09184  1.0000
  H   H118      1.0  0.03628  0.43841  0.22503  1.0000
  C   C134      1.0  0.49624  0.63458  0.15645  1.0000
  C   C135      1.0  0.02265  0.46641  0.11690  1.0000
  N   N10       1.0  0.25070  0.49747  0.18762  1.0000
  C   C136      1.0  0.24240  0.50870  0.21749  1.0000
  C   C137      1.0  0.27413  0.51102  0.16855  1.0000
  C   C138      1.0  0.25812  0.53382  0.22921  1.0000
  C   C139      1.0  0.29067  0.53599  0.17969  1.0000
  C   C140      1.0  0.28253  0.54743  0.21022  1.0000
  H   H119      1.0  0.22319  0.49853  0.23230  1.0000
  H   H120      1.0  0.25061  0.54306  0.25247  1.0000
  H   H121      1.0  0.30852  0.54711  0.16405  1.0000
  C   C141      1.0  0.23275  0.62312  0.03621  1.0000
  C   C142      1.0  0.49230  0.57666  0.21420  1.0000
  H   H122      1.0  0.42339  0.45857  0.39113  1.0000
  S   S45       1.0  0.37448  0.43426  0.00805  1.0000
  C   C143      1.0  0.26554  0.33594  0.35600  1.0000
  H   H123      1.0  0.07353  0.47892  0.40466  1.0000
  C   C144      1.0  0.44983  0.46608  0.39309  1.0000
  H   H124      1.0  0.24973  0.45802  0.16010  1.0000
  S   S46       1.0  0.35051  0.35738  0.39056  1.0000
  C   C145      1.0  0.37413  0.51958  0.47086  1.0000
  H   H125      1.0  0.20413  0.64808  0.14129  1.0000
  H   H126      1.0  0.22302  0.45816  0.19508  1.0000
  H   H127      1.0  0.48910  0.64233  0.18040  1.0000
  H   H128      1.0  0.29424  0.56738  0.21863  1.0000
  C   C146      1.0  0.04255  0.47160  0.44704  1.0000
  C   C147      1.0  0.23283  0.47197  0.17493  1.0000
  H   H129      1.0  0.03721  0.47019  0.00799  1.0000
  H   H130      1.0  0.25072  0.35317  0.34506  1.0000
  H   H131      1.0  0.29077  0.56771  0.48714  1.0000
  C   C148      1.0  0.44959  0.44391  0.44740  1.0000
  C   C149      1.0  0.21765  0.65404  0.11931  1.0000
  H   H132      1.0  0.28480  0.52642  0.44808  1.0000
  H   H133      1.0  0.02655  0.44318  0.11480  1.0000
  C   C150      1.0  0.01629  0.54954  0.38233  1.0000
  H   H134      1.0  0.42296  0.44819  0.44914  1.0000
  H   H135      1.0  0.46638  0.55802  0.13806  1.0000
  C   C151      1.0  0.48309  0.56132  0.15862  1.0000
  H   H136      1.0  0.20637  0.61917  0.02881  1.0000
  C   C152      1.0  0.49992  0.42447  0.47151  1.0000
  H   H137      1.0  0.48275  0.58482  0.23723  1.0000
  C   C153      1.0  0.28888  0.52224  0.47380  1.0000
  N   N11       1.0  0.03341  0.51322  0.48156  1.0000
  C   C154      1.0  0.06286  0.48834  0.42667  1.0000
  H   H138      1.0  0.24454  0.60198  0.04280  1.0000
  C   C155      1.0  0.37305  0.47265  0.00514  1.0000
  C   C156      1.0  0.29166  0.49370  0.48509  1.0000
  C   C157      1.0  0.02793  0.48446  0.47457  1.0000
  H   H139      1.0  0.24352  0.34148  0.40331  1.0000
  C   C158      1.0  0.25295  0.66779  0.06314  1.0000
  H   H140      1.0  0.02581  0.58289  0.00292  1.0000
  C   C159      1.0  0.37717  0.53397  0.00133  1.0000
  H   H141      1.0  0.02095  0.57217  0.38807  1.0000
  C   C160      1.0  0.02225  0.51523  0.00485  1.0000
  H   H142      1.0  0.02764  0.45238  0.26509  1.0000
  Fe  Fe24      1.0  0.34593  0.66187  0.05894  1.0000
  S   S47       1.0  0.38424  0.57179  0.99744  1.0000
  H   H143      1.0  0.51259  0.41345  0.49135  1.0000
  H   H144      1.0  0.51470  0.45202  0.39621  1.0000
  C   C161      1.0  0.01604  0.44658  0.24129  1.0000
  Fe  Fe25      1.0  0.09693  0.48017  0.70900  1.0000
  S   S48       1.0  0.07083  0.46268  0.66337  1.0000
  Fe  Fe26      1.0  0.15688  0.46781  0.75653  1.0000
  S   S49       1.0  0.20731  0.44496  0.76199  1.0000
  S   S50       1.0  0.10322  0.45287  0.75416  1.0000
  S   S51       1.0  0.15190  0.49031  0.70823  1.0000
  Fe  Fe27      1.0  0.36832  0.40609  0.96309  1.0000
  S   S52       1.0  0.35936  0.42387  0.91299  1.0000
  H   H145      1.0  0.24088  0.50852  0.78063  1.0000
  H   H146      1.0  0.44286  0.52493  0.92854  1.0000
  S   S53       1.0  0.36117  0.35605  0.88748  1.0000
  Fe  Fe28      1.0  0.39871  0.39153  0.89760  1.0000
  S   S54       1.0  0.43942  0.40409  0.86161  1.0000
  Fe  Fe29      1.0  0.32274  0.38695  0.90768  1.0000
  S   S55       1.0  0.26810  0.39063  0.89224  1.0000
  S   S56       1.0  0.41024  0.37621  0.94809  1.0000
  S   S57       1.0  0.32929  0.37084  0.95930  1.0000
  H   H147      1.0  0.45227  0.43120  0.98662  1.0000
  C   C162      1.0  0.48226  0.39820  0.87054  1.0000
  C   C163      1.0  0.49257  0.38768  0.90090  1.0000
  C   C164      1.0  0.45148  0.50434  0.97460  1.0000
  H   H148      1.0  0.47440  0.38335  0.91970  1.0000
  H   H149      1.0  0.03628  0.44801  0.60412  1.0000
  C   C165      1.0  0.49874  0.62949  0.65846  1.0000
  C   C166      1.0  0.38468  0.49267  0.53093  1.0000
  H   H150      1.0  0.36395  0.47418  0.95347  1.0000
  H   H151      1.0  0.38904  0.48238  0.55426  1.0000
  C   C167      1.0  0.25240  0.40791  0.85668  1.0000
  C   C168      1.0  0.27266  0.41328  0.82948  1.0000
  C   C169      1.0  0.25854  0.42495  0.80081  1.0000
  C   C170      1.0  0.22423  0.43192  0.79924  1.0000
  C   C171      1.0  0.20419  0.42731  0.82673  1.0000
  C   C172      1.0  0.21816  0.41506  0.85515  1.0000
  H   H152      1.0  0.29898  0.40770  0.83022  1.0000
  H   H153      1.0  0.27421  0.42828  0.77963  1.0000
  H   H154      1.0  0.17775  0.43244  0.82583  1.0000
  H   H155      1.0  0.20225  0.41092  0.87599  1.0000
  H   H156      1.0  0.30060  0.55771  0.54547  1.0000
  H   H157      1.0  0.49871  0.41151  0.82273  1.0000
  H   H158      1.0  0.50406  0.33616  0.82642  1.0000
  H   H159      1.0  0.45138  0.42410  0.49500  1.0000
  H   H160      1.0  0.05789  0.51379  0.91738  1.0000
  S   S58       1.0  0.08245  0.52085  0.73600  1.0000
  S   S59       1.0  0.14507  0.50746  0.78628  1.0000
  Fe  Fe30      1.0  0.09082  0.49420  0.78166  1.0000
  S   S60       1.0  0.05493  0.48274  0.82340  1.0000
  Fe  Fe31      1.0  0.13853  0.52958  0.73751  1.0000
  S   S61       1.0  0.16784  0.57112  0.72617  1.0000
  Fe  Fe32      1.0  0.31802  0.60359  0.59781  1.0000
  S   S62       1.0  0.31622  0.62172  0.54691  1.0000
  S   S63       1.0  0.27773  0.57114  0.61291  1.0000
  Fe  Fe33      1.0  0.39123  0.62362  0.60669  1.0000
  S   S64       1.0  0.39493  0.64233  0.55626  1.0000
  S   S65       1.0  0.43164  0.62756  0.64513  1.0000
  C   C173      1.0  0.45156  0.45185  0.97381  1.0000
  Fe  Fe34      1.0  0.36718  0.60158  0.54114  1.0000
  H   H161      1.0  0.44404  0.43230  0.92681  1.0000
  S   S66       1.0  0.34148  0.64417  0.61833  1.0000
  S   S67       1.0  0.36779  0.58162  0.59084  1.0000
  H   H162      1.0  0.24541  0.35099  0.94326  1.0000
  C   C174      1.0  0.36855  0.48673  0.97523  1.0000
  C   C175      1.0  0.38454  0.52320  0.52874  1.0000
  H   H163      1.0  0.36791  0.52795  0.95001  1.0000
  H   H164      1.0  0.38925  0.53613  0.55019  1.0000
  C   C176      1.0  0.48442  0.61364  0.60398  1.0000
  C   C177      1.0  0.47432  0.62280  0.63501  1.0000
  H   H165      1.0  0.03179  0.55846  0.93951  1.0000
  H   H166      1.0  0.46580  0.60855  0.58566  1.0000
  N   N12       1.0  0.44358  0.47856  0.92412  1.0000
  C   C178      1.0  0.19702  0.57235  0.69332  1.0000
  C   C179      1.0  0.21944  0.59592  0.69049  1.0000
  C   C180      1.0  0.24382  0.59658  0.66544  1.0000
  C   C181      1.0  0.24594  0.57358  0.64307  1.0000
  C   C182      1.0  0.22311  0.55045  0.64555  1.0000
  C   C183      1.0  0.19877  0.54993  0.67030  1.0000
  H   H167      1.0  0.21812  0.61360  0.70790  1.0000
  H   H168      1.0  0.26118  0.61462  0.66376  1.0000
  H   H169      1.0  0.22422  0.53270  0.62822  1.0000
  H   H170      1.0  0.18107  0.53229  0.67112  1.0000
  C   C184      1.0  0.02708  0.50209  0.84930  1.0000
  C   C185      1.0  0.27132  0.54838  0.72927  1.0000
  C   C186      1.0  0.03867  0.48095  0.64155  1.0000
  C   C187      1.0  0.01917  0.43042  0.72590  1.0000
  H   H171      1.0  0.20668  0.50898  0.75214  1.0000
  C   C188      1.0  0.04828  0.51405  0.94217  1.0000
  Fe  Fe35      1.0  0.37037  0.34249  0.93952  1.0000
  C   C189      1.0  0.43738  0.47836  0.88889  1.0000
  C   C190      1.0  0.44605  0.50427  0.94089  1.0000
  H   H172      1.0  0.43518  0.50067  0.87874  1.0000
  C   C191      1.0  0.44642  0.45259  0.94010  1.0000
  H   H173      1.0  0.28407  0.50771  0.58785  1.0000
  C   C192      1.0  0.03359  0.53929  0.95485  1.0000
  Fe  Fe36      1.0  0.34382  0.66079  0.56653  1.0000
  N   N13       1.0  0.25298  0.52345  0.73312  1.0000
  H   H174      1.0  0.03896  0.54488  0.83145  1.0000
  C   C193      1.0  0.25725  0.50043  0.71234  1.0000
  C   C194      1.0  0.29430  0.55091  0.70365  1.0000
  C   C195      1.0  0.27984  0.50229  0.68633  1.0000
  C   C196      1.0  0.29837  0.52777  0.68196  1.0000
  C   C197      1.0  0.50644  0.40341  0.84632  1.0000
  H   H175      1.0  0.22067  0.54251  0.76900  1.0000
  H   H176      1.0  0.24275  0.48062  0.71561  1.0000
  C   C198      1.0  0.30797  0.50630  0.57400  1.0000
  H   H177      1.0  0.28251  0.48424  0.66949  1.0000
  H   H178      1.0  0.31522  0.52998  0.66133  1.0000
  C   C199      1.0  0.22935  0.52086  0.76024  1.0000
  H   H179      1.0  0.06024  0.46913  0.95141  1.0000
  C   C200      1.0  0.29208  0.54539  0.49566  1.0000
  H   H180      1.0  0.45816  0.46696  0.87607  1.0000
  H   H181      1.0  0.32555  0.52292  0.58390  1.0000
  N   N14       1.0  0.30158  0.51164  0.53934  1.0000
  H   H182      1.0  0.44385  0.33878  0.84064  1.0000
  C   C201      1.0  0.37896  0.47546  0.50322  1.0000
  H   H183      1.0  0.49110  0.63682  0.68243  1.0000
  H   H184      1.0  0.31970  0.48466  0.57794  1.0000
  H   H185      1.0  0.30119  0.46653  0.52654  1.0000
  H   H186      1.0  0.30790  0.57109  0.69987  1.0000
  H   H187      1.0  0.41367  0.46653  0.88352  1.0000
  S   S68       1.0  0.37739  0.43724  0.50757  1.0000
  H   H188      1.0  0.26752  0.56677  0.74547  1.0000
  C   C202      1.0  0.37076  0.51726  0.97333  1.0000
  C   C203      1.0  0.02445  0.50684  0.65300  1.0000
  C   C204      1.0  0.29807  0.53963  0.52861  1.0000
  C   C205      1.0  0.02394  0.53238  0.84837  1.0000
  C   C206      1.0  0.04946  0.48897  0.96124  1.0000
  C   C207      1.0  0.02557  0.46813  0.61306  1.0000
  C   C208      1.0  0.29809  0.48876  0.51816  1.0000
  H   H189      1.0  0.03624  0.53920  0.52449  1.0000
  H   H190      1.0  0.03425  0.51695  0.67484  1.0000
  C   C209      1.0  0.01749  0.52682  0.51001  1.0000
  H   H191      1.0  0.03708  0.41298  0.72963  1.0000
  H   H192      1.0  0.02703  0.44912  0.77323  1.0000
  C   C210      1.0  0.37886  0.53680  0.49877  1.0000
  S   S69       1.0  0.37656  0.57507  0.49545  1.0000
  N   N15       1.0  0.02062  0.53957  0.98573  1.0000
  C   C211      1.0  0.45404  0.47792  0.99112  1.0000
  H   H193      1.0  0.45197  0.52475  0.98802  1.0000
  C   C212      1.0  0.03647  0.48953  0.99285  1.0000
  C   C213      1.0  0.38065  0.97426  0.00698  1.0000
  H   H194      1.0  0.12288  0.97791  0.09270  1.0000
  Fe  Fe37      1.0  0.15597  0.97495  0.26394  1.0000
  S   S70       1.0  0.20530  0.95031  0.26744  1.0000
  S   S71       1.0  0.10254  0.96062  0.27030  1.0000
  H   H195      1.0  0.47475  0.71917  0.09881  1.0000
  S   S72       1.0  0.32816  0.70807  0.04758  1.0000
  Fe  Fe38      1.0  0.37211  0.90848  0.46774  1.0000
  S   S73       1.0  0.36483  0.92813  0.41849  1.0000
  H   H196      1.0  0.51067  0.71579  0.16356  1.0000
  Fe  Fe39      1.0  0.36565  0.84580  0.44215  1.0000
  S   S74       1.0  0.35714  0.86172  0.39070  1.0000
  S   S75       1.0  0.37119  0.79651  0.44698  1.0000
  Fe  Fe40      1.0  0.39956  0.89276  0.40141  1.0000
  S   S76       1.0  0.44084  0.90412  0.36560  1.0000
  Fe  Fe41      1.0  0.32331  0.89566  0.41286  1.0000
  S   S77       1.0  0.27000  0.91084  0.40266  1.0000
  S   S78       1.0  0.40980  0.87522  0.45131  1.0000
  S   S79       1.0  0.32873  0.87743  0.46363  1.0000
  C   C214      1.0  0.02956  0.98499  0.15884  1.0000
  C   C215      1.0  0.48361  0.89958  0.37573  1.0000
  C   C216      1.0  0.36953  0.74331  0.47729  1.0000
  H   H197      1.0  0.03885  0.91469  0.28872  1.0000
  H   H198      1.0  0.47471  0.88147  0.42328  1.0000
  H   H199      1.0  0.01724  0.94706  0.13016  1.0000
  H   H200      1.0  0.03272  0.97395  0.39956  1.0000
  H   H201      1.0  0.30126  0.74847  0.38085  1.0000
  H   H202      1.0  0.29456  0.98177  0.17753  1.0000
  H   H203      1.0  0.36324  0.98047  0.05621  1.0000
  C   C217      1.0  0.34364  0.73322  0.01814  1.0000
  N   N16       1.0  0.29712  0.78731  0.40870  1.0000
  H   H204      1.0  0.08944  0.98245  0.45855  1.0000
  C   C218      1.0  0.02881  0.92891  0.30839  1.0000
  H   H205      1.0  0.37877  0.97584  0.45600  1.0000
  H   H206      1.0  0.02919  0.94854  0.24680  1.0000
  H   H207      1.0  0.47663  0.68077  0.08948  1.0000
  H   H208      1.0  0.27027  0.70575  0.08929  1.0000
  H   H209      1.0  0.25234  0.98152  0.22195  1.0000
  H   H210      1.0  0.46721  0.69206  0.12999  1.0000
  C   C219      1.0  0.25324  0.92263  0.36482  1.0000
  C   C220      1.0  0.22088  0.93474  0.36426  1.0000
  C   C221      1.0  0.20612  0.94371  0.33473  1.0000
  C   C222      1.0  0.22345  0.94029  0.30532  1.0000
  C   C223      1.0  0.25587  0.92826  0.30586  1.0000
  C   C224      1.0  0.27080  0.91960  0.33548  1.0000
  H   H211      1.0  0.20704  0.93711  0.38679  1.0000
  H   H212      1.0  0.18115  0.95287  0.33467  1.0000
  H   H213      1.0  0.26945  0.92549  0.28324  1.0000
  H   H214      1.0  0.29570  0.91030  0.33552  1.0000
  H   H215      1.0  0.32166  0.74709  0.42012  1.0000
  C   C225      1.0  0.07445  0.00201  0.46096  1.0000
  C   C226      1.0  0.31585  0.76127  0.39891  1.0000
  C   C227      1.0  0.37175  0.99111  0.03418  1.0000
  C   C228      1.0  0.10291  0.98154  0.11111  1.0000
  S   S80       1.0  0.05703  0.96543  0.18486  1.0000
  H   H216      1.0  0.28996  0.77327  0.45783  1.0000
  C   C229      1.0  0.29672  0.96439  0.47148  1.0000
  H   H217      1.0  0.07997  0.96949  0.10363  1.0000
  H   H218      1.0  0.25881  0.81739  0.47422  1.0000
  H   H219      1.0  0.44751  0.94085  0.42995  1.0000
  H   H220      1.0  0.31342  0.76846  0.03669  1.0000
  H   H221      1.0  0.30126  0.80670  0.36164  1.0000
  H   H222      1.0  0.46033  0.99029  0.41482  1.0000
  C   C230      1.0  0.49339  0.88809  0.40581  1.0000
  H   H223      1.0  0.33257  0.80447  0.99547  1.0000
  H   H224      1.0  0.31157  0.94564  0.48067  1.0000
  C   C231      1.0  0.23707  0.67930  0.11846  1.0000
  C   C232      1.0  0.25478  0.68629  0.09021  1.0000
  C   C233      1.0  0.36068  0.77289  0.47961  1.0000
  H   H225      1.0  0.24824  0.85653  0.43349  1.0000
  C   C234      1.0  0.29148  0.80872  0.38622  1.0000
  C   C235      1.0  0.28521  0.79008  0.43987  1.0000
  C   C236      1.0  0.27357  0.83378  0.39473  1.0000
  C   C237      1.0  0.26751  0.81499  0.44930  1.0000
  C   C238      1.0  0.26162  0.83691  0.42651  1.0000
  H   H226      1.0  0.48592  0.93611  0.45260  1.0000
  H   H227      1.0  0.26948  0.85096  0.37700  1.0000
  H   H228      1.0  0.29111  0.99556  0.01858  1.0000
  Fe  Fe42      1.0  0.09014  0.98526  0.22441  1.0000
  S   S81       1.0  0.06948  0.99540  0.34522  1.0000
  C   C239      1.0  0.37814  0.98867  0.47792  1.0000
  H   H229      1.0  0.50105  0.91650  0.32974  1.0000
  C   C240      1.0  0.34231  0.78251  0.99504  1.0000
  S   S82       1.0  0.14441  0.99452  0.21505  1.0000
  N   N17       1.0  0.45941  0.97481  0.46383  1.0000
  H   H230      1.0  0.30876  0.97136  0.44832  1.0000
  H   H231      1.0  0.38357  0.73575  0.45634  1.0000
  H   H232      1.0  0.34038  0.76772  0.38819  1.0000
  C   C241      1.0  0.33147  0.76199  0.01839  1.0000
  C   C242      1.0  0.48257  0.69756  0.10819  1.0000
  C   C243      1.0  0.45968  0.94410  0.45411  1.0000
  H   H233      1.0  0.23866  0.69330  0.13973  1.0000
  H   H234      1.0  0.05032  0.93687  0.32321  1.0000
  H   H235      1.0  0.27085  0.95688  0.46597  1.0000
  H   H236      1.0  0.11081  0.97199  0.13482  1.0000
  H   H237      1.0  0.30048  0.94634  0.00071  1.0000
  S   S83       1.0  0.37729  0.93602  0.00931  1.0000
  C   C244      1.0  0.46007  0.99606  0.44051  1.0000
  C   C245      1.0  0.50838  0.90760  0.35309  1.0000
  C   C246      1.0  0.02152  0.99451  0.39277  1.0000
  H   H238      1.0  0.26720  0.67333  0.04145  1.0000
  H   H239      1.0  0.44556  0.93057  0.47192  1.0000
  C   C247      1.0  0.28858  0.00176  0.19037  1.0000
  C   C248      1.0  0.26463  0.00180  0.21533  1.0000
  C   C249      1.0  0.36692  0.72520  0.99425  1.0000
  H   H240      1.0  0.31305  0.93920  0.95998  1.0000
  H   H241      1.0  0.45894  0.96516  0.51472  1.0000
  Fe  Fe43      1.0  0.15087  0.97363  0.76484  1.0000
  S   S84       1.0  0.19217  0.93955  0.76574  1.0000
  S   S85       1.0  0.09725  0.96648  0.77925  1.0000
  C   C250      1.0  0.36523  0.77437  0.97086  1.0000
  S   S86       1.0  0.32949  0.70861  0.56032  1.0000
  Fe  Fe44      1.0  0.37659  0.90964  0.96265  1.0000
  S   S87       1.0  0.37208  0.93103  0.91395  1.0000
  H   H242      1.0  0.42652  0.84322  0.83877  1.0000
  Fe  Fe45      1.0  0.37037  0.84795  0.93433  1.0000
  S   S88       1.0  0.36359  0.86569  0.88326  1.0000
  S   S89       1.0  0.37883  0.79886  0.93990  1.0000
  Fe  Fe46      1.0  0.40634  0.89562  0.89625  1.0000
  S   S90       1.0  0.44706  0.90362  0.85855  1.0000
  Fe  Fe47      1.0  0.32970  0.89974  0.90545  1.0000
  S   S91       1.0  0.28046  0.92314  0.89436  1.0000
  S   S92       1.0  0.41465  0.87667  0.94595  1.0000
  S   S93       1.0  0.33295  0.87932  0.95543  1.0000
  C   C251      1.0  0.40027  0.70709  0.62952  1.0000
  C   C252      1.0  0.48998  0.89957  0.86827  1.0000
  N   N18       1.0  0.29604  0.98814  0.49545  1.0000
  C   C253      1.0  0.42059  0.71507  0.57374  1.0000
  H   H243      1.0  0.48247  0.89335  0.91975  1.0000
  H   H244      1.0  0.05458  0.92315  0.67468  1.0000
  H   H245      1.0  0.04672  0.92023  0.73606  1.0000
  S   S94       1.0  0.03532  0.97800  0.70872  1.0000
  H   H246      1.0  0.39913  0.97541  0.95769  1.0000
  C   C254      1.0  0.37887  0.99237  0.53667  1.0000
  C   C255      1.0  0.34165  0.73274  0.52868  1.0000
  C   C256      1.0  0.29572  0.95254  0.97493  1.0000
  C   C257      1.0  0.33289  0.76233  0.53106  1.0000
  C   C258      1.0  0.50056  0.89399  0.90015  1.0000
  C   C259      1.0  0.45011  0.82045  0.89238  1.0000
  H   H247      1.0  0.46588  0.84936  0.81978  1.0000
  H   H248      1.0  0.21951  0.99691  0.74755  1.0000
  H   H249      1.0  0.29758  0.95946  0.53628  1.0000
  C   C260      1.0  0.04240  0.98956  0.61004  1.0000
  H   H250      1.0  0.40018  0.68765  0.64570  1.0000
  C   C261      1.0  0.25723  0.92764  0.85776  1.0000
  C   C262      1.0  0.26575  0.91364  0.82856  1.0000
  C   C263      1.0  0.24570  0.91745  0.80050  1.0000
  C   C264      1.0  0.21715  0.93541  0.80131  1.0000
  C   C265      1.0  0.20900  0.94972  0.83036  1.0000
  C   C266      1.0  0.22885  0.94577  0.85838  1.0000
  H   H251      1.0  0.28746  0.89957  0.82776  1.0000
  H   H252      1.0  0.25224  0.90624  0.77818  1.0000
  H   H253      1.0  0.18700  0.96342  0.83151  1.0000
  H   H254      1.0  0.22191  0.95658  0.88084  1.0000
  C   C267      1.0  0.34244  0.78236  0.50673  1.0000
  H   H255      1.0  0.46105  0.68405  0.63644  1.0000
  C   C268      1.0  0.02573  0.98272  0.66668  1.0000
  H   H256      1.0  0.43966  0.71977  0.52478  1.0000
  C   C269      1.0  0.29586  0.98184  0.52807  1.0000
  S   S95       1.0  0.13657  0.99501  0.71733  1.0000
  C   C270      1.0  0.44469  0.71183  0.54922  1.0000
  H   H257      1.0  0.29526  0.99937  0.57719  1.0000
  H   H258      1.0  0.13459  0.90577  0.74070  1.0000
  C   C271      1.0  0.46589  0.81445  0.92205  1.0000
  H   H259      1.0  0.26964  0.94686  0.96788  1.0000
  C   C272      1.0  0.37748  0.74563  0.97068  1.0000
  H   H260      1.0  0.40483  0.72690  0.64437  1.0000
  H   H261      1.0  0.42295  0.82006  0.89125  1.0000
  C   C273      1.0  0.05047  0.98909  0.64356  1.0000
  H   H262      1.0  0.37949  0.98212  0.56041  1.0000
  H   H263      1.0  0.07593  0.99311  0.65143  1.0000
  N   N19       1.0  0.09215  0.91358  0.71009  1.0000
  C   C274      1.0  0.12572  0.91273  0.71693  1.0000
  C   C275      1.0  0.08122  0.92234  0.68006  1.0000
  C   C276      1.0  0.14926  0.92140  0.69357  1.0000
  C   C277      1.0  0.10405  0.93127  0.65619  1.0000
  C   C278      1.0  0.13828  0.93091  0.66311  1.0000
  H   H264      1.0  0.39508  0.73903  0.95203  1.0000
  C   C279      1.0  0.37863  0.97513  0.50844  1.0000
  C   C280      1.0  0.06757  0.90421  0.73451  1.0000
  C   C281      1.0  0.39162  0.98817  0.97860  1.0000
  H   H265      1.0  0.45095  0.80969  0.94356  1.0000
  H   H266      1.0  0.15625  0.93826  0.64505  1.0000
  C   C282      1.0  0.45154  0.83322  0.83440  1.0000
  H   H267      1.0  0.50591  0.90506  0.81842  1.0000
  H   H268      1.0  0.09509  0.93887  0.63271  1.0000
  N   N20       1.0  0.46857  0.82718  0.86532  1.0000
  S   S96       1.0  0.37941  0.93690  0.51228  1.0000
  C   C283      1.0  0.48096  0.68816  0.58803  1.0000
  H   H269      1.0  0.31867  0.76982  0.55192  1.0000
  H   H270      1.0  0.44832  0.81281  0.82028  1.0000
  H   H271      1.0  0.06186  0.99382  0.59231  1.0000
  H   H272      1.0  0.39725  0.72592  0.56807  1.0000
  C   C284      1.0  0.45627  0.69182  0.61192  1.0000
  C   C285      1.0  0.47494  0.69799  0.55640  1.0000
  N   N21       1.0  0.42616  0.70429  0.60433  1.0000
  N   N22       1.0  0.30196  0.98355  0.96943  1.0000
  H   H273      1.0  0.17581  0.92123  0.69943  1.0000
  H   H274      1.0  0.05720  0.88260  0.72773  1.0000
  C   C286      1.0  0.31075  0.99294  0.93896  1.0000
  H   H275      1.0  0.33544  0.80503  0.50885  1.0000
  H   H276      1.0  0.49369  0.69489  0.53755  1.0000
  H   H277      1.0  0.07885  0.90270  0.75924  1.0000
  H   H278      1.0  0.25976  0.98419  0.76164  1.0000
  H   H279      1.0  0.31332  0.97746  0.91905  1.0000
  H   H280      1.0  0.51332  0.81113  0.94686  1.0000
  H   H281      1.0  0.03427  0.96273  0.83018  1.0000
  Fe  Fe48      1.0  0.08313  0.99237  0.73469  1.0000
  C   C287      1.0  0.50285  0.82716  0.86663  1.0000
  H   H282      1.0  0.37480  0.70844  0.61853  1.0000
  C   C288      1.0  0.45973  0.98203  0.49623  1.0000
  C   C289      1.0  0.50080  0.81506  0.92382  1.0000
  H   H283      1.0  0.01970  0.98998  0.77974  1.0000
  H   H284      1.0  0.04977  0.98798  0.50512  1.0000
  H   H285      1.0  0.05380  0.99724  0.91995  1.0000
  C   C290      1.0  0.36025  0.72334  0.50175  1.0000
  H   H286      1.0  0.50437  0.67734  0.59400  1.0000
  H   H287      1.0  0.36719  0.70065  0.49962  1.0000
  C   C291      1.0  0.51389  0.90060  0.84312  1.0000
  H   H288      1.0  0.37638  0.70315  0.99359  1.0000
  N   N23       1.0  0.63520  0.28725  0.35312  1.0000
  S   S97       1.0  0.81871  0.07802  0.02242  1.0000
  Fe  Fe49      1.0  0.92700  0.02563  0.47288  1.0000
  S   S98       1.0  0.94737  0.04746  0.42689  1.0000
  C   C292      1.0  0.61402  0.30992  0.35963  1.0000
  N   N24       1.0  0.55099  0.19756  0.14592  1.0000
  Fe  Fe50      1.0  0.69618  0.12049  0.16800  1.0000
  S   S99       1.0  0.68697  0.13660  0.21934  1.0000
  S   S100      1.0  0.74835  0.10204  0.15861  1.0000
  Fe  Fe51      1.0  0.62179  0.12561  0.15053  1.0000
  S   S101      1.0  0.60768  0.14038  0.20065  1.0000
  S   S102      1.0  0.58340  0.12280  0.10988  1.0000
  Fe  Fe52      1.0  0.65247  0.16996  0.19719  1.0000
  S   S103      1.0  0.63789  0.21730  0.20733  1.0000
  Fe  Fe53      1.0  0.64314  0.10590  0.21803  1.0000
  S   S104      1.0  0.63333  0.07761  0.26208  1.0000
  S   S105      1.0  0.66538  0.15646  0.14568  1.0000
  S   S106      1.0  0.65363  0.08846  0.16803  1.0000
  S   S107      1.0  0.69946  0.31208  0.30455  1.0000
  C   C293      1.0  0.65640  0.24350  0.23372  1.0000
  C   C294      1.0  0.68375  0.23697  0.25373  1.0000
  C   C295      1.0  0.69711  0.25844  0.27469  1.0000
  C   C296      1.0  0.68323  0.28657  0.27602  1.0000
  C   C297      1.0  0.65591  0.29311  0.25597  1.0000
  C   C298      1.0  0.64262  0.27168  0.23496  1.0000
  H   H289      1.0  0.69465  0.21543  0.25302  1.0000
  H   H290      1.0  0.71827  0.25317  0.29008  1.0000
  H   H291      1.0  0.64497  0.31463  0.25672  1.0000
  H   H292      1.0  0.62155  0.27701  0.21951  1.0000
  C   C299      1.0  0.63275  0.03935  0.25796  1.0000
  C   C300      1.0  0.63166  0.02211  0.28612  1.0000
  C   C301      1.0  0.63518  0.02582  0.22746  1.0000
  H   H293      1.0  0.62938  0.03237  0.30979  1.0000
  H   H294      1.0  0.63534  0.03877  0.20557  1.0000
  C   C302      1.0  0.53031  0.11947  0.15280  1.0000
  S   S108      1.0  0.87449  0.01017  0.04754  1.0000
  H   H295      1.0  0.91318  0.08654  0.12321  1.0000
  S   S109      1.0  0.96075  0.03528  0.08840  1.0000
  H   H296      1.0  0.54864  0.11590  0.17171  1.0000
  C   C303      1.0  0.98015  0.03221  0.40315  1.0000
  C   C304      1.0  0.71365  0.04407  0.28284  1.0000
  H   H297      1.0  0.67742  0.30500  0.37783  1.0000
  C   C305      1.0  0.71444  0.02677  0.31091  1.0000
  C   C306      1.0  0.57750  0.29449  0.31601  1.0000
  C   C307      1.0  0.79641  0.08107  0.05963  1.0000
  C   C308      1.0  0.76804  0.09915  0.06116  1.0000
  C   C309      1.0  0.75179  0.10453  0.09109  1.0000
  C   C310      1.0  0.76402  0.09204  0.11978  1.0000
  C   C311      1.0  0.79165  0.07312  0.11803  1.0000
  C   C312      1.0  0.80765  0.06749  0.08807  1.0000
  H   H298      1.0  0.75912  0.10970  0.03925  1.0000
  H   H299      1.0  0.73061  0.11921  0.09214  1.0000
  H   H300      1.0  0.80122  0.06333  0.14010  1.0000
  H   H301      1.0  0.82926  0.05335  0.08720  1.0000
  H   H302      1.0  0.65938  0.27259  0.39612  1.0000
  H   H303      1.0  0.58822  0.18809  0.11015  1.0000
  H   H304      1.0  0.89161  0.06781  0.09077  1.0000
  C   C313      1.0  0.59884  0.27103  0.31003  1.0000
  H   H305      1.0  0.52815  0.19785  0.09891  1.0000
  C   C314      1.0  0.71531  0.05022  0.22349  1.0000
  S   S110      1.0  0.87209  0.02478  0.48710  1.0000
  H   H306      1.0  0.56765  0.06316  0.08541  1.0000
  S   S111      1.0  0.91828  0.06335  0.01473  1.0000
  C   C315      1.0  0.00217  0.02960  0.14140  1.0000
  H   H307      1.0  0.55541  0.29777  0.30105  1.0000
  H   H308      1.0  0.59372  0.25599  0.29019  1.0000
  C   C316      1.0  0.98622  0.01491  0.11554  1.0000
  H   H309      1.0  0.64438  0.24961  0.32387  1.0000
  C   C317      1.0  0.52425  0.19679  0.12506  1.0000
  H   H310      1.0  0.56854  0.33228  0.34604  1.0000
  H   H311      1.0  0.56729  0.19734  0.19549  1.0000
  H   H312      1.0  0.61981  0.32534  0.37890  1.0000
  H   H313      1.0  0.60410  0.19341  0.15030  1.0000
  H   H314      1.0  0.92229  0.09547  0.08178  1.0000
  H   H315      1.0  0.99808  0.05271  0.14460  1.0000
  H   H316      1.0  0.55718  0.02742  0.10122  1.0000
  C   C318      1.0  0.62759  0.26757  0.32914  1.0000
  C   C319      1.0  0.90173  0.08922  0.09871  1.0000
  C   C320      1.0  0.66556  0.28353  0.37279  1.0000
  H   H317      1.0  0.98173  0.06839  0.36975  1.0000
  H   H318      1.0  0.00748  0.08656  0.44463  1.0000
  N   N25       1.0  0.71542  0.03163  0.25255  1.0000
  C   C321      1.0  0.55004  0.05076  0.10122  1.0000
  N   N26       1.0  0.87496  0.11106  0.09876  1.0000
  C   C322      1.0  0.85794  0.11711  0.12697  1.0000
  C   C323      1.0  0.86557  0.12373  0.07003  1.0000
  C   C324      1.0  0.83102  0.13662  0.12692  1.0000
  C   C325      1.0  0.83880  0.14336  0.06910  1.0000
  C   C326      1.0  0.82141  0.14976  0.09776  1.0000
  H   H319      1.0  0.86440  0.10618  0.14950  1.0000
  H   H320      1.0  0.87792  0.11785  0.04736  1.0000
  H   H321      1.0  0.69920  0.06965  0.22736  1.0000
  H   H322      1.0  0.83066  0.15244  0.04602  1.0000
  H   H323      1.0  0.79974  0.16402  0.09719  1.0000
  H   H324      1.0  0.58989  0.22449  0.12766  1.0000
  C   C327      1.0  0.58490  0.20117  0.13278  1.0000
  H   H325      1.0  0.70489  0.03859  0.20198  1.0000
  C   C328      1.0  0.54058  0.12324  0.12050  1.0000
  Fe  Fe54      1.0  0.86450  0.04911  0.01647  1.0000
  Fe  Fe55      1.0  0.92914  0.02264  0.04377  1.0000
  H   H326      1.0  0.81666  0.14050  0.14902  1.0000
  H   H327      1.0  0.52923  0.05345  0.03956  1.0000
  C   C329      1.0  0.58491  0.31391  0.34118  1.0000
  H   H328      1.0  0.74112  0.05768  0.21771  1.0000
  H   H329      1.0  0.55329  0.05971  0.12625  1.0000
  C   C330      1.0  0.99273  0.04765  0.37615  1.0000
  H   H330      1.0  0.71055  0.06744  0.28537  1.0000
  C   C331      1.0  0.54610  0.19613  0.17891  1.0000
  H   H331      1.0  0.95979  0.00837  0.32091  1.0000
  H   H332      1.0  0.52409  0.12961  0.07096  1.0000
  C   C332      1.0  0.99457  0.00546  0.41118  1.0000
  C   C333      1.0  0.51633  0.12694  0.09607  1.0000
  H   H333      1.0  0.98976  0.07290  0.48114  1.0000
  H   H334      1.0  0.96562  0.02244  0.26250  1.0000
  N   N27       1.0  0.51541  0.05407  0.08984  1.0000
  H   H335      1.0  0.68478  0.27061  0.35945  1.0000
  H   H336      1.0  0.71222  0.03665  0.33485  1.0000
  H   H337      1.0  0.80719  0.01468  0.01493  1.0000
  H   H338      1.0  0.76701  0.00496  0.03151  1.0000
  C   C334      1.0  0.01405  0.07774  0.46904  1.0000
  C   C335      1.0  0.97789  0.00302  0.27162  1.0000
  H   H339      1.0  0.71133  0.22454  0.59245  1.0000
  S   S112      1.0  0.86643  0.06122  0.57927  1.0000
  C   C336      1.0  0.75388  0.02075  0.52195  1.0000
  C   C337      1.0  0.60362  0.05745  0.75920  1.0000
  C   C338      1.0  0.60525  0.01346  0.79126  1.0000
  C   C339      1.0  0.74739  0.03299  0.61209  1.0000
  Fe  Fe56      1.0  0.69185  0.12279  0.63172  1.0000
  S   S113      1.0  0.70572  0.13980  0.68143  1.0000
  S   S114      1.0  0.72266  0.12010  0.58528  1.0000
  Fe  Fe57      1.0  0.61881  0.11137  0.65124  1.0000
  S   S115      1.0  0.62647  0.12732  0.70250  1.0000
  S   S116      1.0  0.57285  0.08928  0.63041  1.0000
  Fe  Fe58      1.0  0.65651  0.16388  0.68014  1.0000
  S   S117      1.0  0.64694  0.21240  0.68857  1.0000
  Fe  Fe59      1.0  0.67470  0.10202  0.69993  1.0000
  S   S118      1.0  0.69125  0.07364  0.74196  1.0000
  S   S119      1.0  0.64486  0.14946  0.62874  1.0000
  S   S120      1.0  0.66497  0.08346  0.65038  1.0000
  S   S121      1.0  0.69910  0.30331  0.79565  1.0000
  C   C340      1.0  0.66080  0.23676  0.71959  1.0000
  C   C341      1.0  0.68490  0.22890  0.74273  1.0000
  C   C342      1.0  0.69621  0.24950  0.76586  1.0000
  C   C343      1.0  0.68333  0.27805  0.76642  1.0000
  C   C344      1.0  0.65908  0.28581  0.74342  1.0000
  C   C345      1.0  0.64808  0.26532  0.72006  1.0000
  H   H340      1.0  0.69486  0.20702  0.74278  1.0000
  H   H341      1.0  0.71492  0.24323  0.78358  1.0000
  H   H342      1.0  0.64903  0.30767  0.74339  1.0000
  H   H343      1.0  0.62953  0.27169  0.70220  1.0000
  C   C346      1.0  0.68225  0.03597  0.74122  1.0000
  H   H344      1.0  0.97774  0.06396  0.86097  1.0000
  C   C347      1.0  0.66390  0.02342  0.71574  1.0000
  H   H345      1.0  0.70626  0.02808  0.78744  1.0000
  H   H346      1.0  0.65621  0.03652  0.69531  1.0000
  C   C348      1.0  0.78995  0.00911  0.57819  1.0000
  C   C349      1.0  0.77650  0.02413  0.96036  1.0000
  H   H347      1.0  0.55421  0.04892  0.69331  1.0000
  H   H348      1.0  0.54856  0.14051  0.66504  1.0000
  N   N28       1.0  0.76058  0.02440  0.58011  1.0000
  C   C350      1.0  0.53326  0.10621  0.63245  1.0000
  C   C351      1.0  0.61397  0.04266  0.78723  1.0000
  C   C352      1.0  0.98535  0.03953  0.90521  1.0000
  H   H349      1.0  0.67998  0.21065  0.62036  1.0000
  H   H350      1.0  0.74583  0.30945  0.85013  1.0000
  C   C353      1.0  0.82649  0.07763  0.58010  1.0000
  C   C354      1.0  0.81332  0.08662  0.61027  1.0000
  C   C355      1.0  0.78144  0.09955  0.61224  1.0000
  C   C356      1.0  0.76280  0.10409  0.58388  1.0000
  C   C357      1.0  0.77621  0.09567  0.55362  1.0000
  C   C358      1.0  0.80778  0.08210  0.55174  1.0000
  H   H351      1.0  0.82779  0.08330  0.63227  1.0000
  H   H352      1.0  0.77133  0.10595  0.63566  1.0000
  H   H353      1.0  0.76199  0.09936  0.53156  1.0000
  H   H354      1.0  0.55900  0.29316  0.85102  1.0000
  C   C359      1.0  0.78366  0.00494  0.51985  1.0000
  H   H355      1.0  0.81786  0.07548  0.52838  1.0000
  C   C360      1.0  0.76211  0.02553  0.92928  1.0000
  H   H356      1.0  0.61184  0.07974  0.75558  1.0000
  Fe  Fe60      1.0  0.92437  0.03501  0.97036  1.0000
  H   H357      1.0  0.80462  0.00481  0.59993  1.0000
  H   H358      1.0  0.96492  0.01520  0.77598  1.0000
  H   H359      1.0  0.70001  0.18633  0.59244  1.0000
  H   H360      1.0  0.71937  0.04257  0.55398  1.0000
  H   H361      1.0  0.00042  0.01300  0.94579  1.0000
  H   H362      1.0  0.75348  0.22002  0.70850  1.0000
  H   H363      1.0  0.73974  0.02565  0.50007  1.0000
  C   C361      1.0  0.74249  0.03018  0.55251  1.0000
  S   S122      1.0  0.94300  0.04082  0.52269  1.0000
  C   C362      1.0  0.99425  0.04928  0.87386  1.0000
  H   H364      1.0  0.92514  0.01300  0.82245  1.0000
  C   C363      1.0  0.57631  0.01492  0.73963  1.0000
  Fe  Fe61      1.0  0.88939  0.03468  0.53815  1.0000
  H   H365      1.0  0.73264  0.01486  0.62280  1.0000
  H   H366      1.0  0.76765  0.04366  0.91325  1.0000
  H   H367      1.0  0.52554  0.29749  0.91834  1.0000
  S   S123      1.0  0.86923  0.02517  0.96915  1.0000
  C   C364      1.0  0.69196  0.01858  0.76768  1.0000
  C   C365      1.0  0.76344  0.32746  0.85163  1.0000
  C   C366      1.0  0.00692  0.02064  0.92167  1.0000
  H   H368      1.0  0.62998  0.05344  0.80491  1.0000
  N   N29       1.0  0.58475  0.04362  0.73602  1.0000
  C   C367      1.0  0.52795  0.13099  0.65159  1.0000
  N   N30       1.0  0.73068  0.20032  0.63214  1.0000
  C   C368      1.0  0.73013  0.21462  0.66143  1.0000
  C   C369      1.0  0.75641  0.18178  0.62471  1.0000
  C   C370      1.0  0.75469  0.20919  0.68497  1.0000
  C   C371      1.0  0.78144  0.17585  0.64763  1.0000
  C   C372      1.0  0.78035  0.18948  0.67806  1.0000
  C   C373      1.0  0.70429  0.20583  0.60808  1.0000
  H   H369      1.0  0.71035  0.23005  0.66693  1.0000
  H   H370      1.0  0.75746  0.17114  0.60110  1.0000
  S   S124      1.0  0.94649  0.05060  0.92217  1.0000
  C   C374      1.0  0.57583  0.05912  0.70605  1.0000
  H   H371      1.0  0.56863  0.08203  0.71130  1.0000
  H   H372      1.0  0.77346  0.32175  0.90284  1.0000
  H   H373      1.0  0.80130  0.16053  0.64184  1.0000
  H   H374      1.0  0.56108  0.33218  0.84538  1.0000
  H   H375      1.0  0.91742  0.00488  0.88014  1.0000
  H   H376      1.0  0.79933  0.18477  0.69624  1.0000
  H   H377      1.0  0.73096  0.05248  0.61019  1.0000
  H   H378      1.0  0.79275  0.04172  0.96835  1.0000
  H   H379      1.0  0.57015  0.31730  0.88432  1.0000
  C   C375      1.0  0.55378  0.31455  0.86257  1.0000
  H   H380      1.0  0.59752  0.05922  0.68904  1.0000
  N   N31       1.0  0.51826  0.31663  0.87152  1.0000
  H   H381      1.0  0.76809  0.03882  0.62904  1.0000
  H   H382      1.0  0.56250  0.00360  0.72069  1.0000
  H   H383      1.0  0.73064  0.00324  0.89437  1.0000
  C   C376      1.0  0.97117  0.00290  0.79772  1.0000
  C   C377      1.0  0.74107  0.00310  0.91883  1.0000
  C   C378      1.0  0.77891  0.33438  0.88114  1.0000
  S   S125      1.0  0.87243  0.50685  0.03730  1.0000
  C   C379      1.0  0.75110  0.52591  0.04569  1.0000
  H   H384      1.0  0.58334  0.56346  0.15206  1.0000
  C   C380      1.0  0.78068  0.51454  0.48795  1.0000
  Fe  Fe62      1.0  0.92767  0.51716  0.03387  1.0000
  S   S126      1.0  0.96241  0.52858  0.07642  1.0000
  Fe  Fe63      1.0  0.69820  0.41560  0.34893  1.0000
  S   S127      1.0  0.70291  0.39928  0.29742  1.0000
  S   S128      1.0  0.73586  0.44976  0.36613  1.0000
  Fe  Fe64      1.0  0.62715  0.38962  0.35530  1.0000
  S   S129      1.0  0.62652  0.37241  0.30398  1.0000
  S   S130      1.0  0.58617  0.37993  0.39208  1.0000
  Fe  Fe65      1.0  0.67902  0.35762  0.31459  1.0000
  Fe  Fe66      1.0  0.65028  0.41555  0.29133  1.0000
  S   S131      1.0  0.63949  0.44179  0.24598  1.0000
  S   S132      1.0  0.67866  0.37259  0.36710  1.0000
  S   S133      1.0  0.64639  0.43389  0.34177  1.0000
  C   C381      1.0  0.54354  0.38356  0.38138  1.0000
  C   C382      1.0  0.53367  0.39791  0.35292  1.0000
  C   C383      1.0  0.76991  0.50107  0.05252  1.0000
  H   H385      1.0  0.55243  0.40628  0.33631  1.0000
  C   C384      1.0  0.78674  0.49905  0.99610  1.0000
  C   C385      1.0  0.62823  0.49357  0.27877  1.0000
  C   C386      1.0  0.63631  0.47994  0.24927  1.0000
  C   C387      1.0  0.64234  0.49702  0.22161  1.0000
  H   H386      1.0  0.62298  0.48061  0.30011  1.0000
  H   H387      1.0  0.64867  0.48661  0.19873  1.0000
  C   C388      1.0  0.51773  0.43269  0.44370  1.0000
  C   C389      1.0  0.99893  0.48018  0.09661  1.0000
  S   S134      1.0  0.91838  0.55816  0.00533  1.0000
  C   C390      1.0  0.57479  0.55682  0.17679  1.0000
  H   H388      1.0  0.01237  0.50133  0.26410  1.0000
  C   C391      1.0  0.82122  0.44551  0.44145  1.0000
  C   C392      1.0  0.81739  0.46953  0.42093  1.0000
  C   C393      1.0  0.79194  0.46983  0.39720  1.0000
  C   C394      1.0  0.76974  0.44627  0.39382  1.0000
  C   C395      1.0  0.77379  0.42195  0.41393  1.0000
  C   C396      1.0  0.79952  0.42157  0.43758  1.0000
  H   H389      1.0  0.83399  0.48794  0.42323  1.0000
  H   H390      1.0  0.78911  0.48871  0.38173  1.0000
  H   H391      1.0  0.75690  0.40363  0.41155  1.0000
  H   H392      1.0  0.80240  0.40276  0.45316  1.0000
  S   S135      1.0  0.66699  0.65447  0.13749  1.0000
  C   C397      1.0  0.74649  0.52501  0.44091  1.0000
  Fe  Fe67      1.0  0.93247  0.53159  0.46742  1.0000
  S   S136      1.0  0.97269  0.55106  0.43434  1.0000
  S   S137      1.0  0.87734  0.52679  0.45681  1.0000
  H   H393      1.0  0.52212  0.60658  0.07095  1.0000
  Fe  Fe68      1.0  0.69775  0.61892  0.16078  1.0000
  S   S138      1.0  0.69066  0.63673  0.21185  1.0000
  S   S139      1.0  0.74720  0.59597  0.15015  1.0000
  Fe  Fe69      1.0  0.62257  0.62508  0.14546  1.0000
  S   S140      1.0  0.61078  0.64221  0.19517  1.0000
  S   S141      1.0  0.58238  0.61606  0.10771  1.0000
  H   H394      1.0  0.95614  0.53687  0.18436  1.0000
  Fe  Fe70      1.0  0.64550  0.60742  0.21303  1.0000
  S   S142      1.0  0.63073  0.57951  0.25616  1.0000
  C   C398      1.0  0.53026  0.63097  0.14880  1.0000
  S   S143      1.0  0.65415  0.58831  0.16365  1.0000
  C   C399      1.0  0.63265  0.54120  0.25291  1.0000
  C   C400      1.0  0.62619  0.52410  0.28051  1.0000
  C   C401      1.0  0.64094  0.52749  0.22353  1.0000
  H   H395      1.0  0.61971  0.53448  0.30336  1.0000
  H   H396      1.0  0.64648  0.54020  0.20223  1.0000
  C   C402      1.0  0.53980  0.62077  0.11805  1.0000
  H   H397      1.0  0.73340  0.48383  0.21915  1.0000
  H   H398      1.0  0.58029  0.53336  0.18053  1.0000
  H   H399      1.0  0.73820  0.53739  0.06514  1.0000
  H   H400      1.0  0.70900  0.45904  0.26543  1.0000
  C   C403      1.0  0.99256  0.53383  0.40070  1.0000
  C   C404      1.0  0.98412  0.52213  0.22626  1.0000
  H   H401      1.0  0.98434  0.44687  0.18452  1.0000
  H   H402      1.0  0.71581  0.48929  0.42411  1.0000
  C   C405      1.0  0.71464  0.55697  0.26163  1.0000
  C   C406      1.0  0.80097  0.58316  0.05170  1.0000
  C   C407      1.0  0.77245  0.60108  0.05366  1.0000
  C   C408      1.0  0.75541  0.60503  0.08349  1.0000
  C   C409      1.0  0.76704  0.59134  0.11175  1.0000
  C   C410      1.0  0.79551  0.57339  0.10973  1.0000
  C   C411      1.0  0.81231  0.56920  0.07987  1.0000
  H   H403      1.0  0.76354  0.61204  0.03202  1.0000
  H   H404      1.0  0.73365  0.61902  0.08473  1.0000
  H   H405      1.0  0.80479  0.56282  0.13147  1.0000
  H   H406      1.0  0.83422  0.55538  0.07873  1.0000
  H   H407      1.0  0.73724  0.55693  0.00905  1.0000
  N   N32       1.0  0.76846  0.48670  0.48874  1.0000
  H   H408      1.0  0.73850  0.53974  0.42180  1.0000
  S   S144      1.0  0.82058  0.57765  0.01333  1.0000
  H   H409      1.0  0.98498  0.54336  0.23785  1.0000
  C   C412      1.0  0.78771  0.48740  0.02755  1.0000
  C   C413      1.0  0.74484  0.47785  0.46664  1.0000
  C   C414      1.0  0.52665  0.57160  0.21010  1.0000
  H   H410      1.0  0.99771  0.42884  0.24573  1.0000
  H   H411      1.0  0.77127  0.49282  0.07724  1.0000
  Fe  Fe71      1.0  0.86404  0.54614  0.00621  1.0000
  C   C415      1.0  0.00482  0.49118  0.36759  1.0000
  H   H412      1.0  0.74068  0.47246  0.29334  1.0000
  S   S145      1.0  0.85170  0.44523  0.47304  1.0000
  H   H413      1.0  0.70832  0.57739  0.27348  1.0000
  H   H414      1.0  0.01230  0.51547  0.02945  1.0000
  H   H415      1.0  0.72637  0.57696  0.21544  1.0000
  H   H416      1.0  0.70393  0.53098  0.30383  1.0000
  H   H417      1.0  0.73876  0.53012  0.18815  1.0000
  H   H418      1.0  0.99214  0.56284  0.02168  1.0000
  C   C416      1.0  0.71625  0.47746  0.28160  1.0000
  C   C417      1.0  0.96783  0.51847  0.19641  1.0000
  C   C418      1.0  0.98359  0.46779  0.19680  1.0000
  H   H419      1.0  0.54358  0.57559  0.23038  1.0000
  C   C419      1.0  0.72438  0.55673  0.22896  1.0000
  H   H420      1.0  0.69676  0.47867  0.30094  1.0000
  H   H421      1.0  0.52643  0.36134  0.42455  1.0000
  H   H422      1.0  0.00035  0.46845  0.36211  1.0000
  H   H423      1.0  0.58969  0.56966  0.19466  1.0000
  H   H424      1.0  0.95544  0.48822  0.15806  1.0000
  H   H425      1.0  0.98467  0.46759  0.07914  1.0000
  H   H426      1.0  0.54427  0.42775  0.44151  1.0000
  H   H427      1.0  0.01185  0.47136  0.49002  1.0000
  N   N33       1.0  0.99938  0.47153  0.22611  1.0000
  Fe  Fe72      1.0  0.88108  0.48602  0.48661  1.0000
  H   H428      1.0  0.96851  0.49228  0.40684  1.0000
  C   C420      1.0  0.73355  0.49683  0.44238  1.0000
  C   C421      1.0  0.99971  0.49824  0.24095  1.0000
  H   H429      1.0  0.54895  0.63613  0.16678  1.0000
  C   C422      1.0  0.73130  0.53031  0.21362  1.0000
  C   C423      1.0  0.72826  0.50435  0.23126  1.0000
  H   H430      1.0  0.80293  0.46832  0.03250  1.0000
  C   C424      1.0  0.99325  0.51010  0.09961  1.0000
  H   H431      1.0  0.00779  0.54928  0.12499  1.0000
  C   C425      1.0  0.75055  0.53682  0.01384  1.0000
  N   N34       1.0  0.71842  0.50477  0.26325  1.0000
  C   C426      1.0  0.71197  0.53064  0.27857  1.0000
  C   C427      1.0  0.96729  0.49110  0.18168  1.0000
  N   N35       1.0  0.53885  0.56218  0.18073  1.0000
  C   C428      1.0  0.77009  0.53403  0.46391  1.0000
  C   C429      1.0  0.98668  0.50463  0.39298  1.0000
  C   C430      1.0  0.01196  0.52610  0.12254  1.0000
  H   H432      1.0  0.52737  0.54950  0.13193  1.0000
  C   C431      1.0  0.51897  0.37266  0.40260  1.0000
  H   H433      1.0  0.78036  0.55592  0.46310  1.0000
  H   H434      1.0  0.73536  0.45572  0.46701  1.0000
  C   C432      1.0  0.00588  0.56652  0.99842  1.0000
  C   C433      1.0  0.51758  0.55672  0.15528  1.0000
  C   C434      1.0  0.51496  0.61441  0.09487  1.0000
  S   S146      1.0  0.86871  0.50776  0.53443  1.0000
  C   C435      1.0  0.79707  0.38609  0.79723  1.0000
  C   C436      1.0  0.89178  0.58875  0.59845  1.0000
  C   C437      1.0  0.85059  0.62361  0.61341  1.0000
  Fe  Fe73      1.0  0.92426  0.51545  0.53973  1.0000
  S   S147      1.0  0.94775  0.52226  0.58997  1.0000
  Fe  Fe74      1.0  0.70605  0.40432  0.84359  1.0000
  S   S148      1.0  0.70618  0.38962  0.79119  1.0000
  S   S149      1.0  0.75292  0.43012  0.85748  1.0000
  Fe  Fe75      1.0  0.63336  0.38378  0.85228  1.0000
  S   S150      1.0  0.62825  0.36812  0.80053  1.0000
  S   S151      1.0  0.59291  0.37791  0.89061  1.0000
  Fe  Fe76      1.0  0.67967  0.34903  0.80773  1.0000
  Fe  Fe77      1.0  0.65524  0.41004  0.78832  1.0000
  S   S152      1.0  0.64379  0.43845  0.74453  1.0000
  S   S153      1.0  0.68341  0.36220  0.86069  1.0000
  S   S154      1.0  0.65631  0.42701  0.83959  1.0000
  C   C438      1.0  0.55078  0.38710  0.88259  1.0000
  C   C439      1.0  0.54059  0.39776  0.85225  1.0000
  C   C440      1.0  0.86598  0.58603  0.65158  1.0000
  H   H435      1.0  0.55901  0.40152  0.83333  1.0000
  H   H436      1.0  0.79048  0.55135  0.95502  1.0000
  C   C441      1.0  0.64475  0.48991  0.77942  1.0000
  C   C442      1.0  0.64940  0.47635  0.74919  1.0000
  C   C443      1.0  0.65517  0.49357  0.72153  1.0000
  H   H437      1.0  0.63981  0.47697  0.80082  1.0000
  H   H438      1.0  0.65893  0.48324  0.69809  1.0000
  C   C444      1.0  0.98373  0.50642  0.60824  1.0000
  H   H439      1.0  0.98466  0.48559  0.79480  1.0000
  C   C445      1.0  0.77955  0.46663  0.51428  1.0000
  H   H440      1.0  0.78197  0.40633  0.79962  1.0000
  C   C446      1.0  0.99837  0.48086  0.59634  1.0000
  C   C447      1.0  0.82148  0.43898  0.94723  1.0000
  C   C448      1.0  0.82597  0.45640  0.91966  1.0000
  C   C449      1.0  0.80423  0.45368  0.89285  1.0000
  C   C450      1.0  0.77746  0.43380  0.89329  1.0000
  C   C451      1.0  0.77249  0.41666  0.92106  1.0000
  C   C452      1.0  0.79464  0.41908  0.94781  1.0000
  H   H441      1.0  0.84670  0.47154  0.91863  1.0000
  H   H442      1.0  0.80840  0.46694  0.87143  1.0000
  H   H443      1.0  0.75196  0.40127  0.92172  1.0000
  H   H444      1.0  0.79895  0.52179  0.50577  1.0000
  H   H445      1.0  0.81251  0.36403  0.90569  1.0000
  H   H446      1.0  0.00595  0.51052  0.52661  1.0000
  Fe  Fe78      1.0  0.92385  0.53028  0.96056  1.0000
  S   S155      1.0  0.95578  0.54984  0.91981  1.0000
  S   S156      1.0  0.86815  0.52231  0.95837  1.0000
  H   H447      1.0  0.59780  0.49756  0.63440  1.0000
  Fe  Fe79      1.0  0.70261  0.62313  0.65940  1.0000
  S   S157      1.0  0.69620  0.63643  0.71224  1.0000
  S   S158      1.0  0.75578  0.60988  0.64517  1.0000
  Fe  Fe80      1.0  0.62709  0.62351  0.64726  1.0000
  S   S159      1.0  0.61578  0.63586  0.69871  1.0000
  S   S160      1.0  0.58619  0.61360  0.61032  1.0000
  H   H448      1.0  0.74554  0.54779  0.95118  1.0000
  Fe  Fe81      1.0  0.65487  0.60336  0.71258  1.0000
  S   S161      1.0  0.64509  0.57579  0.75713  1.0000
  S   S162      1.0  0.92232  0.55788  0.51272  1.0000
  S   S163      1.0  0.66323  0.58816  0.66138  1.0000
  C   C453      1.0  0.64943  0.53766  0.75391  1.0000
  C   C454      1.0  0.64469  0.52045  0.78174  1.0000
  C   C455      1.0  0.65535  0.52412  0.72389  1.0000
  H   H449      1.0  0.64018  0.53072  0.80509  1.0000
  H   H450      1.0  0.65925  0.53709  0.70231  1.0000
  C   C456      1.0  0.54325  0.61755  0.62023  1.0000
  H   H451      1.0  0.53899  0.49835  0.74481  1.0000
  H   H452      1.0  0.89450  0.64489  0.56105  1.0000
  N   N36       1.0  0.99246  0.47406  0.74512  1.0000
  H   H453      1.0  0.55141  0.63266  0.66926  1.0000
  C   C457      1.0  0.98197  0.53072  0.89209  1.0000
  C   C458      1.0  0.58861  0.54104  0.65199  1.0000
  H   H454      1.0  0.82854  0.61882  0.66120  1.0000
  C   C459      1.0  0.84699  0.61058  0.64402  1.0000
  C   C460      1.0  0.59059  0.51085  0.65511  1.0000
  C   C461      1.0  0.80239  0.58606  0.54667  1.0000
  C   C462      1.0  0.80832  0.56882  0.57413  1.0000
  C   C463      1.0  0.79160  0.57485  0.60363  1.0000
  C   C464      1.0  0.76880  0.59808  0.60601  1.0000
  C   C465      1.0  0.76175  0.61445  0.57812  1.0000
  C   C466      1.0  0.77849  0.60845  0.54861  1.0000
  H   H455      1.0  0.82663  0.55153  0.57306  1.0000
  H   H456      1.0  0.79736  0.56218  0.62512  1.0000
  H   H457      1.0  0.74463  0.63266  0.57971  1.0000
  H   H458      1.0  0.77368  0.62188  0.52747  1.0000
  C   C467      1.0  0.97637  0.47702  0.71584  1.0000
  H   H459      1.0  0.56703  0.55775  0.72975  1.0000
  S   S164      1.0  0.82594  0.58180  0.51033  1.0000
  H   H460      1.0  0.00952  0.46276  0.87234  1.0000
  H   H461      1.0  0.01127  0.50990  0.77207  1.0000
  H   H462      1.0  0.90948  0.57999  0.58091  1.0000
  C   C468      1.0  0.99697  0.51932  0.63659  1.0000
  H   H463      1.0  0.61996  0.63385  0.77344  1.0000
  H   H464      1.0  0.96878  0.45919  0.66757  1.0000
  H   H465      1.0  0.80148  0.48895  0.97709  1.0000
  S   S165      1.0  0.84882  0.44184  0.98125  1.0000
  H   H466      1.0  0.76256  0.46803  0.53565  1.0000
  C   C469      1.0  0.53302  0.62705  0.65107  1.0000
  H   H467      1.0  0.82276  0.39363  0.85647  1.0000
  H   H468      1.0  0.67535  0.62492  0.78946  1.0000
  C   C470      1.0  0.98488  0.50041  0.89277  1.0000
  H   H469      1.0  0.85174  0.63521  0.55046  1.0000
  Fe  Fe82      1.0  0.86779  0.54859  0.50508  1.0000
  H   H470      1.0  0.53438  0.37392  0.93039  1.0000
  C   C471      1.0  0.98837  0.49613  0.77066  1.0000
  H   H471      1.0  0.86276  0.57532  0.67493  1.0000
  H   H472      1.0  0.58543  0.47447  0.68764  1.0000
  H   H473      1.0  0.82392  0.39217  0.79507  1.0000
  S   S166      1.0  0.66712  0.65782  0.64093  1.0000
  H   H474      1.0  0.59405  0.55148  0.62881  1.0000
  C   C472      1.0  0.76906  0.53591  0.95672  1.0000
  H   H475      1.0  0.77222  0.51871  0.93782  1.0000
  C   C473      1.0  0.77003  0.34444  0.82408  1.0000
  H   H476      1.0  0.78951  0.37497  0.77430  1.0000
  H   H477      1.0  0.90353  0.55590  0.63418  1.0000
  H   H478      1.0  0.57839  0.58139  0.67665  1.0000
  H   H479      1.0  0.60210  0.65720  0.80416  1.0000
  N   N37       1.0  0.57509  0.51474  0.71162  1.0000
  C   C474      1.0  0.58344  0.49795  0.68524  1.0000
  C   C475      1.0  0.57320  0.54437  0.70877  1.0000
  N   N38       1.0  0.87250  0.61244  0.59096  1.0000
  C   C476      1.0  0.57983  0.55792  0.67893  1.0000
  H   H480      1.0  0.83484  0.64207  0.60735  1.0000
  C   C477      1.0  0.56657  0.50090  0.74273  1.0000
  N   N39       1.0  0.79157  0.36759  0.82585  1.0000
  H   H481      1.0  0.79085  0.40560  0.96911  1.0000
  C   C478      1.0  0.51880  0.61090  0.59670  1.0000
  C   C479      1.0  0.87625  0.62673  0.55923  1.0000
  C   C480      1.0  0.67880  0.64787  0.79487  1.0000
  H   H482      1.0  0.98821  0.47047  0.57481  1.0000
  C   C481      1.0  0.00253  0.43306  0.69616  1.0000
  H   H483      1.0  0.97010  0.48793  0.90991  1.0000
  H   H484      1.0  0.88491  0.61111  0.54028  1.0000
  H   H485      1.0  0.98591  0.53912  0.64597  1.0000
  C   C482      1.0  0.88864  0.57506  0.62874  1.0000
  C   C483      1.0  0.71066  0.65775  0.80397  1.0000
  H   H486      1.0  0.99948  0.57007  0.86906  1.0000
  H   H487      1.0  0.73148  0.64262  0.80537  1.0000
  C   C484      1.0  0.01369  0.45117  0.75031  1.0000
  C   C485      1.0  0.00151  0.54659  0.86972  1.0000
  H   H488      1.0  0.52647  0.60358  0.57274  1.0000
  N   N40       1.0  0.65259  0.66693  0.79231  1.0000
  H   H489      1.0  0.57592  0.51414  0.76355  1.0000
  H   H490      1.0  0.57848  0.47908  0.74499  1.0000
  H   H491      1.0  0.99753  0.54198  0.50179  1.0000
  S   S167      1.0  0.93728  0.48932  0.49479  1.0000
  C   C486      1.0  0.61923  0.65656  0.78286  1.0000
  H   H492      1.0  0.00771  0.41784  0.67652  1.0000
  C   C487      1.0  0.52666  0.38225  0.90690  1.0000
  H   H493      1.0  0.96050  0.49568  0.71116  1.0000
  H   H494      1.0  0.80558  0.47166  0.52214  1.0000
  Fe  Fe83      1.0  0.87923  0.48332  0.98930  1.0000
  H   H495      1.0  0.78021  0.44386  0.50503  1.0000
  S   S168      1.0  0.93577  0.48966  0.98881  1.0000
  H   H496      1.0  0.98757  0.57546  0.98058  1.0000
  C   C488      1.0  0.98079  0.45637  0.69111  1.0000
  C   C489      1.0  0.00733  0.48622  0.87148  1.0000
  C   C490      1.0  0.80683  0.37453  0.85470  1.0000
  Fe  Fe84      1.0  0.65780  0.66828  0.69411  1.0000
  H   H497      1.0  0.96642  0.51041  0.76623  1.0000
  C   C491      1.0  0.80090  0.35797  0.88272  1.0000
  N   N41       1.0  0.76809  0.52326  0.98951  1.0000
  H   H498      1.0  0.75734  0.33919  0.80142  1.0000
  C   C492      1.0  0.71719  0.99661  0.30783  1.0000
  H   H499      1.0  0.00037  0.99192  0.22537  1.0000
  H   H500      1.0  0.98875  0.96453  0.34126  1.0000
  C   C493      1.0  0.63432  0.99167  0.28394  1.0000
  H   H501      1.0  0.51724  0.84387  0.34120  1.0000
  H   H502      1.0  0.78149  0.91235  0.47610  1.0000
  S   S169      1.0  0.64712  0.71895  0.19602  1.0000
  Fe  Fe85      1.0  0.70764  0.90935  0.34955  1.0000
  S   S170      1.0  0.70577  0.89214  0.29818  1.0000
  S   S171      1.0  0.75587  0.93417  0.36068  1.0000
  Fe  Fe86      1.0  0.63439  0.89173  0.36130  1.0000
  S   S172      1.0  0.62712  0.87407  0.31074  1.0000
  S   S173      1.0  0.59480  0.88657  0.40033  1.0000
  Fe  Fe87      1.0  0.67765  0.85354  0.31775  1.0000
  S   S174      1.0  0.69101  0.80562  0.31056  1.0000
  Fe  Fe88      1.0  0.65568  0.91426  0.29554  1.0000
  S   S175      1.0  0.64499  0.94037  0.25007  1.0000
  S   S176      1.0  0.68359  0.86892  0.36965  1.0000
  S   S177      1.0  0.65891  0.93356  0.34568  1.0000
  C   C494      1.0  0.55230  0.89286  0.39065  1.0000
  C   C495      1.0  0.54263  0.90412  0.36042  1.0000
  H   H503      1.0  0.62095  0.79021  0.31436  1.0000
  H   H504      1.0  0.56149  0.91019  0.34271  1.0000
  H   H505      1.0  0.55881  0.83256  0.38403  1.0000
  C   C496      1.0  0.65994  0.74262  0.22807  1.0000
  C   C497      1.0  0.67918  0.73298  0.25442  1.0000
  C   C498      1.0  0.68868  0.75262  0.27927  1.0000
  C   C499      1.0  0.67907  0.78206  0.27811  1.0000
  C   C500      1.0  0.65972  0.79171  0.25185  1.0000
  C   C501      1.0  0.65025  0.77208  0.22699  1.0000
  H   H506      1.0  0.68681  0.71042  0.25561  1.0000
  H   H507      1.0  0.70353  0.74486  0.29953  1.0000
  H   H508      1.0  0.65218  0.81430  0.25054  1.0000
  H   H509      1.0  0.63552  0.77981  0.20663  1.0000
  H   H510      1.0  0.61895  0.82482  0.39429  1.0000
  C   C502      1.0  0.63803  0.97821  0.25354  1.0000
  H   H511      1.0  0.79598  0.97715  0.01732  1.0000
  H   H512      1.0  0.63367  0.97873  0.30582  1.0000
  C   C503      1.0  0.99743  0.98600  0.25081  1.0000
  H   H513      1.0  0.52814  0.82863  0.28390  1.0000
  H   H514      1.0  0.80551  0.89601  0.27043  1.0000
  H   H515      1.0  0.75623  0.81305  0.27869  1.0000
  H   H516      1.0  0.61098  0.78610  0.39045  1.0000
  H   H517      1.0  0.77998  0.85237  0.24411  1.0000
  C   C504      1.0  0.81680  0.94285  0.45570  1.0000
  C   C505      1.0  0.78839  0.92469  0.45467  1.0000
  C   C506      1.0  0.76883  0.92234  0.42612  1.0000
  C   C507      1.0  0.77787  0.93784  0.39812  1.0000
  C   C508      1.0  0.80616  0.95611  0.39923  1.0000
  C   C509      1.0  0.82538  0.95880  0.42790  1.0000
  H   H518      1.0  0.58037  0.80115  0.27064  1.0000
  H   H519      1.0  0.74699  0.90838  0.42577  1.0000
  H   H520      1.0  0.81336  0.96824  0.37775  1.0000
  H   H521      1.0  0.84716  0.97286  0.42835  1.0000
  N   N42       1.0  0.78380  0.85837  0.33811  1.0000
  C   C510      1.0  0.79667  0.88028  0.31929  1.0000
  C   C511      1.0  0.76933  0.83454  0.32384  1.0000
  C   C512      1.0  0.78362  0.86118  0.37373  1.0000
  H   H522      1.0  0.80721  0.89961  0.33059  1.0000
  H   H523      1.0  0.75802  0.81761  0.33866  1.0000
  H   H524      1.0  0.75906  0.86993  0.38186  1.0000
  H   H525      1.0  0.78800  0.83982  0.38562  1.0000
  H   H526      1.0  0.80348  0.87637  0.38237  1.0000
  C   C513      1.0  0.99179  0.98506  0.11165  1.0000
  S   S178      1.0  0.93615  0.97840  0.48319  1.0000
  H   H527      1.0  0.64026  0.98508  0.20164  1.0000
  C   C514      1.0  0.97448  0.99508  0.30428  1.0000
  C   C515      1.0  0.61768  0.80618  0.37693  1.0000
  C   C516      1.0  0.57574  0.68964  0.10047  1.0000
  C   C517      1.0  0.79573  0.87840  0.28523  1.0000
  C   C518      1.0  0.57530  0.80811  0.29547  1.0000
  S   S179      1.0  0.84116  0.94456  0.49187  1.0000
  C   C519      1.0  0.58652  0.70022  0.13058  1.0000
  C   C520      1.0  0.59836  0.80216  0.32026  1.0000
  H   H528      1.0  0.53487  0.87602  0.43665  1.0000
  C   C521      1.0  0.76817  0.83186  0.28986  1.0000
  C   C522      1.0  0.99093  0.97023  0.31569  1.0000
  C   C523      1.0  0.53993  0.83201  0.33502  1.0000
  H   H529      1.0  0.64324  0.80364  0.36645  1.0000
  C   C524      1.0  0.78141  0.85397  0.27048  1.0000
  H   H530      1.0  0.71726  0.98287  0.32936  1.0000
  N   N43       1.0  0.59282  0.81177  0.35139  1.0000
  H   H531      1.0  0.57146  0.71776  0.17692  1.0000
  H   H532      1.0  0.61307  0.70100  0.13633  1.0000
  C   C525      1.0  0.52757  0.88498  0.41332  1.0000
  C   C526      1.0  0.54605  0.82341  0.30292  1.0000
  C   C527      1.0  0.52884  0.70843  0.14569  1.0000
  C   C528      1.0  0.63781  0.99536  0.22527  1.0000
  C   C529      1.0  0.71905  0.98413  0.27686  1.0000
  H   H533      1.0  0.71991  0.96064  0.27419  1.0000
  N   N44       1.0  0.01034  0.95384  0.29521  1.0000
  H   H534      1.0  0.98531  0.99338  0.43189  1.0000
  C   C530      1.0  0.56362  0.82572  0.35914  1.0000
  C   C531      1.0  0.56302  0.70966  0.15340  1.0000
  H   H535      1.0  0.97964  0.97345  0.09193  1.0000
  Fe  Fe89      1.0  0.88202  0.98666  0.99966  1.0000
  S   S180      1.0  0.93811  0.99488  0.99874  1.0000
  C   C532      1.0  0.54141  0.68875  0.09353  1.0000
  H   H536      1.0  0.59385  0.68145  0.08296  1.0000
  H   H537      1.0  0.53328  0.68001  0.07024  1.0000
  C   C533      1.0  0.78585  0.99931  0.01262  1.0000
  C   C534      1.0  0.71833  0.00208  0.24931  1.0000
  H   H538      1.0  0.71896  0.99211  0.22534  1.0000
  N   N45       1.0  0.51844  0.69785  0.11615  1.0000
  Fe  Fe90      1.0  0.65660  0.67017  0.18895  1.0000
  H   H539      1.0  0.01229  0.91543  0.32410  1.0000
  C   C535      1.0  0.01368  0.96139  0.26311  1.0000
  C   C536      1.0  0.01318  0.97018  0.13334  1.0000
  S   S181      1.0  0.89723  0.98799  0.55227  1.0000
  C   C537      1.0  0.68841  0.70636  0.80889  1.0000
  H   H540      1.0  0.68980  0.97600  0.78991  1.0000
  C   C538      1.0  0.65459  0.99393  0.71715  1.0000
  H   H541      1.0  0.81122  0.97709  0.88155  1.0000
  H   H542      1.0  0.95893  0.97530  0.61471  1.0000
  S   S182      1.0  0.64097  0.71166  0.71606  1.0000
  Fe  Fe91      1.0  0.71308  0.91166  0.84834  1.0000
  S   S183      1.0  0.71678  0.89844  0.79566  1.0000
  S   S184      1.0  0.75506  0.94168  0.86578  1.0000
  Fe  Fe92      1.0  0.64224  0.88620  0.85360  1.0000
  S   S185      1.0  0.64078  0.87129  0.80131  1.0000
  S   S186      1.0  0.60025  0.87898  0.89011  1.0000
  Fe  Fe93      1.0  0.69338  0.85581  0.81024  1.0000
  S   S187      1.0  0.71741  0.81471  0.78915  1.0000
  Fe  Fe94      1.0  0.66433  0.91488  0.79087  1.0000
  S   S188      1.0  0.64848  0.94072  0.74660  1.0000
  S   S189      1.0  0.69376  0.86768  0.86371  1.0000
  S   S190      1.0  0.66156  0.93106  0.84232  1.0000
  C   C539      1.0  0.55844  0.88900  0.88138  1.0000
  C   C540      1.0  0.54802  0.89531  0.84961  1.0000
  C   C541      1.0  0.80178  0.99905  0.54811  1.0000
  H   H543      1.0  0.56613  0.89557  0.82998  1.0000
  H   H544      1.0  0.54257  0.88408  0.93131  1.0000
  C   C542      1.0  0.66310  0.73998  0.73605  1.0000
  C   C543      1.0  0.64463  0.76267  0.75049  1.0000
  C   C544      1.0  0.66083  0.78545  0.76728  1.0000
  C   C545      1.0  0.69577  0.78585  0.76965  1.0000
  C   C546      1.0  0.71428  0.76314  0.75524  1.0000
  C   C547      1.0  0.69805  0.74029  0.73849  1.0000
  H   H545      1.0  0.61757  0.76260  0.74874  1.0000
  H   H546      1.0  0.64631  0.80281  0.77819  1.0000
  H   H547      1.0  0.74135  0.76330  0.75695  1.0000
  H   H548      1.0  0.71254  0.72293  0.72755  1.0000
  C   C548      1.0  0.71544  0.68722  0.81094  1.0000
  C   C549      1.0  0.66346  0.97679  0.74407  1.0000
  C   C550      1.0  0.98703  0.97216  0.85373  1.0000
  C   C551      1.0  0.74969  0.97882  0.97025  1.0000
  H   H549      1.0  0.63629  0.71093  0.79698  1.0000
  H   H550      1.0  0.71882  0.96187  0.93123  1.0000
  N   N46       1.0  0.77064  0.00071  0.98014  1.0000
  H   H551      1.0  0.99386  0.96067  0.87583  1.0000
  C   C552      1.0  0.00934  0.98468  0.59932  1.0000
  C   C553      1.0  0.99270  0.97790  0.65596  1.0000
  C   C554      1.0  0.82714  0.94274  0.95345  1.0000
  C   C555      1.0  0.80265  0.92075  0.95106  1.0000
  C   C556      1.0  0.78097  0.91925  0.92384  1.0000
  C   C557      1.0  0.78378  0.93974  0.89874  1.0000
  C   C558      1.0  0.80878  0.96121  0.90085  1.0000
  C   C559      1.0  0.83033  0.96267  0.92792  1.0000
  H   H552      1.0  0.80016  0.90501  0.97050  1.0000
  H   H553      1.0  0.76181  0.90261  0.92256  1.0000
  H   H554      1.0  0.97334  0.97290  0.67357  1.0000
  H   H555      1.0  0.69189  0.72941  0.81388  1.0000
  C   C560      1.0  0.93315  0.98492  0.87882  1.0000
  H   H556      1.0  0.74542  0.96005  0.98573  1.0000
  H   H557      1.0  0.60890  0.67047  0.76308  1.0000
  Fe  Fe95      1.0  0.88231  0.97825  0.50025  1.0000
  Fe  Fe96      1.0  0.94988  0.99351  0.53404  1.0000
  C   C561      1.0  0.98442  0.97927  0.62255  1.0000
  H   H558      1.0  0.61421  0.00138  0.81224  1.0000
  H   H559      1.0  0.58060  0.97642  0.76969  1.0000
  H   H560      1.0  0.74005  0.69527  0.81776  1.0000
  C   C562      1.0  0.58631  0.99944  0.76734  1.0000
  C   C563      1.0  0.51949  0.82119  0.89589  1.0000
  H   H561      1.0  0.63983  0.98455  0.69766  1.0000
  C   C564      1.0  0.53467  0.88881  0.90665  1.0000
  S   S191      1.0  0.00085  0.98316  0.55675  1.0000
  H   H562      1.0  0.84961  0.97909  0.92875  1.0000
  N   N47       1.0  0.71654  0.85637  0.71554  1.0000
  C   C565      1.0  0.69144  0.87661  0.71718  1.0000
  C   C566      1.0  0.70957  0.82831  0.70658  1.0000
  C   C567      1.0  0.65836  0.86891  0.70988  1.0000
  C   C568      1.0  0.67682  0.81992  0.69875  1.0000
  C   C569      1.0  0.65105  0.84035  0.70068  1.0000
  C   C570      1.0  0.75085  0.86417  0.72497  1.0000
  H   H563      1.0  0.69677  0.89881  0.72459  1.0000
  H   H564      1.0  0.72922  0.81200  0.70654  1.0000
  H   H565      1.0  0.63852  0.88499  0.71189  1.0000
  H   H566      1.0  0.67134  0.79745  0.69240  1.0000
  H   H567      1.0  0.62541  0.83395  0.69552  1.0000
  H   H568      1.0  0.75449  0.88815  0.72595  1.0000
  H   H569      1.0  0.75635  0.85522  0.74960  1.0000
  H   H570      1.0  0.76921  0.85515  0.70731  1.0000
  H   H571      1.0  0.91663  0.96562  0.87593  1.0000
  C   C571      1.0  0.68262  0.98906  0.76913  1.0000
  C   C572      1.0  0.00193  0.98861  0.79975  1.0000
  H   H572      1.0  0.54666  0.82251  0.89713  1.0000
  S   S192      1.0  0.85285  0.94514  0.98877  1.0000
  N   N48       1.0  0.95710  0.98657  0.85173  1.0000
  C   C573      1.0  0.73439  0.97980  0.93959  1.0000
  C   C574      1.0  0.00992  0.97305  0.82787  1.0000
  H   H573      1.0  0.79281  0.99722  0.49642  1.0000
  H   H574      1.0  0.82485  0.98668  0.54663  1.0000
  C   C575      1.0  0.65700  0.69579  0.79940  1.0000
  H   H575      1.0  0.94636  0.98356  0.90266  1.0000
  H   H576      1.0  0.51754  0.83282  0.84530  1.0000
  C   C576      1.0  0.94886  0.00158  0.82406  1.0000
