data_image0
_chemical_formula_structural       FeSH3FeSHS2HFeS2FeS2FeSFeS3CSH2C6H4C3H3C4HCH3C3FeSHCNC4HCH3CFeH2CSHNSCH4NH2C2H2C3H2C2HNC6H5C2HCFe2H2CSHC2HCFeS2FeS2FeSFeS3FeS2FeS2FeSFeS3C6H4CHC4H2CH5C2H5CH2C2SC3HC3HCHCHCHC2HC2HCH3C4HC2NH2C2H2C3H2NHCH2SHC2H3CHCHCNH2C2HCH2FeSHSH2SFeSHFeS2FeSFeS3CHNCH2C4HC3H2C6H8C2H3CHCHCHCNC3HCHC3HCH4CHC2H2CH2NC3FeSHC4H3CNH2C3H3SFeSHSHS2FeSHCSCFeSFe2S2FeSFeS3C3HC6H5FeCHC2SCHCHCNC3HCHCH2CH2C3HC2HC4HCH4SCNCHCH2CHC2HCHC2HSHCFeCH4CNCHCHFeHCHCH2CNHSFeS2FeSHFeSFeS3FeS2FeS2FeSFeS3C6H4C6H3C2H3C6HC2H3CHC2HC5H3NC6H8C4HC2H2CHCSHCHCHNHSCHCH4CH7CHSHC2HNC2NCHCSC2H2CHCHNH3CFeSCS2CSFeSHFeS2FeSFeS3C2H3C5HNH4C6H7C2HC2HC2H4CFeC2HCHSHCHCNH3C3HC6H3FeC2SCFeH2C2HNHSH5NCHFeHCHCH3FeCNFeHSFeSFeS3HCNSHS2CHFeSCHC2H2C2H2CHC2HCHC9H4CH2CFeNC6H10CH3C2HC2SHC2H2S3CH4SC2HCSHSCSHFeCSFeSH2CSCS2FeHSFeHC2HS2CSCH5NC2HSHSC2HNFeC6HCH3CFeCHCSCSCHC4HCH3CH2CH3C2NCHCHC4HC2HCSC4HCFeCHCHSC2H3CH3NH2FeH2C2H2SFe2S2CSNCFeS2FeCSFeHCNS2H3C4H4SC2H2C6HCH6FeCSHC3HC2H5CH3CSHFeCHC2H4CHCS2H2C2HNFeHC5HFeNH2C4SCSCH2C2H2SCNH2SCH3C2FeHCFeSCSNSCHCH2CSCHFeSC2HFeCHNH3C3SHC2H3C6H4FeHCSFeCH2SHC3SHFeCNHCHSCHC2HC2H3NCHSH3NHC8NHCH2CSCSH7C2H6CHSC6Fe2SFeSHC2SHSHFeCSFeCH3SC3SCH2CHNCNSC2HC2H3CHCHFeCH5CH3CHS2CSHC3H3SC2HC4H2SFeHSH5CHSFeHSCSC2HCHNC2H4CH4C3HSCFeSHCSH3S2FeHSFeCH4CHCNH2C2H2CHC2FeHC6HCH4C3HCFeHCNHCSCHC2HCHFeNH2SCSFeCHC2SCH3CHSHC2SHCSHCH3C3HCSC2H
_chemical_formula_sum              "Fe96 S192 H576 C576 N48"
_cell_length_a       29.2334
_cell_length_b       43.3304
_cell_length_c       63.3216
_cell_angle_alpha    90.3232
_cell_angle_beta     89.966
_cell_angle_gamma    90.0731

_space_group_name_H-M_alt    "P 1"
_space_group_IT_number       1

loop_
  _space_group_symop_operation_xyz
  'x, y, z'

loop_
  _atom_site_type_symbol
  _atom_site_label
  _atom_site_symmetry_multiplicity
  _atom_site_fract_x
  _atom_site_fract_y
  _atom_site_fract_z
  _atom_site_occupancy
  Fe  Fe1       1.0  0.02012  0.06278  0.24913  1.0000
  S   S1        1.0  0.07507  0.09852  0.24526  1.0000
  H   H1        1.0  0.03871  0.25456  0.16500  1.0000
  H   H2        1.0  0.39864  0.15593  0.97656  1.0000
  H   H3        1.0  0.23075  0.20761  0.03904  1.0000
  Fe  Fe2       1.0  0.05934  0.34939  0.12009  1.0000
  S   S2        1.0  0.11931  0.34507  0.09677  1.0000
  H   H4        1.0  0.10455  0.20919  0.22377  1.0000
  S   S3        1.0  0.01245  0.38950  0.11315  1.0000
  S   S4        1.0  0.06661  0.36231  0.15460  1.0000
  H   H5        1.0  0.18995  0.19728  0.01863  1.0000
  Fe  Fe3       1.0  0.40360  0.25773  0.02492  1.0000
  S   S5        1.0  0.40128  0.24007  0.05834  1.0000
  S   S6        1.0  0.44875  0.29441  0.01034  1.0000
  Fe  Fe4       1.0  0.33821  0.20918  0.00855  1.0000
  S   S7        1.0  0.33146  0.18768  0.04047  1.0000
  S   S8        1.0  0.30192  0.18502  0.98162  1.0000
  Fe  Fe5       1.0  0.32492  0.23628  0.05285  1.0000
  S   S9        1.0  0.26710  0.24008  0.07710  1.0000
  Fe  Fe6       1.0  0.40762  0.19285  0.04322  1.0000
  S   S10       1.0  0.44941  0.15365  0.05784  1.0000
  S   S11       1.0  0.32689  0.25739  0.02045  1.0000
  S   S12       1.0  0.41475  0.21075  0.01032  1.0000
  C   C1        1.0  0.27187  0.23950  0.96385  1.0000
  S   S13       1.0  0.03263  0.16149  0.20897  1.0000
  H   H6        1.0  0.29018  0.25131  0.97632  1.0000
  H   H7        1.0  0.03559  0.00838  0.16339  1.0000
  C   C2        1.0  0.16225  0.31649  0.09297  1.0000
  C   C3        1.0  0.16095  0.28797  0.10320  1.0000
  C   C4        1.0  0.19396  0.26520  0.09846  1.0000
  C   C5        1.0  0.22863  0.27057  0.08346  1.0000
  C   C6        1.0  0.23035  0.29924  0.07344  1.0000
  C   C7        1.0  0.19740  0.32205  0.07823  1.0000
  H   H8        1.0  0.13421  0.28332  0.11457  1.0000
  H   H9        1.0  0.19236  0.24314  0.10635  1.0000
  H   H10       1.0  0.25676  0.30377  0.06190  1.0000
  H   H11       1.0  0.19879  0.34404  0.07025  1.0000
  C   C8        1.0  0.03547  0.21376  0.18460  1.0000
  C   C9        1.0  0.48100  0.46846  0.06054  1.0000
  C   C10       1.0  0.47314  0.32552  0.02448  1.0000
  H   H12       1.0  0.16855  0.43086  0.16336  1.0000
  H   H13       1.0  0.49496  0.35120  0.07440  1.0000
  H   H14       1.0  0.24113  0.21815  0.01213  1.0000
  C   C11       1.0  0.40485  0.08265  0.03146  1.0000
  C   C12       1.0  0.00404  0.26384  0.19432  1.0000
  C   C13       1.0  0.27259  0.20726  0.96266  1.0000
  C   C14       1.0  0.42882  0.09173  0.99556  1.0000
  H   H15       1.0  0.40951  0.07130  0.04655  1.0000
  C   C15       1.0  0.01924  0.46740  0.18235  1.0000
  H   H16       1.0  0.48910  0.09841  0.07458  1.0000
  H   H17       1.0  0.05173  0.45222  0.23292  1.0000
  H   H18       1.0  0.12257  0.31987  0.03878  1.0000
  C   C16       1.0  0.03011  0.99516  0.17761  1.0000
  C   C17       1.0  0.16423  0.22798  0.23921  1.0000
  C   C18       1.0  0.13265  0.43906  0.16428  1.0000
  Fe  Fe7       1.0  0.00482  0.33156  0.15932  1.0000
  S   S14       1.0  0.02125  0.01138  0.24113  1.0000
  H   H19       1.0  0.45266  0.30980  0.05525  1.0000
  C   C19       1.0  0.47163  0.32698  0.04652  1.0000
  N   N1        1.0  0.18409  0.16718  0.24963  1.0000
  C   C20       1.0  0.14578  0.17371  0.23807  1.0000
  C   C21       1.0  0.21331  0.19033  0.25562  1.0000
  C   C22       1.0  0.13520  0.20416  0.23278  1.0000
  C   C23       1.0  0.20365  0.22108  0.25068  1.0000
  H   H20       1.0  0.34105  0.13822  0.00822  1.0000
  C   C24       1.0  0.19455  0.13507  0.25495  1.0000
  H   H21       1.0  0.12295  0.15540  0.23291  1.0000
  H   H22       1.0  0.24365  0.18525  0.26485  1.0000
  H   H23       1.0  0.03837  0.42578  0.19848  1.0000
  C   C25       1.0  0.03997  0.46538  0.21950  1.0000
  Fe  Fe8       1.0  0.01789  0.13187  0.23805  1.0000
  H   H24       1.0  0.21848  0.13357  0.26856  1.0000
  H   H25       1.0  0.05349  0.19940  0.17331  1.0000
  C   C26       1.0  0.49574  0.35036  0.05732  1.0000
  S   S15       1.0  0.01809  0.45103  0.15667  1.0000
  H   H26       1.0  0.11761  0.43826  0.14813  1.0000
  N   N2        1.0  0.13082  0.47017  0.17349  1.0000
  S   S16       1.0  0.00815  0.14671  0.27195  1.0000
  C   C27       1.0  0.02730  0.24505  0.17987  1.0000
  H   H27       1.0  0.20961  0.12300  0.24110  1.0000
  H   H28       1.0  0.46061  0.05864  0.01635  1.0000
  H   H29       1.0  0.16303  0.12271  0.25991  1.0000
  H   H30       1.0  0.45234  0.08676  0.98274  1.0000
  N   N3        1.0  0.39572  0.11384  0.99345  1.0000
  H   H31       1.0  0.11319  0.27519  0.06261  1.0000
  H   H32       1.0  0.11211  0.42285  0.17400  1.0000
  C   C28       1.0  0.39105  0.13109  0.97371  1.0000
  C   C29       1.0  0.14216  0.47428  0.19429  1.0000
  H   H33       1.0  0.35536  0.12930  0.96771  1.0000
  H   H34       1.0  0.41441  0.12247  0.96117  1.0000
  C   C30       1.0  0.43357  0.07559  0.01451  1.0000
  C   C31       1.0  0.37145  0.10534  0.02921  1.0000
  C   C32       1.0  0.02063  0.20091  0.20380  1.0000
  H   H35       1.0  0.48028  0.44562  0.05336  1.0000
  H   H36       1.0  0.22634  0.23940  0.25597  1.0000
  C   C33       1.0  0.36711  0.12062  0.00991  1.0000
  C   C34       1.0  0.48966  0.12710  0.04686  1.0000
  H   H37       1.0  0.34990  0.11166  0.04251  1.0000
  N   N4        1.0  0.18915  0.24430  0.02810  1.0000
  C   C35       1.0  0.19397  0.26864  0.01459  1.0000
  C   C36       1.0  0.16016  0.24632  0.04502  1.0000
  C   C37       1.0  0.17004  0.29616  0.01814  1.0000
  C   C38       1.0  0.13518  0.27330  0.04884  1.0000
  C   C39       1.0  0.14054  0.29845  0.03542  1.0000
  C   C40       1.0  0.21393  0.21542  0.02425  1.0000
  H   H38       1.0  0.21674  0.26701  0.00108  1.0000
  H   H39       1.0  0.15724  0.22731  0.05603  1.0000
  H   H40       1.0  0.17467  0.31566  0.00768  1.0000
  H   H41       1.0  0.15608  0.25171  0.23532  1.0000
  H   H42       1.0  0.03259  0.03527  0.19817  1.0000
  C   C41       1.0  0.02835  0.01049  0.19730  1.0000
  C   C42       1.0  0.03240  0.45033  0.20002  1.0000
  H   H43       1.0  0.15147  0.45467  0.20393  1.0000
  C   C43       1.0  0.02198  0.99360  0.21583  1.0000
  Fe  Fe9       1.0  0.06301  0.11183  0.27920  1.0000
  Fe  Fe10      1.0  0.01547  0.39990  0.14802  1.0000
  H   H44       1.0  0.49827  0.15017  0.01711  1.0000
  H   H45       1.0  0.49902  0.34704  0.99625  1.0000
  C   C44       1.0  0.49777  0.34803  0.01332  1.0000
  S   S17       1.0  0.01247  0.07295  0.28388  1.0000
  H   H46       1.0  0.50170  0.21132  0.07486  1.0000
  C   C45       1.0  0.47321  0.13535  0.34735  1.0000
  C   C46       1.0  0.49699  0.11166  0.33668  1.0000
  H   H47       1.0  0.27634  0.21558  0.50711  1.0000
  C   C47       1.0  0.03979  0.00243  0.52361  1.0000
  Fe  Fe11      1.0  0.33974  0.25404  0.38913  1.0000
  S   S18       1.0  0.33135  0.27801  0.35801  1.0000
  S   S19       1.0  0.30283  0.27429  0.41746  1.0000
  Fe  Fe12      1.0  0.40447  0.20664  0.37053  1.0000
  S   S20       1.0  0.40053  0.22686  0.33787  1.0000
  S   S21       1.0  0.45044  0.16881  0.38339  1.0000
  Fe  Fe13      1.0  0.40745  0.27331  0.35423  1.0000
  S   S22       1.0  0.45206  0.31093  0.33889  1.0000
  Fe  Fe14      1.0  0.32436  0.23018  0.34417  1.0000
  S   S23       1.0  0.26569  0.22595  0.32020  1.0000
  S   S24       1.0  0.41634  0.25272  0.38639  1.0000
  S   S25       1.0  0.32794  0.20668  0.37574  1.0000
  Fe  Fe15      1.0  0.20756  0.22750  0.56007  1.0000
  S   S26       1.0  0.18613  0.18285  0.54506  1.0000
  S   S27       1.0  0.27341  0.23068  0.57978  1.0000
  Fe  Fe16      1.0  0.12790  0.26416  0.53895  1.0000
  S   S28       1.0  0.10230  0.22111  0.52252  1.0000
  S   S29       1.0  0.08957  0.30787  0.52825  1.0000
  Fe  Fe17      1.0  0.11449  0.19722  0.55329  1.0000
  S   S30       1.0  0.06257  0.16616  0.56927  1.0000
  Fe  Fe18      1.0  0.17607  0.21088  0.51562  1.0000
  S   S31       1.0  0.20173  0.19037  0.48480  1.0000
  S   S32       1.0  0.13596  0.24067  0.57048  1.0000
  S   S33       1.0  0.20170  0.25502  0.52993  1.0000
  C   C48       1.0  0.27845  0.25045  0.43699  1.0000
  C   C49       1.0  0.25455  0.26423  0.45381  1.0000
  C   C50       1.0  0.23153  0.24603  0.46876  1.0000
  C   C51       1.0  0.23201  0.21387  0.46689  1.0000
  C   C52       1.0  0.25648  0.20005  0.45027  1.0000
  C   C53       1.0  0.27973  0.21826  0.43537  1.0000
  H   H48       1.0  0.25316  0.28913  0.45507  1.0000
  H   H49       1.0  0.21246  0.25695  0.48138  1.0000
  H   H50       1.0  0.25715  0.17516  0.44879  1.0000
  H   H51       1.0  0.29803  0.20740  0.42249  1.0000
  C   C54       1.0  0.16172  0.14764  0.30750  1.0000
  H   H52       1.0  0.18606  0.23186  0.34679  1.0000
  C   C55       1.0  0.18525  0.22616  0.36342  1.0000
  C   C56       1.0  0.22597  0.19536  0.31605  1.0000
  C   C57       1.0  0.23277  0.16578  0.32417  1.0000
  C   C58       1.0  0.20082  0.14210  0.31989  1.0000
  H   H53       1.0  0.26292  0.16101  0.33351  1.0000
  H   H54       1.0  0.20672  0.11918  0.32603  1.0000
  C   C59       1.0  0.37598  0.17803  0.60449  1.0000
  H   H55       1.0  0.04879  0.98321  0.59182  1.0000
  H   H56       1.0  0.12424  0.18214  0.29046  1.0000
  H   H57       1.0  0.36285  0.22632  0.59862  1.0000
  H   H58       1.0  0.06807  0.14592  0.52542  1.0000
  H   H59       1.0  0.22761  0.27784  0.35551  1.0000
  C   C60       1.0  0.04709  0.34292  0.56010  1.0000
  C   C61       1.0  0.05364  0.33790  0.53844  1.0000
  H   H60       1.0  0.32435  0.13065  0.53344  1.0000
  H   H61       1.0  0.06469  0.32855  0.57138  1.0000
  H   H62       1.0  0.40936  0.18203  0.61136  1.0000
  H   H63       1.0  0.01385  0.37080  0.58401  1.0000
  H   H64       1.0  0.15929  0.16633  0.39581  1.0000
  C   C62       1.0  0.46438  0.01988  0.39083  1.0000
  H   H65       1.0  0.44920  0.14970  0.33891  1.0000
  H   H66       1.0  0.23901  0.28783  0.38242  1.0000
  C   C63       1.0  0.50122  0.47362  0.34125  1.0000
  C   C64       1.0  0.03499  0.47202  0.53943  1.0000
  S   S34       1.0  0.38898  0.11538  0.61296  1.0000
  C   C65       1.0  0.03538  0.13605  0.55509  1.0000
  C   C66       1.0  0.00333  0.11720  0.56542  1.0000
  C   C67       1.0  0.04353  0.13151  0.53354  1.0000
  H   H67       1.0  0.01907  0.46902  0.57257  1.0000
  C   C68       1.0  0.30573  0.19836  0.58846  1.0000
  C   C69       1.0  0.28890  0.16823  0.58690  1.0000
  C   C70       1.0  0.31527  0.14323  0.59418  1.0000
  H   H68       1.0  0.00627  0.01109  0.58431  1.0000
  C   C71       1.0  0.03085  0.35736  0.52412  1.0000
  H   H69       1.0  0.25536  0.16414  0.58023  1.0000
  C   C72       1.0  0.47323  0.98872  0.39451  1.0000
  H   H70       1.0  0.36561  0.26262  0.53090  1.0000
  C   C73       1.0  0.35892  0.20437  0.54301  1.0000
  H   H71       1.0  0.18254  0.29435  0.37162  1.0000
  C   C74       1.0  0.19489  0.24093  0.39928  1.0000
  C   C75       1.0  0.18097  0.21164  0.40594  1.0000
  H   H72       1.0  0.47160  0.46119  0.33425  1.0000
  C   C76       1.0  0.47994  0.13992  0.36901  1.0000
  C   C77       1.0  0.16963  0.18925  0.39089  1.0000
  H   H73       1.0  0.30882  0.26247  0.54226  1.0000
  C   C78       1.0  0.29954  0.20349  0.51749  1.0000
  H   H74       1.0  0.18033  0.22402  0.29801  1.0000
  H   H75       1.0  0.30156  0.12005  0.59308  1.0000
  H   H76       1.0  0.45899  0.05530  0.36717  1.0000
  C   C79       1.0  0.21229  0.27847  0.37161  1.0000
  C   C80       1.0  0.35885  0.14789  0.60308  1.0000
  C   C81       1.0  0.18633  0.20109  0.30409  1.0000
  C   C82       1.0  0.15441  0.17741  0.29979  1.0000
  H   H77       1.0  0.38200  0.21718  0.55320  1.0000
  C   C83       1.0  0.32643  0.15557  0.53215  1.0000
  C   C84       1.0  0.01828  0.36704  0.56722  1.0000
  N   N5        1.0  0.33021  0.21959  0.52958  1.0000
  H   H78       1.0  0.04284  0.27138  0.56168  1.0000
  H   H79       1.0  0.45736  0.03548  0.40390  1.0000
  C   C85       1.0  0.29724  0.17130  0.51853  1.0000
  C   C86       1.0  0.35772  0.17214  0.54440  1.0000
  H   H80       1.0  0.03560  0.35382  0.50734  1.0000
  H   H81       1.0  0.20368  0.25826  0.41104  1.0000
  C   C87       1.0  0.47576  0.01093  0.35356  1.0000
  C   C88       1.0  0.33035  0.25342  0.52914  1.0000
  C   C89       1.0  0.02748  0.00661  0.54479  1.0000
  H   H82       1.0  0.47789  0.02011  0.33767  1.0000
  H   H83       1.0  0.27238  0.15877  0.50903  1.0000
  N   N6        1.0  0.19788  0.24760  0.37825  1.0000
  H   H84       1.0  0.17937  0.20634  0.42267  1.0000
  C   C90       1.0  0.48522  0.34182  0.34985  1.0000
  H   H85       1.0  0.16231  0.17947  0.35757  1.0000
  H   H86       1.0  0.37979  0.16018  0.55544  1.0000
  S   S35       1.0  0.12377  0.11650  0.30197  1.0000
  H   H87       1.0  0.31649  0.26227  0.51397  1.0000
  C   C91       1.0  0.34944  0.20310  0.59730  1.0000
  C   C92       1.0  0.17141  0.19658  0.36947  1.0000
  H   H88       1.0  0.02571  0.44823  0.53612  1.0000
  H   H89       1.0  0.49683  0.45328  0.38088  1.0000
  H   H90       1.0  0.49721  0.25951  0.31762  1.0000
  C   C93       1.0  0.48631  0.47717  0.37930  1.0000
  H   H91       1.0  0.02556  0.10538  0.50566  1.0000
  C   C94       1.0  0.49067  0.34600  0.37163  1.0000
  H   H92       1.0  0.01256  0.02844  0.54960  1.0000
  C   C95       1.0  0.46535  0.03105  0.37022  1.0000
  N   N7        1.0  0.03343  0.98335  0.55906  1.0000
  H   H93       1.0  0.47306  0.33080  0.38244  1.0000
  H   H94       1.0  0.03431  0.02082  0.51231  1.0000
  C   C96       1.0  0.01940  0.98744  0.58113  1.0000
  C   C97       1.0  0.01932  0.10857  0.52238  1.0000
  H   H95       1.0  0.49114  0.10791  0.31999  1.0000
  C   C98       1.0  0.00553  0.26656  0.56222  1.0000
  H   H96       1.0  0.43917  0.99997  0.73292  1.0000
  H   H97       1.0  0.36355  0.23971  0.83700  1.0000
  Fe  Fe19      1.0  0.45003  0.34373  0.78091  1.0000
  S   S36       1.0  0.39073  0.33667  0.80437  1.0000
  H   H98       1.0  0.42672  0.16582  0.68370  1.0000
  S   S37       1.0  0.44283  0.35925  0.74712  1.0000
  H   H99       1.0  0.16352  0.37962  0.81377  1.0000
  H   H100      1.0  0.41376  0.28190  0.83417  1.0000
  S   S38       1.0  0.45891  0.09501  0.66390  1.0000
  Fe  Fe20      1.0  0.08726  0.24955  0.85209  1.0000
  S   S39       1.0  0.11184  0.20911  0.83269  1.0000
  H   H101      1.0  0.22143  0.33988  0.80386  1.0000
  Fe  Fe21      1.0  0.16183  0.24091  0.88501  1.0000
  S   S40       1.0  0.19108  0.19971  0.86819  1.0000
  S   S41       1.0  0.19467  0.26395  0.91343  1.0000
  Fe  Fe22      1.0  0.18252  0.22840  0.83890  1.0000
  S   S42       1.0  0.23720  0.23206  0.81320  1.0000
  Fe  Fe23      1.0  0.11746  0.18449  0.86372  1.0000
  S   S43       1.0  0.09542  0.13495  0.87161  1.0000
  S   S44       1.0  0.15703  0.27039  0.85587  1.0000
  S   S45       1.0  0.08914  0.22409  0.88287  1.0000
  C   C99       1.0  0.04358  0.99204  0.84826  1.0000
  H   H102      1.0  0.03263  0.04371  0.80925  1.0000
  N   N8        1.0  0.36761  0.27561  0.86021  1.0000
  C   C100      1.0  0.22529  0.20939  0.93092  1.0000
  H   H103      1.0  0.26455  0.23584  0.88696  1.0000
  H   H104      1.0  0.20718  0.19761  0.91834  1.0000
  C   C101      1.0  0.17073  0.30435  0.79858  1.0000
  C   C102      1.0  0.46383  0.98975  0.72222  1.0000
  C   C103      1.0  0.04450  0.11510  0.86397  1.0000
  C   C104      1.0  0.49139  0.46565  0.72331  1.0000
  H   H105      1.0  0.04771  0.08383  0.89029  1.0000
  C   C105      1.0  0.39833  0.17649  0.67540  1.0000
  C   C106      1.0  0.04875  0.33234  0.85340  1.0000
  C   C107      1.0  0.04088  0.36411  0.85604  1.0000
  H   H106      1.0  0.08155  0.32257  0.85755  1.0000
  H   H107      1.0  0.06783  0.37879  0.86216  1.0000
  C   C108      1.0  0.34689  0.30815  0.80551  1.0000
  C   C109      1.0  0.34696  0.28191  0.79254  1.0000
  C   C110      1.0  0.31296  0.25902  0.79499  1.0000
  C   C111      1.0  0.27868  0.26192  0.81049  1.0000
  C   C112      1.0  0.27837  0.28829  0.82335  1.0000
  C   C113      1.0  0.31224  0.31122  0.82085  1.0000
  H   H108      1.0  0.37345  0.27913  0.78073  1.0000
  H   H109      1.0  0.31352  0.23878  0.78490  1.0000
  H   H110      1.0  0.25236  0.29089  0.83539  1.0000
  H   H111      1.0  0.31194  0.33136  0.83103  1.0000
  H   H112      1.0  0.46027  0.02740  0.69991  1.0000
  H   H113      1.0  0.29711  0.21423  0.85365  1.0000
  H   H114      1.0  0.36351  0.30879  0.88516  1.0000
  H   H115      1.0  0.08898  0.07184  0.83136  1.0000
  C   C114      1.0  0.28850  0.21870  0.64244  1.0000
  C   C115      1.0  0.40731  0.29062  0.85047  1.0000
  H   H116      1.0  0.05706  0.31275  0.80403  1.0000
  H   H117      1.0  0.29707  0.28346  0.90245  1.0000
  H   H118      1.0  0.03179  0.14168  0.83599  1.0000
  C   C116      1.0  0.31218  0.23460  0.86093  1.0000
  H   H119      1.0  0.01225  0.98393  0.80032  1.0000
  C   C117      1.0  0.31198  0.27372  0.88817  1.0000
  H   H120      1.0  0.37582  0.13417  0.66048  1.0000
  C   C118      1.0  0.29349  0.24690  0.87942  1.0000
  H   H121      1.0  0.30184  0.23738  0.63212  1.0000
  C   C119      1.0  0.35393  0.22153  0.66649  1.0000
  N   N9        1.0  0.12526  0.29683  0.79896  1.0000
  C   C120      1.0  0.10643  0.34872  0.80935  1.0000
  C   C121      1.0  0.04546  0.03303  0.82352  1.0000
  C   C122      1.0  0.34974  0.24919  0.85157  1.0000
  H   H122      1.0  0.43843  0.28664  0.86010  1.0000
  C   C123      1.0  0.24767  0.25659  0.94871  1.0000
  H   H123      1.0  0.47801  0.45052  0.67082  1.0000
  C   C124      1.0  0.11051  0.26575  0.79277  1.0000
  C   C125      1.0  0.01436  0.31345  0.84507  1.0000
  C   C126      1.0  0.22428  0.24161  0.93221  1.0000
  H   H124      1.0  0.49781  0.26277  0.67268  1.0000
  C   C127      1.0  0.34934  0.28787  0.87831  1.0000
  H   H125      1.0  0.31164  0.15870  0.64192  1.0000
  H   H126      1.0  0.47973  0.42397  0.70551  1.0000
  H   H127      1.0  0.34812  0.24617  0.66810  1.0000
  H   H128      1.0  0.40136  0.31588  0.84899  1.0000
  C   C128      1.0  0.48413  0.44873  0.70476  1.0000
  H   H129      1.0  0.08081  0.36585  0.81355  1.0000
  C   C129      1.0  0.39019  0.20808  0.67755  1.0000
  C   C130      1.0  0.24930  0.19229  0.94614  1.0000
  H   H130      1.0  0.08540  0.99773  0.87612  1.0000
  H   H131      1.0  0.08039  0.25838  0.80228  1.0000
  C   C131      1.0  0.09318  0.31864  0.80397  1.0000
  H   H132      1.0  0.41193  0.22209  0.68771  1.0000
  H   H133      1.0  0.19607  0.28724  0.79413  1.0000
  N   N10       1.0  0.32621  0.20392  0.65383  1.0000
  C   C132      1.0  0.02989  0.08953  0.87586  1.0000
  C   C133      1.0  0.18524  0.33416  0.80399  1.0000
  C   C134      1.0  0.36977  0.15872  0.66251  1.0000
  Fe  Fe24      1.0  0.45805  0.10906  0.62958  1.0000
  S   S46       1.0  0.02325  0.27373  0.84081  1.0000
  H   H134      1.0  0.26346  0.22863  0.65378  1.0000
  C   C135      1.0  0.33342  0.17281  0.65195  1.0000
  C   C136      1.0  0.15280  0.35642  0.80948  1.0000
  C   C137      1.0  0.48304  0.46388  0.68512  1.0000
  C   C138      1.0  0.09215  0.03617  0.85485  1.0000
  H   H135      1.0  0.13809  0.24851  0.79547  1.0000
  H   H136      1.0  0.11551  0.04900  0.86495  1.0000
  H   H137      1.0  0.26998  0.20218  0.63197  1.0000
  C   C139      1.0  0.07736  0.04900  0.83591  1.0000
  N   N11       1.0  0.02939  0.00480  0.82966  1.0000
  H   H138      1.0  0.10108  0.26536  0.77580  1.0000
  H   H139      1.0  0.24723  0.28152  0.94971  1.0000
  C   C140      1.0  0.07503  0.00758  0.86117  1.0000
  C   C141      1.0  0.47590  0.00545  0.70357  1.0000
  C   C142      1.0  0.02098  0.12219  0.84537  1.0000
  H   H140      1.0  0.24958  0.16736  0.94513  1.0000
  H   H141      1.0  0.02154  0.35662  0.90912  1.0000
  H   H142      1.0  0.02836  0.30139  0.89917  1.0000
  S   S47       1.0  0.49812  0.38296  0.78887  1.0000
  Fe  Fe25      1.0  0.49564  0.39563  0.75446  1.0000
  S   S48       1.0  0.49655  0.44749  0.74824  1.0000
  H   H143      1.0  0.05462  0.69902  0.17372  1.0000
  S   S49       1.0  0.08016  0.60681  0.25062  1.0000
  H   H144      1.0  0.19610  0.84391  0.12494  1.0000
  S   S50       1.0  0.04938  0.51595  0.24548  1.0000
  S   S51       1.0  0.49949  0.77420  0.04834  1.0000
  Fe  Fe26      1.0  0.04957  0.84063  0.11682  1.0000
  S   S52       1.0  0.10578  0.83295  0.09202  1.0000
  H   H145      1.0  0.39205  0.83880  0.00011  1.0000
  C   C143      1.0  0.26362  0.72598  0.97292  1.0000
  S   S53       1.0  0.05980  0.85393  0.15099  1.0000
  C   C144      1.0  0.45968  0.61348  0.03440  1.0000
  Fe  Fe27      1.0  0.43021  0.75143  0.04388  1.0000
  S   S54       1.0  0.40070  0.71491  0.06516  1.0000
  Fe  Fe28      1.0  0.01315  0.89407  0.14447  1.0000
  Fe  Fe29      1.0  0.35716  0.74150  0.01038  1.0000
  S   S55       1.0  0.32209  0.70423  0.02889  1.0000
  S   S56       1.0  0.34362  0.75901  0.97730  1.0000
  Fe  Fe30      1.0  0.33204  0.73618  0.05686  1.0000
  S   S57       1.0  0.27827  0.74222  0.08307  1.0000
  Fe  Fe31      1.0  0.39321  0.68599  0.03569  1.0000
  S   S58       1.0  0.40835  0.63460  0.02941  1.0000
  S   S59       1.0  0.36292  0.77471  0.03772  1.0000
  S   S60       1.0  0.42680  0.72120  0.01507  1.0000
  C   C145      1.0  0.11526  0.52443  0.17033  1.0000
  C   C146      1.0  0.12633  0.52875  0.19158  1.0000
  C   C147      1.0  0.09545  0.69976  0.25730  1.0000
  H   H146      1.0  0.26794  0.71935  0.98923  1.0000
  C   C148      1.0  0.15316  0.80713  0.08988  1.0000
  C   C149      1.0  0.16367  0.78557  0.10552  1.0000
  C   C150      1.0  0.20205  0.76602  0.10316  1.0000
  C   C151      1.0  0.23040  0.76764  0.08517  1.0000
  C   C152      1.0  0.21996  0.78931  0.06960  1.0000
  C   C153      1.0  0.18167  0.80891  0.07198  1.0000
  H   H147      1.0  0.14221  0.78383  0.11938  1.0000
  H   H148      1.0  0.20974  0.74934  0.11530  1.0000
  H   H149      1.0  0.24133  0.79091  0.05570  1.0000
  H   H150      1.0  0.17399  0.82547  0.05977  1.0000
  H   H151      1.0  0.25305  0.62486  0.98366  1.0000
  Fe  Fe32      1.0  0.03244  0.56607  0.25317  1.0000
  C   C154      1.0  0.46726  0.83386  0.05211  1.0000
  H   H152      1.0  0.13865  0.70392  0.22996  1.0000
  C   C155      1.0  0.45043  0.49120  0.05404  1.0000
  C   C156      1.0  0.02491  0.96292  0.17622  1.0000
  S   S61       1.0  0.03119  0.66061  0.20875  1.0000
  C   C157      1.0  0.03386  0.49744  0.22154  1.0000
  H   H153      1.0  0.38455  0.66807  0.99037  1.0000
  C   C158      1.0  0.01140  0.49925  0.18465  1.0000
  H   H154      1.0  0.15993  0.89347  0.18164  1.0000
  C   C159      1.0  0.35149  0.67294  0.96003  1.0000
  N   N12       1.0  0.14224  0.91256  0.13054  1.0000
  C   C160      1.0  0.46461  0.58358  0.02580  1.0000
  C   C161      1.0  0.01835  0.51421  0.20418  1.0000
  C   C162      1.0  0.16161  0.88748  0.12085  1.0000
  H   H155      1.0  0.43808  0.57442  0.01564  1.0000
  C   C163      1.0  0.48541  0.55764  0.08865  1.0000
  H   H156      1.0  0.32145  0.63717  0.00561  1.0000
  C   C164      1.0  0.13991  0.50357  0.20367  1.0000
  H   H157      1.0  0.43347  0.82391  0.05367  1.0000
  H   H158      1.0  0.12475  0.93416  0.15986  1.0000
  C   C165      1.0  0.14148  0.91480  0.15212  1.0000
  H   H159      1.0  0.16090  0.88516  0.10377  1.0000
  H   H160      1.0  0.20099  0.73032  0.24972  1.0000
  C   C166      1.0  0.02022  0.70017  0.20386  1.0000
  C   C167      1.0  0.27916  0.64850  0.95618  1.0000
  C   C168      1.0  0.45894  0.86040  0.99911  1.0000
  H   H161      1.0  0.17141  0.64524  0.27935  1.0000
  C   C169      1.0  0.18142  0.86623  0.15476  1.0000
  C   C170      1.0  0.18157  0.86400  0.13277  1.0000
  H   H162      1.0  0.10336  0.54369  0.16096  1.0000
  C   C171      1.0  0.42874  0.83530  0.99902  1.0000
  C   C172      1.0  0.03518  0.71305  0.18470  1.0000
  C   C173      1.0  0.35473  0.66259  0.98085  1.0000
  C   C174      1.0  0.02423  0.74371  0.17935  1.0000
  H   H163      1.0  0.14041  0.94117  0.10328  1.0000
  C   C175      1.0  0.29513  0.74581  0.96345  1.0000
  H   H164      1.0  0.44372  0.88079  0.05536  1.0000
  H   H165      1.0  0.20266  0.69872  0.96857  1.0000
  H   H166      1.0  0.08546  0.92800  0.11288  1.0000
  H   H167      1.0  0.06838  0.68789  0.24879  1.0000
  S   S62       1.0  0.00712  0.88280  0.10985  1.0000
  C   C176      1.0  0.13511  0.70871  0.24674  1.0000
  N   N13       1.0  0.48434  0.52713  0.07853  1.0000
  C   C177      1.0  0.16128  0.89179  0.16455  1.0000
  H   H168      1.0  0.44518  0.88357  0.00031  1.0000
  C   C178      1.0  0.11999  0.93617  0.11765  1.0000
  H   H169      1.0  0.42846  0.53812  0.05826  1.0000
  H   H170      1.0  0.42574  0.48622  0.04170  1.0000
  C   C179      1.0  0.01791  0.94609  0.19471  1.0000
  H   H171      1.0  0.11557  0.95816  0.12657  1.0000
  C   C180      1.0  0.47316  0.86604  0.05304  1.0000
  C   C181      1.0  0.45221  0.52050  0.06345  1.0000
  H   H172      1.0  0.01187  0.94811  0.22867  1.0000
  C   C182      1.0  0.28104  0.63815  0.97706  1.0000
  H   H173      1.0  0.14674  0.50653  0.22042  1.0000
  C   C183      1.0  0.31925  0.64513  0.98940  1.0000
  C   C184      1.0  0.22664  0.71436  0.96118  1.0000
  H   H174      1.0  0.03513  0.75310  0.16437  1.0000
  S   S63       1.0  0.02921  0.94462  0.15116  1.0000
  H   H175      1.0  0.19609  0.84789  0.16417  1.0000
  C   C185      1.0  0.44617  0.80542  0.99781  1.0000
  Fe  Fe33      1.0  0.01837  0.63248  0.23860  1.0000
  C   C186      1.0  0.09106  0.70586  0.27886  1.0000
  H   H176      1.0  0.42317  0.78578  0.99794  1.0000
  H   H177      1.0  0.46977  0.55649  0.10459  1.0000
  H   H178      1.0  0.12293  0.55137  0.19889  1.0000
  H   H179      1.0  0.46680  0.57514  0.07916  1.0000
  C   C187      1.0  0.17008  0.72359  0.25798  1.0000
  N   N14       1.0  0.16563  0.72927  0.27917  1.0000
  C   C188      1.0  0.11763  0.49478  0.16149  1.0000
  H   H180      1.0  0.01398  0.92128  0.19389  1.0000
  C   C189      1.0  0.01668  0.96137  0.21442  1.0000
  H   H181      1.0  0.49138  0.64789  0.05417  1.0000
  Fe  Fe34      1.0  0.05530  0.62056  0.28292  1.0000
  H   H182      1.0  0.01357  0.53890  0.20552  1.0000
  C   C190      1.0  0.49450  0.62500  0.04740  1.0000
  H   H183      1.0  0.24896  0.66880  0.28186  1.0000
  C   C191      1.0  0.49330  0.80089  0.99675  1.0000
  H   H184      1.0  0.37898  0.68692  0.95366  1.0000
  H   H185      1.0  0.10708  0.49139  0.14521  1.0000
  C   C192      1.0  0.18299  0.65517  0.29412  1.0000
  N   N15       1.0  0.06105  0.52143  0.52727  1.0000
  H   H186      1.0  0.47146  0.53181  0.34249  1.0000
  S   S64       1.0  0.09676  0.64081  0.31044  1.0000
  Fe  Fe35      1.0  0.34213  0.74988  0.38681  1.0000
  S   S65       1.0  0.33407  0.77017  0.35426  1.0000
  S   S66       1.0  0.30712  0.77088  0.41550  1.0000
  Fe  Fe36      1.0  0.41685  0.70562  0.37261  1.0000
  S   S67       1.0  0.41420  0.72253  0.33925  1.0000
  H   H187      1.0  0.06677  0.97049  0.50059  1.0000
  Fe  Fe37      1.0  0.41132  0.77064  0.35317  1.0000
  S   S68       1.0  0.45545  0.80856  0.33775  1.0000
  Fe  Fe38      1.0  0.33722  0.72061  0.34308  1.0000
  S   S69       1.0  0.29631  0.70139  0.31491  1.0000
  S   S70       1.0  0.41879  0.75362  0.38631  1.0000
  S   S71       1.0  0.34046  0.70037  0.37583  1.0000
  Fe  Fe39      1.0  0.20295  0.73138  0.55318  1.0000
  S   S72       1.0  0.18110  0.68636  0.53906  1.0000
  S   S73       1.0  0.26924  0.73509  0.57213  1.0000
  Fe  Fe40      1.0  0.11942  0.76686  0.53463  1.0000
  S   S74       1.0  0.09218  0.72309  0.51968  1.0000
  S   S75       1.0  0.08575  0.81199  0.52334  1.0000
  Fe  Fe41      1.0  0.11081  0.69964  0.54996  1.0000
  S   S76       1.0  0.06950  0.66434  0.56816  1.0000
  Fe  Fe42      1.0  0.16482  0.71386  0.51011  1.0000
  S   S77       1.0  0.18258  0.69381  0.47813  1.0000
  S   S78       1.0  0.13316  0.74388  0.56599  1.0000
  S   S79       1.0  0.19179  0.75831  0.52327  1.0000
  C   C193      1.0  0.27114  0.74928  0.43217  1.0000
  C   C194      1.0  0.25447  0.76318  0.45071  1.0000
  C   C195      1.0  0.22713  0.74643  0.46485  1.0000
  C   C196      1.0  0.21589  0.71570  0.46044  1.0000
  C   C197      1.0  0.23165  0.70198  0.44168  1.0000
  C   C198      1.0  0.25956  0.71863  0.42765  1.0000
  H   H188      1.0  0.26321  0.78694  0.45421  1.0000
  H   H189      1.0  0.21488  0.75734  0.47911  1.0000
  H   H190      1.0  0.22278  0.67827  0.43807  1.0000
  H   H191      1.0  0.27200  0.70779  0.41333  1.0000
  C   C199      1.0  0.15388  0.65511  0.31168  1.0000
  C   C200      1.0  0.05182  0.95575  0.55281  1.0000
  C   C201      1.0  0.22697  0.66856  0.29561  1.0000
  C   C202      1.0  0.24255  0.68193  0.31463  1.0000
  C   C203      1.0  0.21366  0.68149  0.33225  1.0000
  C   C204      1.0  0.16965  0.66820  0.33074  1.0000
  H   H192      1.0  0.22495  0.69181  0.34695  1.0000
  H   H193      1.0  0.14748  0.66830  0.34443  1.0000
  H   H194      1.0  0.06092  0.69824  0.28740  1.0000
  C   C205      1.0  0.06428  0.95072  0.53174  1.0000
  C   C206      1.0  0.01499  0.61093  0.52145  1.0000
  H   H195      1.0  0.08093  0.69441  0.45492  1.0000
  H   H196      1.0  0.03069  0.79167  0.48879  1.0000
  H   H197      1.0  0.13819  0.79314  0.48429  1.0000
  C   C207      1.0  0.02669  0.71717  0.47216  1.0000
  C   C208      1.0  0.04775  0.84037  0.53412  1.0000
  C   C209      1.0  0.46085  0.52468  0.39554  1.0000
  C   C210      1.0  0.49152  0.64058  0.37260  1.0000
  C   C211      1.0  0.11362  0.79571  0.47103  1.0000
  C   C212      1.0  0.48948  0.83938  0.34832  1.0000
  H   H198      1.0  0.35123  0.73255  0.59726  1.0000
  C   C213      1.0  0.48299  0.96916  0.37744  1.0000
  C   C214      1.0  0.06887  0.71588  0.46187  1.0000
  H   H199      1.0  0.03884  0.52399  0.57973  1.0000
  H   H200      1.0  0.16774  0.65755  0.58501  1.0000
  H   H201      1.0  0.08667  0.56440  0.51539  1.0000
  C   C215      1.0  0.49831  0.60857  0.34110  1.0000
  H   H202      1.0  0.20438  0.61520  0.60207  1.0000
  C   C216      1.0  0.36070  0.65422  0.59350  1.0000
  C   C217      1.0  0.12656  0.72087  0.28960  1.0000
  H   H203      1.0  0.04708  0.54443  0.49859  1.0000
  C   C218      1.0  0.30505  0.70369  0.57936  1.0000
  C   C219      1.0  0.29540  0.67338  0.57308  1.0000
  C   C220      1.0  0.32305  0.64888  0.58011  1.0000
  C   C221      1.0  0.04126  0.77062  0.48081  1.0000
  C   C222      1.0  0.37107  0.68462  0.59938  1.0000
  H   H204      1.0  0.26618  0.66864  0.56315  1.0000
  H   H205      1.0  0.31475  0.62545  0.57548  1.0000
  H   H206      1.0  0.03559  0.86115  0.50375  1.0000
  N   N16       1.0  0.32381  0.73541  0.50923  1.0000
  C   C223      1.0  0.34083  0.74036  0.48937  1.0000
  C   C224      1.0  0.30089  0.70871  0.51376  1.0000
  C   C225      1.0  0.33611  0.71785  0.47359  1.0000
  C   C226      1.0  0.29513  0.68586  0.49829  1.0000
  C   C227      1.0  0.31323  0.69042  0.47815  1.0000
  C   C228      1.0  0.32898  0.75891  0.52582  1.0000
  H   H207      1.0  0.35781  0.76186  0.48549  1.0000
  H   H208      1.0  0.28664  0.70511  0.52938  1.0000
  H   H209      1.0  0.34883  0.72205  0.45772  1.0000
  H   H210      1.0  0.27575  0.66510  0.50171  1.0000
  H   H211      1.0  0.30809  0.67320  0.46585  1.0000
  H   H212      1.0  0.35168  0.77813  0.52088  1.0000
  H   H213      1.0  0.29501  0.76865  0.53004  1.0000
  H   H214      1.0  0.34393  0.74844  0.54027  1.0000
  C   C229      1.0  0.07592  0.54114  0.50980  1.0000
  C   C230      1.0  0.03134  0.48371  0.55992  1.0000
  C   C231      1.0  0.04259  0.51448  0.56394  1.0000
  C   C232      1.0  0.03769  0.84234  0.55570  1.0000
  H   H215      1.0  0.20084  0.74113  0.30777  1.0000
  C   C233      1.0  0.47766  0.63331  0.35202  1.0000
  C   C234      1.0  0.45960  0.53831  0.37565  1.0000
  H   H216      1.0  0.14765  0.67740  0.60828  1.0000
  H   H217      1.0  0.00750  0.61709  0.58235  1.0000
  C   C235      1.0  0.03742  0.63625  0.55418  1.0000
  H   H218      1.0  0.18644  0.69611  0.59011  1.0000
  C   C236      1.0  0.09640  0.74227  0.46119  1.0000
  S   S80       1.0  0.01282  0.57730  0.28679  1.0000
  H   H219      1.0  0.45156  0.64704  0.34443  1.0000
  C   C237      1.0  0.34336  0.70920  0.59232  1.0000
  H   H220      1.0  0.13301  0.79758  0.45598  1.0000
  C   C238      1.0  0.04950  0.49139  0.52315  1.0000
  H   H221      1.0  0.45190  0.53809  0.40947  1.0000
  N   N17       1.0  0.08252  0.76915  0.47061  1.0000
  H   H222      1.0  0.06615  0.55703  0.55060  1.0000
  S   S81       1.0  0.46954  0.67289  0.38638  1.0000
  C   C239      1.0  0.05786  0.53307  0.54736  1.0000
  H   H223      1.0  0.06113  0.64987  0.52343  1.0000
  C   C240      1.0  0.49497  0.84423  0.37005  1.0000
  H   H224      1.0  0.47884  0.93705  0.34145  1.0000
  H   H225      1.0  0.39980  0.68911  0.60972  1.0000
  H   H226      1.0  0.12938  0.74091  0.45340  1.0000
  H   H227      1.0  0.07763  0.92845  0.52682  1.0000
  C   C241      1.0  0.17775  0.67388  0.59782  1.0000
  H   H228      1.0  0.10519  0.53044  0.50133  1.0000
  H   H229      1.0  0.09468  0.81768  0.47350  1.0000
  H   H230      1.0  0.44982  0.56236  0.37397  1.0000
  H   H231      1.0  0.48776  0.60327  0.32511  1.0000
  H   H232      1.0  0.49051  0.94504  0.38044  1.0000
  H   H233      1.0  0.12322  0.72477  0.30647  1.0000
  H   H234      1.0  0.05535  0.93703  0.56401  1.0000
  C   C242      1.0  0.03988  0.63396  0.53218  1.0000
  H   H235      1.0  0.47776  0.82918  0.38109  1.0000
  S   S82       1.0  0.39060  0.62183  0.60372  1.0000
  H   H236      1.0  0.05247  0.82582  0.56646  1.0000
  C   C243      1.0  0.47215  0.52094  0.35789  1.0000
  C   C244      1.0  0.22567  0.63142  0.61071  1.0000
  H   H237      1.0  0.47333  0.97980  0.41048  1.0000
  N   N18       1.0  0.48663  0.49109  0.35995  1.0000
  C   C245      1.0  0.00898  0.86609  0.56347  1.0000
  C   C246      1.0  0.20225  0.74559  0.29049  1.0000
  N   N19       1.0  0.21677  0.66241  0.61001  1.0000
  C   C247      1.0  0.01261  0.74474  0.48163  1.0000
  H   H238      1.0  0.23646  0.73739  0.28516  1.0000
  C   C248      1.0  0.02813  0.86229  0.52047  1.0000
  S   S83       1.0  0.49775  0.57350  0.61498  1.0000
  C   C249      1.0  0.47384  0.49382  0.39741  1.0000
  C   C250      1.0  0.05803  0.97422  0.51706  1.0000
  H   H239      1.0  0.19957  0.77081  0.28783  1.0000
  H   H240      1.0  0.01732  0.60923  0.50443  1.0000
  C   C251      1.0  0.00970  0.61537  0.56533  1.0000
  H   H241      1.0  0.48707  0.96942  0.32425  1.0000
  C   C252      1.0  0.49652  0.95966  0.33984  1.0000
  H   H242      1.0  0.00539  0.69669  0.47316  1.0000
  N   N20       1.0  0.48405  0.98036  0.35729  1.0000
  H   H243      1.0  0.05098  0.48233  0.50717  1.0000
  H   H244      1.0  0.47500  0.48291  0.41277  1.0000
  H   H245      1.0  0.16999  0.84769  0.90668  1.0000
  C   C253      1.0  0.49007  0.71589  0.68208  1.0000
  Fe  Fe43      1.0  0.46187  0.83723  0.78777  1.0000
  S   S84       1.0  0.42016  0.81788  0.81542  1.0000
  C   C254      1.0  0.42754  0.74848  0.78185  1.0000
  S   S85       1.0  0.43468  0.85131  0.75616  1.0000
  S   S86       1.0  0.01534  0.76985  0.87079  1.0000
  C   C255      1.0  0.29111  0.64100  0.63305  1.0000
  S   S87       1.0  0.45450  0.60379  0.65803  1.0000
  Fe  Fe44      1.0  0.08345  0.74574  0.86587  1.0000
  S   S88       1.0  0.10555  0.72214  0.83592  1.0000
  H   H246      1.0  0.24923  0.64312  0.94669  1.0000
  Fe  Fe45      1.0  0.15894  0.71484  0.89140  1.0000
  S   S89       1.0  0.18638  0.68886  0.86322  1.0000
  S   S90       1.0  0.17654  0.70476  0.92552  1.0000
  Fe  Fe46      1.0  0.17772  0.73420  0.84615  1.0000
  S   S91       1.0  0.22458  0.75173  0.81956  1.0000
  Fe  Fe47      1.0  0.11229  0.67910  0.85543  1.0000
  S   S92       1.0  0.08652  0.63192  0.84393  1.0000
  S   S93       1.0  0.15447  0.76087  0.87512  1.0000
  S   S94       1.0  0.08605  0.70200  0.88457  1.0000
  C   C256      1.0  0.22116  0.72224  0.93989  1.0000
  C   C257      1.0  0.25185  0.74278  0.93051  1.0000
  H   H247      1.0  0.40888  0.95263  0.68283  1.0000
  H   H248      1.0  0.32764  0.69873  0.92391  1.0000
  H   H249      1.0  0.24777  0.74901  0.91409  1.0000
  C   C258      1.0  0.43775  0.88090  0.69775  1.0000
  C   C259      1.0  0.49348  0.76022  0.70628  1.0000
  C   C260      1.0  0.28879  0.75457  0.94232  1.0000
  C   C261      1.0  0.04024  0.60960  0.85415  1.0000
  C   C262      1.0  0.48058  0.89567  0.66682  1.0000
  H   H250      1.0  0.05637  0.57007  0.83470  1.0000
  N   N21       1.0  0.39061  0.73450  0.79104  1.0000
  H   H251      1.0  0.30349  0.68881  0.64058  1.0000
  H   H252      1.0  0.32138  0.63274  0.64121  1.0000
  H   H253      1.0  0.07261  0.81671  0.85093  1.0000
  H   H254      1.0  0.05797  0.87197  0.84312  1.0000
  C   C263      1.0  0.36341  0.80283  0.81650  1.0000
  C   C264      1.0  0.33683  0.79840  0.79836  1.0000
  C   C265      1.0  0.29393  0.78351  0.79975  1.0000
  C   C266      1.0  0.27682  0.77300  0.81924  1.0000
  C   C267      1.0  0.30281  0.77823  0.83747  1.0000
  C   C268      1.0  0.34583  0.79300  0.83607  1.0000
  H   H255      1.0  0.34973  0.80586  0.78321  1.0000
  H   H256      1.0  0.27402  0.77977  0.78557  1.0000
  H   H257      1.0  0.29022  0.77033  0.85257  1.0000
  H   H258      1.0  0.36602  0.79632  0.85021  1.0000
  H   H259      1.0  0.03024  0.96989  0.85334  1.0000
  H   H260      1.0  0.39048  0.75073  0.73103  1.0000
  H   H261      1.0  0.32408  0.71524  0.78645  1.0000
  C   C269      1.0  0.14753  0.82920  0.91174  1.0000
  C   C270      1.0  0.31264  0.67532  0.92580  1.0000
  H   H262      1.0  0.01447  0.64453  0.87527  1.0000
  C   C271      1.0  0.48249  0.96066  0.72683  1.0000
  C   C272      1.0  0.16417  0.80570  0.92462  1.0000
  H   H263      1.0  0.14792  0.76360  0.94069  1.0000
  C   C273      1.0  0.26319  0.62028  0.62209  1.0000
  C   C274      1.0  0.13492  0.78170  0.93060  1.0000
  H   H264      1.0  0.35667  0.72721  0.82046  1.0000
  H   H265      1.0  0.45670  0.75548  0.79135  1.0000
  H   H266      1.0  0.31307  0.77001  0.93495  1.0000
  H   H267      1.0  0.43004  0.86375  0.70965  1.0000
  C   C275      1.0  0.39030  0.74608  0.74787  1.0000
  Fe  Fe48      1.0  0.48345  0.89154  0.75798  1.0000
  C   C276      1.0  0.10178  0.82880  0.90544  1.0000
  C   C277      1.0  0.28115  0.67247  0.63263  1.0000
  H   H268      1.0  0.38242  0.94078  0.71844  1.0000
  C   C278      1.0  0.03239  0.57979  0.84593  1.0000
  H   H269      1.0  0.03796  0.80445  0.90700  1.0000
  S   S95       1.0  0.47584  0.79836  0.71265  1.0000
  H   H270      1.0  0.41174  0.74479  0.82255  1.0000
  C   C279      1.0  0.35359  0.72603  0.77911  1.0000
  H   H271      1.0  0.19959  0.80577  0.92978  1.0000
  C   C280      1.0  0.03183  0.85836  0.85081  1.0000
  N   N22       1.0  0.41628  0.90896  0.69794  1.0000
  H   H272      1.0  0.34726  0.90948  0.70829  1.0000
  H   H273      1.0  0.40741  0.70414  0.81597  1.0000
  H   H274      1.0  0.01103  0.62029  0.80980  1.0000
  C   C281      1.0  0.48959  0.49599  0.68378  1.0000
  C   C282      1.0  0.42794  0.75439  0.76015  1.0000
  C   C283      1.0  0.47044  0.87391  0.68232  1.0000
  H   H275      1.0  0.45719  0.76538  0.75283  1.0000
  C   C284      1.0  0.45771  0.92393  0.66681  1.0000
  C   C285      1.0  0.00629  0.80916  0.86476  1.0000
  C   C286      1.0  0.39173  0.72717  0.81361  1.0000
  C   C287      1.0  0.49590  0.51301  0.70239  1.0000
  C   C288      1.0  0.42542  0.93021  0.68258  1.0000
  C   C289      1.0  0.35272  0.73189  0.75738  1.0000
  H   H276      1.0  0.32306  0.72552  0.74804  1.0000
  H   H277      1.0  0.02288  0.67506  0.81690  1.0000
  H   H278      1.0  0.08821  0.84696  0.89548  1.0000
  Fe  Fe49      1.0  0.45613  0.61565  0.62329  1.0000
  C   C290      1.0  0.38181  0.91585  0.71411  1.0000
  C   C291      1.0  0.04019  0.82705  0.85519  1.0000
  S   S96       1.0  0.46312  0.94063  0.74949  1.0000
  C   C292      1.0  0.07355  0.80448  0.91180  1.0000
  Fe  Fe50      1.0  0.50096  0.56399  0.64989  1.0000
  H   H279      1.0  0.38896  0.90316  0.72896  1.0000
  H   H280      1.0  0.08115  0.73331  0.93122  1.0000
  C   C293      1.0  0.00898  0.62171  0.86874  1.0000
  C   C294      1.0  0.06100  0.75495  0.92945  1.0000
  H   H281      1.0  0.33203  0.65864  0.91590  1.0000
  N   N23       1.0  0.09069  0.78081  0.92359  1.0000
  H   H282      1.0  0.45351  0.75864  0.67768  1.0000
  S   S97       1.0  0.49400  0.51303  0.65844  1.0000
  H   H283      1.0  0.47709  0.70534  0.66776  1.0000
  H   H284      1.0  0.04326  0.76015  0.94455  1.0000
  H   H285      1.0  0.03511  0.75033  0.91693  1.0000
  H   H286      1.0  0.27686  0.67650  0.91984  1.0000
  H   H287      1.0  0.46615  0.94142  0.65519  1.0000
  N   N24       1.0  0.31405  0.66581  0.94798  1.0000
  C   C295      1.0  0.47679  0.74612  0.68775  1.0000
  H   H288      1.0  0.00557  0.71927  0.84054  1.0000
  Fe  Fe51      1.0  0.49443  0.82502  0.74259  1.0000
  H   H289      1.0  0.48788  0.85178  0.68253  1.0000
  C   C296      1.0  0.24355  0.68284  0.62099  1.0000
  H   H290      1.0  0.23691  0.70746  0.62015  1.0000
  C   C297      1.0  0.49670  0.49788  0.72205  1.0000
  H   H291      1.0  0.50090  0.53772  0.70160  1.0000
  H   H292      1.0  0.50202  0.51118  0.73635  1.0000
  H   H293      1.0  0.27150  0.59587  0.62196  1.0000
  Fe  Fe52      1.0  0.95835  0.10639  0.27412  1.0000
  C   C298      1.0  0.79052  0.00569  0.26862  1.0000
  N   N25       1.0  0.55639  0.27314  0.03890  1.0000
  Fe  Fe53      1.0  0.59914  0.43509  0.04411  1.0000
  H   H294      1.0  0.88680  0.44519  0.99542  1.0000
  S   S98       1.0  0.55352  0.39996  0.06039  1.0000
  Fe  Fe54      1.0  0.61782  0.00823  0.02998  1.0000
  S   S99       1.0  0.59255  0.05606  0.01954  1.0000
  Fe  Fe55      1.0  0.69558  0.46180  0.04745  1.0000
  S   S100      1.0  0.76784  0.46122  0.06168  1.0000
  S   S101      1.0  0.57440  0.47105  0.02132  1.0000
  S   S102      1.0  0.66488  0.42479  0.02677  1.0000
  H   H295      1.0  0.73847  0.04023  0.27320  1.0000
  C   C299      1.0  0.53402  0.07929  0.05077  1.0000
  N   N26       1.0  0.86167  0.02370  0.25411  1.0000
  S   S103      1.0  0.96357  0.09475  0.23944  1.0000
  H   H296      1.0  0.53260  0.26007  0.09042  1.0000
  S   S104      1.0  0.99019  0.30287  0.18877  1.0000
  S   S105      1.0  0.95450  0.37050  0.15521  1.0000
  C   C300      1.0  0.53893  0.24664  0.03023  1.0000
  H   H297      1.0  0.72865  0.43171  0.98376  1.0000
  Fe  Fe56      1.0  0.95415  0.35793  0.12081  1.0000
  S   S106      1.0  0.88593  0.35256  0.10334  1.0000
  C   C301      1.0  0.77255  0.03542  0.26724  1.0000
  H   H298      1.0  0.80011  0.41735  0.96490  1.0000
  C   C302      1.0  0.83551  0.00022  0.26202  1.0000
  C   C303      1.0  0.50816  0.13065  0.02662  1.0000
  H   H299      1.0  0.53963  0.24308  0.01326  1.0000
  H   H300      1.0  0.80857  0.00252  0.96569  1.0000
  C   C304      1.0  0.53468  0.25596  0.07353  1.0000
  C   C305      1.0  0.55459  0.27798  0.06027  1.0000
  H   H301      1.0  0.56088  0.29801  0.01007  1.0000
  H   H302      1.0  0.54147  0.38827  0.01539  1.0000
  C   C306      1.0  0.55288  0.08295  0.03062  1.0000
  H   H303      1.0  0.93235  0.02710  0.26118  1.0000
  C   C307      1.0  0.53981  0.10884  0.01866  1.0000
  C   C308      1.0  0.99769  0.21977  0.21832  1.0000
  H   H304      1.0  0.55427  0.11199  0.00309  1.0000
  C   C309      1.0  0.52139  0.37236  0.04617  1.0000
  H   H305      1.0  0.54378  0.05965  0.06022  1.0000
  C   C310      1.0  0.83237  0.46847  0.01199  1.0000
  C   C311      1.0  0.51942  0.22397  0.04306  1.0000
  C   C312      1.0  0.57950  0.29555  0.02528  1.0000
  C   C313      1.0  0.79944  0.43057  0.07348  1.0000
  C   C314      1.0  0.84246  0.43711  0.08248  1.0000
  C   C315      1.0  0.86913  0.41365  0.09177  1.0000
  C   C316      1.0  0.85328  0.38316  0.09205  1.0000
  C   C317      1.0  0.81033  0.37657  0.08298  1.0000
  C   C318      1.0  0.78350  0.40009  0.07380  1.0000
  H   H306      1.0  0.85521  0.46056  0.08237  1.0000
  H   H307      1.0  0.90201  0.41918  0.09866  1.0000
  H   H308      1.0  0.79766  0.35312  0.08305  1.0000
  H   H309      1.0  0.75060  0.39462  0.06692  1.0000
  C   C319      1.0  0.51733  0.22869  0.06484  1.0000
  H   H310      1.0  0.79893  0.47004  0.27842  1.0000
  H   H311      1.0  0.58052  0.31888  0.03270  1.0000
  C   C320      1.0  0.85936  0.46192  0.99434  1.0000
  Fe  Fe57      1.0  0.64329  0.46401  0.00578  1.0000
  N   N27       1.0  0.88990  0.28418  0.15468  1.0000
  C   C321      1.0  0.89759  0.27706  0.13390  1.0000
  C   C322      1.0  0.90030  0.26340  0.17013  1.0000
  C   C323      1.0  0.91763  0.24890  0.12821  1.0000
  C   C324      1.0  0.91986  0.23488  0.16499  1.0000
  C   C325      1.0  0.92900  0.22777  0.14391  1.0000
  C   C326      1.0  0.86924  0.31379  0.16058  1.0000
  H   H312      1.0  0.88905  0.29341  0.12160  1.0000
  H   H313      1.0  0.89506  0.26929  0.18664  1.0000
  H   H314      1.0  0.92476  0.24378  0.11175  1.0000
  H   H315      1.0  0.92935  0.21888  0.17739  1.0000
  H   H316      1.0  0.94534  0.20607  0.13982  1.0000
  H   H317      1.0  0.83305  0.31035  0.16530  1.0000
  H   H318      1.0  0.78680  0.08273  0.25903  1.0000
  H   H319      1.0  0.87013  0.33053  0.14730  1.0000
  H   H320      1.0  0.61510  0.28799  0.02207  1.0000
  H   H321      1.0  0.88846  0.32443  0.17395  1.0000
  C   C327      1.0  0.73381  0.43875  0.96756  1.0000
  H   H322      1.0  0.98625  0.21027  0.23319  1.0000
  H   H323      1.0  0.56803  0.29915  0.06712  1.0000
  H   H324      1.0  0.50565  0.20293  0.03621  1.0000
  C   C328      1.0  0.70003  0.45576  0.95723  1.0000
  C   C329      1.0  0.51300  0.47528  0.07620  1.0000
  H   H325      1.0  0.86589  0.07189  0.24763  1.0000
  C   C330      1.0  0.77420  0.43061  0.95683  1.0000
  C   C331      1.0  0.90957  0.01820  0.24847  1.0000
  S   S107      1.0  0.69097  0.99268  0.02456  1.0000
  H   H326      1.0  0.53688  0.45772  0.08135  1.0000
  C   C332      1.0  0.84439  0.05295  0.25281  1.0000
  C   C333      1.0  0.79956  0.05923  0.25924  1.0000
  H   H327      1.0  0.97135  0.26537  0.22485  1.0000
  H   H328      1.0  0.91861  0.02999  0.23348  1.0000
  S   S108      1.0  0.63127  0.46994  0.06614  1.0000
  S   S109      1.0  0.61356  0.98426  0.06139  1.0000
  S   S110      1.0  0.64904  0.46662  0.97013  1.0000
  C   C334      1.0  0.98939  0.25103  0.21356  1.0000
  H   H329      1.0  0.83858  0.45701  0.02696  1.0000
  H   H330      1.0  0.91720  0.99329  0.24611  1.0000
  H   H331      1.0  0.77048  0.98739  0.27576  1.0000
  H   H332      1.0  0.87120  0.47148  0.96152  1.0000
  S   S111      1.0  0.00031  0.31650  0.12524  1.0000
  C   C335      1.0  0.52192  0.37136  0.02412  1.0000
  C   C336      1.0  0.85041  0.47694  0.97525  1.0000
  H   H333      1.0  0.88096  0.46682  0.26878  1.0000
  C   C337      1.0  0.50301  0.10138  0.05888  1.0000
  S   S112      1.0  0.77210  0.00503  0.58066  1.0000
  H   H334      1.0  0.55287  0.24190  0.31405  1.0000
  S   S113      1.0  0.62344  0.10877  0.60301  1.0000
  C   C338      1.0  0.72441  0.98321  0.43497  1.0000
  S   S114      1.0  0.95736  0.06165  0.51772  1.0000
  H   H335      1.0  0.50360  0.21867  0.32055  1.0000
  Fe  Fe58      1.0  0.60588  0.03085  0.35046  1.0000
  C   C339      1.0  0.97325  0.20641  0.51119  1.0000
  S   S115      1.0  0.55504  0.06198  0.33387  1.0000
  Fe  Fe59      1.0  0.61990  0.46206  0.36687  1.0000
  S   S116      1.0  0.57930  0.41884  0.37687  1.0000
  H   H336      1.0  0.50484  0.35894  0.31924  1.0000
  H   H337      1.0  0.84395  0.44637  0.40065  1.0000
  C   C340      1.0  0.76882  0.01203  0.46906  1.0000
  S   S117      1.0  0.67690  0.04531  0.35977  1.0000
  C   C341      1.0  0.68917  0.02228  0.51824  1.0000
  S   S118      1.0  0.83401  0.02463  0.52492  1.0000
  S   S119      1.0  0.88775  0.10850  0.28998  1.0000
  Fe  Fe60      1.0  0.91655  0.45507  0.54766  1.0000
  H   H338      1.0  0.78645  0.02336  0.48196  1.0000
  S   S120      1.0  0.96053  0.41711  0.56299  1.0000
  Fe  Fe61      1.0  0.91047  0.02398  0.53015  1.0000
  H   H339      1.0  0.61626  0.07002  0.54466  1.0000
  C   C342      1.0  0.52458  0.22303  0.36008  1.0000
  C   C343      1.0  0.98369  0.23735  0.50747  1.0000
  H   H340      1.0  0.52358  0.37243  0.39638  1.0000
  S   S121      1.0  0.84019  0.45092  0.54411  1.0000
  S   S122      1.0  0.69341  0.47020  0.37675  1.0000
  C   C344      1.0  0.55598  0.28018  0.37368  1.0000
  S   S123      1.0  0.76701  0.99780  0.32665  1.0000
  C   C345      1.0  0.75800  0.46355  0.45001  1.0000
  H   H341      1.0  0.98499  0.24611  0.49147  1.0000
  H   H342      1.0  0.95447  0.07984  0.56234  1.0000
  H   H343      1.0  0.75867  0.06875  0.39002  1.0000
  H   H344      1.0  0.71391  0.46957  0.42301  1.0000
  H   H345      1.0  0.98396  0.20646  0.56448  1.0000
  N   N28       1.0  0.69305  0.99939  0.53292  1.0000
  C   C346      1.0  0.98308  0.21553  0.54854  1.0000
  C   C347      1.0  0.51101  0.12096  0.37979  1.0000
  H   H346      1.0  0.55876  0.08298  0.37761  1.0000
  S   S124      1.0  0.90606  0.00326  0.56263  1.0000
  H   H347      1.0  0.86077  0.00086  0.31281  1.0000
  S   S125      1.0  0.81474  0.45522  0.48378  1.0000
  C   C348      1.0  0.54286  0.38977  0.36578  1.0000
  C   C349      1.0  0.78026  0.47784  0.46709  1.0000
  H   H348      1.0  0.70003  0.00781  0.61125  1.0000
  N   N29       1.0  0.53082  0.24628  0.34583  1.0000
  Fe  Fe62      1.0  0.82989  0.00060  0.55630  1.0000
  C   C350      1.0  0.80214  0.02962  0.31916  1.0000
  C   C351      1.0  0.84722  0.02407  0.31228  1.0000
  C   C352      1.0  0.87460  0.04812  0.30412  1.0000
  C   C353      1.0  0.85711  0.07810  0.30263  1.0000
  C   C354      1.0  0.81264  0.08385  0.31025  1.0000
  C   C355      1.0  0.78534  0.05984  0.31852  1.0000
  H   H349      1.0  0.73785  0.05394  0.45759  1.0000
  C   C356      1.0  0.63712  0.04993  0.54110  1.0000
  H   H350      1.0  0.75076  0.06458  0.32368  1.0000
  H   H351      1.0  0.98687  0.28882  0.56092  1.0000
  H   H352      1.0  0.76211  0.43900  0.44738  1.0000
  C   C357      1.0  0.71591  0.46658  0.54377  1.0000
  Fe  Fe63      1.0  0.66489  0.01700  0.38894  1.0000
  C   C358      1.0  0.99344  0.25690  0.52456  1.0000
  H   H353      1.0  0.67227  0.98290  0.56314  1.0000
  C   C359      1.0  0.53700  0.38583  0.34399  1.0000
  S   S126      1.0  0.92552  0.47588  0.51554  1.0000
  C   C360      1.0  0.73067  0.48082  0.43617  1.0000
  S   S127      1.0  0.68832  0.03777  0.42007  1.0000
  C   C361      1.0  0.66563  0.08016  0.59750  1.0000
  H   H354      1.0  0.99672  0.12070  0.58208  1.0000
  C   C362      1.0  0.52792  0.09263  0.34751  1.0000
  C   C363      1.0  0.73292  0.03509  0.58723  1.0000
  C   C364      1.0  0.73227  0.06341  0.57670  1.0000
  C   C365      1.0  0.69892  0.08583  0.58188  1.0000
  H   H355      1.0  0.85632  0.47880  0.43272  1.0000
  C   C366      1.0  0.54885  0.25679  0.38838  1.0000
  H   H356      1.0  0.75729  0.06799  0.56451  1.0000
  H   H357      1.0  0.69874  0.10761  0.57362  1.0000
  H   H358      1.0  0.78064  0.07236  0.41606  1.0000
  C   C367      1.0  0.98714  0.08979  0.53267  1.0000
  H   H359      1.0  0.82684  0.03226  0.43108  1.0000
  H   H360      1.0  0.55496  0.40079  0.33316  1.0000
  C   C368      1.0  0.69993  0.02961  0.60299  1.0000
  H   H361      1.0  0.70779  0.02081  0.50344  1.0000
  H   H362      1.0  0.55160  0.29291  0.34103  1.0000
  H   H363      1.0  0.81805  0.07969  0.39369  1.0000
  C   C369      1.0  0.51943  0.36968  0.37949  1.0000
  C   C370      1.0  0.99551  0.38651  0.55290  1.0000
  N   N30       1.0  0.80342  0.03246  0.39915  1.0000
  C   C371      1.0  0.53507  0.09750  0.36910  1.0000
  H   H364      1.0  0.74544  0.44916  0.51489  1.0000
  C   C372      1.0  0.66646  0.05191  0.60808  1.0000
  H   H365      1.0  0.96487  0.17138  0.53494  1.0000
  C   C373      1.0  0.83526  0.98801  0.41626  1.0000
  C   C374      1.0  0.52075  0.24123  0.32339  1.0000
  C   C375      1.0  0.74140  0.02931  0.45522  1.0000
  C   C376      1.0  0.78986  0.06501  0.39975  1.0000
  H   H366      1.0  0.96623  0.19082  0.49811  1.0000
  C   C377      1.0  0.66867  0.00082  0.55135  1.0000
  C   C378      1.0  0.64020  0.02601  0.55567  1.0000
  H   H367      1.0  0.90890  0.04334  0.29860  1.0000
  C   C379      1.0  0.97939  0.09403  0.55428  1.0000
  S   S128      1.0  0.59160  0.00662  0.38094  1.0000
  C   C380      1.0  0.54699  0.27441  0.35232  1.0000
  C   C381      1.0  0.00191  0.38140  0.53125  1.0000
  C   C382      1.0  0.71956  0.01501  0.43799  1.0000
  C   C383      1.0  0.53341  0.22794  0.38155  1.0000
  H   H368      1.0  0.80887  0.46971  0.36863  1.0000
  C   C384      1.0  0.79847  0.01592  0.38084  1.0000
  Fe  Fe64      1.0  0.69936  0.00082  0.34496  1.0000
  C   C385      1.0  0.97256  0.19545  0.53185  1.0000
  H   H369      1.0  0.73662  0.45216  0.55396  1.0000
  C   C386      1.0  0.82254  0.01913  0.41659  1.0000
  H   H370      1.0  0.62186  0.02747  0.57055  1.0000
  S   S129      1.0  0.62860  0.98759  0.33340  1.0000
  C   C387      1.0  0.72111  0.46513  0.52190  1.0000
  C   C388      1.0  0.50856  0.36195  0.33612  1.0000
  H   H371      1.0  0.65926  0.06644  0.51068  1.0000
  H   H372      1.0  0.51206  0.20063  0.35500  1.0000
  H   H373      1.0  0.79875  0.10693  0.30927  1.0000
  C   C389      1.0  0.66152  0.04804  0.52218  1.0000
  H   H374      1.0  0.98463  0.39598  0.51998  1.0000
  H   H375      1.0  0.78419  0.02667  0.36690  1.0000
  H   H376      1.0  0.51649  0.12441  0.39654  1.0000
  N   N31       1.0  0.99310  0.24587  0.54476  1.0000
  H   H377      1.0  0.52732  0.20958  0.39283  1.0000
  H   H378      1.0  0.56750  0.30286  0.37877  1.0000
  Fe  Fe65      1.0  0.84888  0.47505  0.51302  1.0000
  H   H379      1.0  0.55487  0.26108  0.40504  1.0000
  H   H380      1.0  0.52805  0.45652  0.34541  1.0000
  C   C390      1.0  0.81108  0.98481  0.37990  1.0000
  C   C391      1.0  0.83435  0.47055  0.40064  1.0000
  H   H381      1.0  0.99736  0.25642  0.57785  1.0000
  H   H382      1.0  0.00212  0.28084  0.52154  1.0000
  S   S130      1.0  0.55568  0.36580  0.74585  1.0000
  Fe  Fe66      1.0  0.51895  0.12742  0.66638  1.0000
  Fe  Fe67      1.0  0.55550  0.35141  0.77987  1.0000
  S   S131      1.0  0.61908  0.34851  0.80095  1.0000
  S   S132      1.0  0.99073  0.41707  0.85377  1.0000
  C   C392      1.0  0.59120  0.43227  0.68349  1.0000
  S   S133      1.0  0.57076  0.09016  0.65958  1.0000
  N   N32       1.0  0.64059  0.15958  0.67247  1.0000
  C   C393      1.0  0.95828  0.29777  0.88899  1.0000
  Fe  Fe68      1.0  0.82372  0.45754  0.84501  1.0000
  S   S134      1.0  0.85304  0.41802  0.86366  1.0000
  S   S135      1.0  0.76323  0.45553  0.82189  1.0000
  Fe  Fe69      1.0  0.89880  0.00803  0.85370  1.0000
  C   C394      1.0  0.60872  0.46038  0.83148  1.0000
  S   S136      1.0  0.92759  0.05247  0.83938  1.0000
  Fe  Fe70      1.0  0.92140  0.43999  0.85712  1.0000
  H   H383      1.0  0.58460  0.46437  0.65771  1.0000
  C   C395      1.0  0.62675  0.18791  0.67965  1.0000
  N   N33       1.0  0.95140  0.35976  0.90021  1.0000
  S   S137      1.0  0.51755  0.00826  0.66415  1.0000
  S   S138      1.0  0.82997  0.00378  0.86913  1.0000
  H   H384      1.0  0.68445  0.43931  0.88657  1.0000
  H   H385      1.0  0.72300  0.44801  0.86499  1.0000
  H   H386      1.0  0.71073  0.40882  0.87110  1.0000
  C   C396      1.0  0.61858  0.20562  0.64380  1.0000
  C   C397      1.0  0.74777  0.45701  0.92557  1.0000
  C   C398      1.0  0.61578  0.21139  0.66546  1.0000
  C   C399      1.0  0.96370  0.35805  0.84285  1.0000
  H   H387      1.0  0.59659  0.40661  0.71226  1.0000
  H   H388      1.0  0.93100  0.36790  0.83859  1.0000
  H   H389      1.0  0.94527  0.31186  0.83320  1.0000
  H   H390      1.0  0.95105  0.39491  0.92372  1.0000
  S   S139      1.0  0.52748  0.15620  0.69627  1.0000
  C   C400      1.0  0.74055  0.02042  0.91426  1.0000
  C   C401      1.0  0.50886  0.26070  0.70630  1.0000
  H   H391      1.0  0.63683  0.38631  0.86231  1.0000
  H   H392      1.0  0.60412  0.23365  0.67131  1.0000
  C   C402      1.0  0.66143  0.37756  0.80496  1.0000
  C   C403      1.0  0.65888  0.40639  0.79519  1.0000
  C   C404      1.0  0.69127  0.42956  0.80005  1.0000
  C   C405      1.0  0.72652  0.42432  0.81475  1.0000
  C   C406      1.0  0.72975  0.39524  0.82413  1.0000
  C   C407      1.0  0.69739  0.37204  0.81925  1.0000
  H   H393      1.0  0.63144  0.41099  0.78421  1.0000
  C   C408      1.0  0.70688  0.46450  0.93613  1.0000
  H   H394      1.0  0.75683  0.39073  0.83532  1.0000
  H   H395      1.0  0.69986  0.34976  0.82680  1.0000
  H   H396      1.0  0.64121  0.04714  0.62015  1.0000
  H   H397      1.0  0.75332  0.46463  0.90955  1.0000
  H   H398      1.0  0.52120  0.25085  0.73905  1.0000
  H   H399      1.0  0.63324  0.00165  0.79012  1.0000
  Fe  Fe71      1.0  0.51037  0.05886  0.65461  1.0000
  C   C409      1.0  0.69537  0.43225  0.87045  1.0000
  S   S140      1.0  0.89306  0.47724  0.83606  1.0000
  H   H400      1.0  0.98294  0.05091  0.87816  1.0000
  C   C410      1.0  0.99588  0.31326  0.89753  1.0000
  C   C411      1.0  0.63267  0.17666  0.63660  1.0000
  C   C412      1.0  0.59111  0.40762  0.84032  1.0000
  H   H401      1.0  0.53018  0.19442  0.73323  1.0000
  C   C413      1.0  0.65084  0.13533  0.68780  1.0000
  C   C414      1.0  0.62879  0.40737  0.85394  1.0000
  H   H402      1.0  0.58393  0.41206  0.67388  1.0000
  H   H403      1.0  0.63453  0.17169  0.61979  1.0000
  H   H404      1.0  0.64947  0.45161  0.74406  1.0000
  H   H405      1.0  0.57083  0.38687  0.83791  1.0000
  H   H406      1.0  0.88794  0.30178  0.87927  1.0000
  C   C415      1.0  0.64635  0.45926  0.84513  1.0000
  H   H407      1.0  0.62285  0.19220  0.69647  1.0000
  H   H408      1.0  0.60941  0.22344  0.63262  1.0000
  H   H409      1.0  0.88213  0.35681  0.88972  1.0000
  C   C416      1.0  0.61232  0.45164  0.74042  1.0000
  S   S141      1.0  0.51558  0.14343  0.63270  1.0000
  H   H410      1.0  0.65409  0.13122  0.64540  1.0000
  Fe  Fe72      1.0  0.50337  0.32800  0.74079  1.0000
  C   C417      1.0  0.98445  0.10330  0.83844  1.0000
  H   H411      1.0  0.72393  0.03996  0.90601  1.0000
  C   C418      1.0  0.51868  0.19637  0.69963  1.0000
  C   C419      1.0  0.78168  0.44021  0.93597  1.0000
  H   H412      1.0  0.68848  0.45194  0.79267  1.0000
  H   H413      1.0  0.97585  0.40590  0.89857  1.0000
  H   H414      1.0  0.66537  0.11438  0.68012  1.0000
  H   H415      1.0  0.59513  0.47066  0.74922  1.0000
  C   C420      1.0  0.99835  0.37702  0.85082  1.0000
  H   H416      1.0  0.67593  0.14383  0.69966  1.0000
  C   C421      1.0  0.59806  0.42937  0.70526  1.0000
  S   S142      1.0  0.92019  0.47001  0.88609  1.0000
  S   S143      1.0  0.83500  0.43271  0.92396  1.0000
  H   H417      1.0  0.59680  0.42994  0.74641  1.0000
  H   H418      1.0  0.96159  0.27389  0.88387  1.0000
  C   C422      1.0  0.97066  0.07724  0.85003  1.0000
  C   C423      1.0  0.91416  0.34467  0.89207  1.0000
  H   H419      1.0  0.96723  0.10865  0.82379  1.0000
  N   N34       1.0  0.65618  0.43287  0.85599  1.0000
  Fe  Fe73      1.0  0.84987  0.45097  0.89120  1.0000
  H   H420      1.0  0.91518  0.40277  0.90145  1.0000
  C   C424      1.0  0.64367  0.15377  0.65123  1.0000
  C   C425      1.0  0.94822  0.39237  0.90632  1.0000
  C   C426      1.0  0.50683  0.99213  0.68935  1.0000
  C   C427      1.0  0.58110  0.43431  0.82901  1.0000
  C   C428      1.0  0.97194  0.32639  0.83973  1.0000
  H   H421      1.0  0.55264  0.43448  0.81799  1.0000
  Fe  Fe74      1.0  0.56268  0.10305  0.62554  1.0000
  N   N35       1.0  0.60505  0.45495  0.71764  1.0000
  H   H422      1.0  0.61890  0.12845  0.69612  1.0000
  H   H423      1.0  0.73994  0.98280  0.88080  1.0000
  C   C429      1.0  0.99314  0.07077  0.86900  1.0000
  C   C430      1.0  0.99680  0.98842  0.81604  1.0000
  C   C431      1.0  0.91709  0.31350  0.88627  1.0000
  C   C432      1.0  0.59198  0.46152  0.67439  1.0000
  S   S144      1.0  0.50800  0.31068  0.77429  1.0000
  C   C433      1.0  0.50927  0.21576  0.68260  1.0000
  S   S145      1.0  0.85168  0.98400  0.92730  1.0000
  C   C434      1.0  0.51779  0.24122  0.72332  1.0000
  H   H424      1.0  0.74516  0.02638  0.93122  1.0000
  H   H425      1.0  0.96537  0.00253  0.81407  1.0000
  C   C435      1.0  0.52286  0.20924  0.71996  1.0000
  C   C436      1.0  0.99185  0.34448  0.90302  1.0000
  H   H426      1.0  0.77558  0.01718  0.90778  1.0000
  H   H427      1.0  0.50617  0.20616  0.66686  1.0000
  S   S146      1.0  0.50358  0.30120  0.70954  1.0000
  C   C437      1.0  0.50463  0.24780  0.68594  1.0000
  N   N36       1.0  0.71334  0.99223  0.91156  1.0000
  H   H428      1.0  0.68056  0.99644  0.94158  1.0000
  H   H429      1.0  0.68077  0.47766  0.92810  1.0000
  S   S147      1.0  0.50481  0.06993  0.61990  1.0000
  C   C438      1.0  0.68334  0.98336  0.92698  1.0000
  H   H430      1.0  0.60176  0.48105  0.82247  1.0000
  H   H431      1.0  0.66853  0.47928  0.84648  1.0000
  H   H432      1.0  0.55189  0.88034  0.09205  1.0000
  C   C439      1.0  0.66642  0.88341  0.10099  1.0000
  C   C440      1.0  0.81534  0.48892  0.27012  1.0000
  Fe  Fe75      1.0  0.58835  0.94316  0.04285  1.0000
  H   H433      1.0  0.62094  0.84702  0.09063  1.0000
  C   C441      1.0  0.89056  0.74640  0.17490  1.0000
  Fe  Fe76      1.0  0.61056  0.50547  0.04203  1.0000
  S   S148      1.0  0.58364  0.55290  0.05286  1.0000
  C   C442      1.0  0.93212  0.51056  0.25075  1.0000
  S   S149      1.0  0.74127  0.96356  0.07896  1.0000
  N   N37       1.0  0.89904  0.75773  0.15515  1.0000
  S   S150      1.0  0.65782  0.92216  0.03834  1.0000
  C   C443      1.0  0.73289  0.94271  0.96504  1.0000
  H   H434      1.0  0.96175  0.69871  0.13519  1.0000
  C   C444      1.0  0.92428  0.74094  0.14096  1.0000
  H   H435      1.0  0.54054  0.51037  0.09660  1.0000
  H   H436      1.0  0.94566  0.67755  0.17088  1.0000
  C   C445      1.0  0.54899  0.82773  0.04780  1.0000
  S   S151      1.0  0.94855  0.86880  0.15272  1.0000
  C   C446      1.0  0.90636  0.71716  0.18068  1.0000
  H   H437      1.0  0.95145  0.52244  0.26355  1.0000
  Fe  Fe77      1.0  0.94534  0.85507  0.11853  1.0000
  S   S152      1.0  0.87961  0.85300  0.09878  1.0000
  C   C447      1.0  0.78836  0.50397  0.99096  1.0000
  C   C448      1.0  0.85008  0.89491  0.02948  1.0000
  H   H438      1.0  0.94134  0.91347  0.04486  1.0000
  Fe  Fe78      1.0  0.95510  0.60377  0.27240  1.0000
  C   C449      1.0  0.93172  0.69976  0.16626  1.0000
  H   H439      1.0  0.90067  0.70857  0.19653  1.0000
  N   N38       1.0  0.86895  0.91603  0.04308  1.0000
  H   H440      1.0  0.96431  0.76309  0.22344  1.0000
  H   H441      1.0  0.82010  0.53723  0.95456  1.0000
  H   H442      1.0  0.91125  0.88338  0.05897  1.0000
  C   C450      1.0  0.53754  0.57647  0.04387  1.0000
  C   C451      1.0  0.53623  0.88241  0.99739  1.0000
  C   C452      1.0  0.79078  0.51572  0.26576  1.0000
  S   S153      1.0  0.67798  0.50061  0.02515  1.0000
  H   H443      1.0  0.55905  0.61554  0.06265  1.0000
  C   C453      1.0  0.51456  0.50499  0.08492  1.0000
  C   C454      1.0  0.55478  0.85992  0.04828  1.0000
  H   H444      1.0  0.52241  0.90206  0.00681  1.0000
  H   H445      1.0  0.58861  0.86979  0.04686  1.0000
  H   H446      1.0  0.57844  0.81285  0.04589  1.0000
  C   C455      1.0  0.77885  0.93230  0.08445  1.0000
  C   C456      1.0  0.81525  0.93693  0.09865  1.0000
  C   C457      1.0  0.84611  0.91291  0.10336  1.0000
  C   C458      1.0  0.84074  0.88379  0.09401  1.0000
  C   C459      1.0  0.80403  0.87906  0.07995  1.0000
  C   C460      1.0  0.77335  0.90315  0.07513  1.0000
  H   H447      1.0  0.81981  0.95932  0.10602  1.0000
  H   H448      1.0  0.87409  0.91694  0.11423  1.0000
  H   H449      1.0  0.79958  0.85666  0.07259  1.0000
  H   H450      1.0  0.74561  0.89918  0.06415  1.0000
  Fe  Fe79      1.0  0.68396  0.96489  0.05442  1.0000
  H   H451      1.0  0.79546  0.88534  0.00727  1.0000
  C   C461      1.0  0.81274  0.54052  0.25610  1.0000
  S   S154      1.0  0.52291  0.91952  0.05279  1.0000
  Fe  Fe80      1.0  0.66083  0.95086  0.00883  1.0000
  C   C462      1.0  0.91081  0.90825  0.05465  1.0000
  H   H452      1.0  0.79460  0.56200  0.25352  1.0000
  H   H453      1.0  0.55916  0.82269  0.99618  1.0000
  S   S155      1.0  0.58870  0.96790  0.01189  1.0000
  H   H454      1.0  0.91317  0.92133  0.06977  1.0000
  C   C463      1.0  0.85013  0.94480  0.04521  1.0000
  C   C464      1.0  0.51685  0.87914  0.05104  1.0000
  C   C465      1.0  0.85920  0.53822  0.25103  1.0000
  S   S156      1.0  0.68496  0.92789  0.97861  1.0000
  H   H455      1.0  0.93215  0.75021  0.12551  1.0000
  Fe  Fe81      1.0  0.99456  0.82730  0.15678  1.0000
  C   C466      1.0  0.66936  0.91441  0.10719  1.0000
  N   N39       1.0  0.81490  0.49739  0.97371  1.0000
  H   H456      1.0  0.75530  0.51768  0.27064  1.0000
  C   C467      1.0  0.63529  0.96493  0.11442  1.0000
  H   H457      1.0  0.86528  0.87223  0.02763  1.0000
  S   S157      1.0  0.97255  0.59047  0.23886  1.0000
  C   C468      1.0  0.58952  0.92080  0.10193  1.0000
  H   H458      1.0  0.90101  0.80634  0.15873  1.0000
  C   C469      1.0  0.50522  0.81461  0.04960  1.0000
  C   C470      1.0  0.75474  0.96970  0.97184  1.0000
  H   H459      1.0  0.88612  0.79356  0.13252  1.0000
  C   C471      1.0  0.94096  0.71172  0.14629  1.0000
  C   C472      1.0  0.88199  0.78848  0.14963  1.0000
  H   H460      1.0  0.98352  0.70895  0.23274  1.0000
  H   H461      1.0  0.75986  0.93683  0.01176  1.0000
  H   H462      1.0  0.69694  0.86916  0.10053  1.0000
  N   N40       1.0  0.50521  0.85577  0.99809  1.0000
  C   C473      1.0  0.81064  0.95272  0.03400  1.0000
  H   H463      1.0  0.52133  0.56597  0.09006  1.0000
  S   S158      1.0  0.98687  0.81151  0.12298  1.0000
  H   H464      1.0  0.87262  0.76037  0.18650  1.0000
  H   H465      1.0  0.84978  0.97731  0.26388  1.0000
  H   H466      1.0  0.70236  0.92381  0.11175  1.0000
  N   N41       1.0  0.63130  0.93276  0.10733  1.0000
  H   H467      1.0  0.87649  0.55816  0.24446  1.0000
  C   C474      1.0  0.86177  0.48737  0.26477  1.0000
  C   C475      1.0  0.81065  0.90211  0.01797  1.0000
  C   C476      1.0  0.58518  0.88973  0.09618  1.0000
  C   C477      1.0  0.62395  0.87103  0.09547  1.0000
  C   C478      1.0  0.99531  0.71855  0.21796  1.0000
  C   C479      1.0  0.79075  0.93115  0.02038  1.0000
  C   C480      1.0  0.53297  0.60657  0.05216  1.0000
  C   C481      1.0  0.80617  0.51341  0.95378  1.0000
  N   N42       1.0  0.88296  0.51177  0.25521  1.0000
  H   H468      1.0  0.84503  0.79049  0.15343  1.0000
  C   C482      1.0  0.99819  0.76180  0.19318  1.0000
  H   H469      1.0  0.54122  0.88991  0.98082  1.0000
  H   H470      1.0  0.55919  0.93522  0.10188  1.0000
  C   C483      1.0  0.79699  0.48982  0.01034  1.0000
  S   S159      1.0  0.99558  0.64829  0.27078  1.0000
  C   C484      1.0  0.98439  0.74921  0.21262  1.0000
  S   S160      1.0  0.97905  0.79927  0.18636  1.0000
  H   H471      1.0  0.86485  0.96156  0.05604  1.0000
  H   H472      1.0  0.63861  0.96587  0.13188  1.0000
  H   H473      1.0  0.76002  0.52003  0.98977  1.0000
  H   H474      1.0  0.74301  0.98159  0.98585  1.0000
  H   H475      1.0  0.94015  0.52200  0.23552  1.0000
  H   H476      1.0  0.57013  0.87676  0.00431  1.0000
  H   H477      1.0  0.77627  0.49525  0.02406  1.0000
  C   C485      1.0  0.52253  0.82649  0.99674  1.0000
  C   C486      1.0  0.50343  0.56531  0.03031  1.0000
  H   H478      1.0  0.94486  0.48647  0.24942  1.0000
  H   H479      1.0  0.50641  0.54230  0.02373  1.0000
  H   H480      1.0  0.66590  0.97601  0.10723  1.0000
  H   H481      1.0  0.79503  0.97522  0.03624  1.0000
  H   H482      1.0  0.50705  0.77762  0.99659  1.0000
  H   H483      1.0  0.60514  0.97887  0.10966  1.0000
  C   C487      1.0  0.79171  0.98166  0.96031  1.0000
  H   H484      1.0  0.00121  0.51260  0.17105  1.0000
  S   S161      1.0  0.88087  0.60225  0.28403  1.0000
  C   C488      1.0  0.51226  0.85941  0.33432  1.0000
  C   C489      1.0  0.66882  0.55089  0.60665  1.0000
  C   C490      1.0  0.84879  0.52166  0.31429  1.0000
  C   C491      1.0  0.75125  0.96589  0.44898  1.0000
  C   C492      1.0  0.98747  0.58994  0.53257  1.0000
  C   C493      1.0  0.84150  0.48876  0.41858  1.0000
  Fe  Fe82      1.0  0.60962  0.52905  0.35243  1.0000
  Fe  Fe83      1.0  0.70188  0.49762  0.34672  1.0000
  S   S162      1.0  0.55827  0.56031  0.33640  1.0000
  Fe  Fe84      1.0  0.61830  0.96375  0.36467  1.0000
  S   S163      1.0  0.57943  0.91954  0.37427  1.0000
  H   H485      1.0  0.53639  0.62811  0.39817  1.0000
  C   C494      1.0  0.53998  0.88390  0.34185  1.0000
  C   C495      1.0  0.62711  0.52851  0.54923  1.0000
  S   S164      1.0  0.68119  0.54261  0.36143  1.0000
  H   H486      1.0  0.78568  0.52447  0.36926  1.0000
  S   S165      1.0  0.83822  0.52249  0.52653  1.0000
  H   H487      1.0  0.78320  0.57201  0.41745  1.0000
  Fe  Fe85      1.0  0.91225  0.95705  0.54592  1.0000
  C   C496      1.0  0.80660  0.57746  0.30471  1.0000
  S   S166      1.0  0.95559  0.91853  0.56084  1.0000
  Fe  Fe86      1.0  0.91477  0.52199  0.53144  1.0000
  C   C497      1.0  0.85281  0.57321  0.29912  1.0000
  H   H488      1.0  0.56657  0.69464  0.37315  1.0000
  H   H489      1.0  0.70142  0.95440  0.52010  1.0000
  H   H490      1.0  0.79144  0.52077  0.48360  1.0000
  S   S167      1.0  0.83609  0.95288  0.54217  1.0000
  C   C498      1.0  0.99882  0.88573  0.52820  1.0000
  C   C499      1.0  0.98465  0.59233  0.55457  1.0000
  C   C500      1.0  0.68446  0.48727  0.55256  1.0000
  S   S168      1.0  0.91105  0.50158  0.56401  1.0000
  C   C501      1.0  0.74664  0.52674  0.45678  1.0000
  H   H491      1.0  0.55396  0.66912  0.30791  1.0000
  H   H492      1.0  0.63798  0.55250  0.54562  1.0000
  C   C502      1.0  0.70504  0.52978  0.60377  1.0000
  H   H493      1.0  0.70748  0.97191  0.42186  1.0000
  N   N43       1.0  0.80713  0.53200  0.40107  1.0000
  C   C503      1.0  0.98926  0.88795  0.54982  1.0000
  N   N44       1.0  0.54071  0.72947  0.35269  1.0000
  S   S169      1.0  0.59517  0.50545  0.38308  1.0000
  C   C504      1.0  0.54593  0.59780  0.37139  1.0000
  C   C505      1.0  0.77448  0.50953  0.47047  1.0000
  H   H494      1.0  0.57229  0.58427  0.37895  1.0000
  C   C506      1.0  0.54540  0.88878  0.36358  1.0000
  C   C507      1.0  0.82792  0.51971  0.41846  1.0000
  H   H495      1.0  0.83813  0.94646  0.39744  1.0000
  H   H496      1.0  0.76166  0.56762  0.39140  1.0000
  H   H497      1.0  0.98036  0.74588  0.49009  1.0000
  C   C508      1.0  0.80218  0.52560  0.31925  1.0000
  H   H498      1.0  0.51656  0.48918  0.32923  1.0000
  C   C509      1.0  0.53271  0.59088  0.35069  1.0000
  H   H499      1.0  0.75129  0.97868  0.51828  1.0000
  Fe  Fe87      1.0  0.84482  0.97734  0.51125  1.0000
  C   C510      1.0  0.78148  0.55391  0.31480  1.0000
  H   H500      1.0  0.83286  0.53355  0.43260  1.0000
  H   H501      1.0  0.90960  0.54174  0.30031  1.0000
  H   H502      1.0  0.74567  0.55733  0.31842  1.0000
  H   H503      1.0  0.64501  0.52062  0.50840  1.0000
  H   H504      1.0  0.80624  0.97170  0.36540  1.0000
  C   C511      1.0  0.72507  0.51251  0.43945  1.0000
  H   H505      1.0  0.84872  0.97724  0.43041  1.0000
  H   H506      1.0  0.75487  0.94127  0.44653  1.0000
  H   H507      1.0  0.74236  0.55127  0.45942  1.0000
  C   C512      1.0  0.82913  0.97073  0.39782  1.0000
  H   H508      1.0  0.68092  0.65191  0.60856  1.0000
  S   S170      1.0  0.69293  0.53521  0.42184  1.0000
  S   S171      1.0  0.69135  0.97299  0.37484  1.0000
  C   C513      1.0  0.66450  0.57626  0.59325  1.0000
  S   S172      1.0  0.80868  0.95769  0.48253  1.0000
  H   H509      1.0  0.52226  0.74081  0.38429  1.0000
  C   C514      1.0  0.73710  0.53350  0.58737  1.0000
  C   C515      1.0  0.73271  0.55885  0.57393  1.0000
  C   C516      1.0  0.69686  0.58023  0.57701  1.0000
  H   H510      1.0  0.62527  0.52651  0.56672  1.0000
  H   H511      1.0  0.51103  0.77059  0.36558  1.0000
  H   H512      1.0  0.75701  0.56202  0.56122  1.0000
  S   S173      1.0  0.92148  0.97812  0.51393  1.0000
  C   C517      1.0  0.52953  0.73722  0.33242  1.0000
  C   C518      1.0  0.66455  0.50531  0.51844  1.0000
  H   H513      1.0  0.53404  0.95561  0.34004  1.0000
  C   C519      1.0  0.56384  0.67900  0.34095  1.0000
  C   C520      1.0  0.53570  0.75211  0.36981  1.0000
  C   C521      1.0  0.79281  0.56441  0.40123  1.0000
  C   C522      1.0  0.87405  0.54534  0.30437  1.0000
  H   H514      1.0  0.59217  0.52456  0.54288  1.0000
  H   H515      1.0  0.55748  0.89876  0.33080  1.0000
  S   S174      1.0  0.78007  0.50487  0.58378  1.0000
  Fe  Fe88      1.0  0.83477  0.49881  0.55806  1.0000
  H   H516      1.0  0.69395  0.59981  0.56656  1.0000
  S   S175      1.0  0.77025  0.49372  0.32914  1.0000
  H   H517      1.0  0.52665  0.87208  0.39442  1.0000
  H   H518      1.0  0.82074  0.57924  0.39510  1.0000
  H   H519      1.0  0.96354  0.57630  0.56329  1.0000
  H   H520      1.0  0.70801  0.51019  0.61422  1.0000
  H   H521      1.0  0.57665  0.65612  0.34459  1.0000
  C   C523      1.0  0.53394  0.71565  0.31601  1.0000
  H   H522      1.0  0.51619  0.75996  0.32888  1.0000
  S   S176      1.0  0.63054  0.48534  0.33543  1.0000
  Fe  Fe89      1.0  0.66886  0.51474  0.39076  1.0000
  H   H523      1.0  0.86524  0.49990  0.31771  1.0000
  S   S177      1.0  0.61933  0.60345  0.59603  1.0000
  C   C524      1.0  0.55103  0.68631  0.32037  1.0000
  S   S178      1.0  0.96028  0.55992  0.51828  1.0000
  C   C525      1.0  0.52547  0.62261  0.38226  1.0000
  C   C526      1.0  0.55820  0.70093  0.35704  1.0000
  H   H524      1.0  0.69887  0.48344  0.49206  1.0000
  C   C527      1.0  0.69510  0.48446  0.50911  1.0000
  H   H525      1.0  0.78980  0.59890  0.30076  1.0000
  N   N45       1.0  0.65945  0.50642  0.53992  1.0000
  C   C528      1.0  0.80122  0.51455  0.38321  1.0000
  C   C529      1.0  0.72167  0.97242  0.52841  1.0000
  H   H526      1.0  0.68088  0.48814  0.56959  1.0000
  H   H527      1.0  0.52360  0.72162  0.30010  1.0000
  H   H528      1.0  0.98405  0.90230  0.51746  1.0000
  H   H529      1.0  0.50853  0.85588  0.31748  1.0000
  C   C530      1.0  0.52274  0.86869  0.37758  1.0000
  H   H530      1.0  0.73592  0.96268  0.54323  1.0000
  H   H531      1.0  0.63762  0.69827  0.59809  1.0000
  H   H532      1.0  0.56921  0.76305  0.37333  1.0000
  H   H533      1.0  0.99156  0.97083  0.58496  1.0000
  C   C531      1.0  0.63647  0.69046  0.61432  1.0000
  C   C532      1.0  0.77380  0.98023  0.46596  1.0000
  C   C533      1.0  0.81450  0.48356  0.38275  1.0000
  H   H534      1.0  0.00197  0.86751  0.58023  1.0000
  S   S179      1.0  0.54106  0.86644  0.74221  1.0000
  C   C534      1.0  0.60865  0.69551  0.65002  1.0000
  Fe  Fe90      1.0  0.56124  0.85295  0.77531  1.0000
  S   S180      1.0  0.63686  0.85416  0.78470  1.0000
  H   H535      1.0  0.74188  0.92532  0.77462  1.0000
  C   C535      1.0  0.52670  0.96354  0.69435  1.0000
  S   S181      1.0  0.56599  0.59106  0.65416  1.0000
  H   H536      1.0  0.61142  0.50397  0.71860  1.0000
  H   H537      1.0  0.64979  0.94865  0.82843  1.0000
  H   H538      1.0  0.52915  0.92545  0.71621  1.0000
  S   S182      1.0  0.85035  0.92900  0.87509  1.0000
  S   S183      1.0  0.74482  0.95615  0.83829  1.0000
  Fe  Fe91      1.0  0.88819  0.50603  0.86569  1.0000
  H   H539      1.0  0.90342  0.62834  0.83838  1.0000
  S   S184      1.0  0.90722  0.55709  0.87062  1.0000
  Fe  Fe92      1.0  0.91749  0.93913  0.85862  1.0000
  C   C536      1.0  0.63354  0.92572  0.75805  1.0000
  H   H540      1.0  0.66766  0.61397  0.66029  1.0000
  H   H541      1.0  0.71119  0.89575  0.76096  1.0000
  H   H542      1.0  0.55068  0.95308  0.68344  1.0000
  H   H543      1.0  0.53697  0.75436  0.73338  1.0000
  C   C537      1.0  0.96071  0.57543  0.86542  1.0000
  H   H544      1.0  0.71934  0.63155  0.65009  1.0000
  C   C538      1.0  0.66078  0.66414  0.62033  1.0000
  N   N46       1.0  0.65786  0.65326  0.64053  1.0000
  H   H545      1.0  0.94485  0.61477  0.88506  1.0000
  H   H546      1.0  0.69518  0.93508  0.87587  1.0000
  C   C539      1.0  0.95606  0.85425  0.86590  1.0000
  C   C540      1.0  0.96433  0.82289  0.87018  1.0000
  H   H547      1.0  0.92353  0.86455  0.87001  1.0000
  H   H548      1.0  0.93798  0.80922  0.87766  1.0000
  C   C541      1.0  0.63302  0.98045  0.78093  1.0000
  H   H549      1.0  0.63327  0.90401  0.74941  1.0000
  C   C542      1.0  0.67384  0.96446  0.77714  1.0000
  C   C543      1.0  0.59196  0.96865  0.77303  1.0000
  Fe  Fe93      1.0  0.51943  0.63194  0.65995  1.0000
  H   H550      1.0  0.98699  0.54020  0.84467  1.0000
  C   C544      1.0  0.66503  0.88074  0.80189  1.0000
  C   C545      1.0  0.64258  0.90633  0.81058  1.0000
  C   C546      1.0  0.66739  0.92862  0.82221  1.0000
  C   C547      1.0  0.71485  0.92563  0.82538  1.0000
  C   C548      1.0  0.73702  0.89950  0.81735  1.0000
  C   C549      1.0  0.71221  0.87722  0.80568  1.0000
  H   H551      1.0  0.60631  0.90933  0.80790  1.0000
  C   C550      1.0  0.52022  0.69946  0.69496  1.0000
  H   H552      1.0  0.77344  0.89676  0.81972  1.0000
  H   H553      1.0  0.72993  0.85744  0.79914  1.0000
  H   H554      1.0  0.63091  0.66054  0.67152  1.0000
  H   H555      1.0  0.55986  0.98060  0.77585  1.0000
  C   C551      1.0  0.52354  0.74377  0.71916  1.0000
  C   C552      1.0  0.92560  0.64848  0.83855  1.0000
  C   C553      1.0  0.80639  0.96724  0.94161  1.0000
  H   H556      1.0  0.95868  0.62887  0.79568  1.0000
  C   C554      1.0  0.98972  0.87206  0.85606  1.0000
  Fe  Fe94      1.0  0.56010  0.60276  0.61981  1.0000
  H   H557      1.0  0.59880  0.51029  0.68019  1.0000
  C   C555      1.0  0.94467  0.69848  0.85314  1.0000
  N   N47       1.0  0.67360  0.93731  0.76598  1.0000
  H   H558      1.0  0.56039  0.93177  0.75550  1.0000
  C   C556      1.0  0.97347  0.62388  0.81142  1.0000
  S   S185      1.0  0.53956  0.66182  0.68828  1.0000
  C   C557      1.0  0.96940  0.60479  0.87423  1.0000
  H   H559      1.0  0.93782  0.71759  0.86386  1.0000
  C   C558      1.0  0.98299  0.69941  0.84006  1.0000
  C   C559      1.0  0.74826  0.92783  0.94660  1.0000
  H   H560      1.0  0.64421  0.54746  0.61920  1.0000
  C   C560      1.0  0.63289  0.66887  0.65541  1.0000
  H   H561      1.0  0.79577  0.92893  0.92038  1.0000
  Fe  Fe95      1.0  0.86425  0.97322  0.89275  1.0000
  N   N48       1.0  0.96382  0.64938  0.82606  1.0000
  H   H562      1.0  0.73144  0.92911  0.74655  1.0000
  H   H563      1.0  0.64218  0.91768  0.90422  1.0000
  S   S186      1.0  0.81656  0.48932  0.87324  1.0000
  C   C561      1.0  0.65720  0.95648  0.92457  1.0000
  S   S187      1.0  0.93403  0.98067  0.87865  1.0000
  Fe  Fe96      1.0  0.81877  0.95989  0.85042  1.0000
  C   C562      1.0  0.71671  0.92117  0.76174  1.0000
  H   H564      1.0  0.59063  0.72638  0.62484  1.0000
  C   C563      1.0  0.71696  0.97550  0.89324  1.0000
  C   C564      1.0  0.91569  0.67286  0.85242  1.0000
  S   S188      1.0  0.51965  0.80883  0.77421  1.0000
  C   C565      1.0  0.61013  0.70615  0.62929  1.0000
  H   H565      1.0  0.82216  0.50120  0.94014  1.0000
  H   H566      1.0  0.88608  0.67165  0.86271  1.0000
  H   H567      1.0  0.58816  0.70743  0.66181  1.0000
  C   C566      1.0  0.78451  0.94029  0.93472  1.0000
  H   H568      1.0  0.56036  0.70111  0.72350  1.0000
  S   S189      1.0  0.98077  0.91135  0.84989  1.0000
  H   H569      1.0  0.73155  0.90692  0.94124  1.0000
  C   C567      1.0  0.59219  0.94115  0.76152  1.0000
  C   C568      1.0  0.99224  0.67450  0.82658  1.0000
  S   S190      1.0  0.88479  0.96691  0.83264  1.0000
  H   H570      1.0  0.70554  0.97348  0.78367  1.0000
  C   C569      1.0  0.53684  0.71358  0.71349  1.0000
  S   S191      1.0  0.51864  0.64612  0.62573  1.0000
  H   H571      1.0  0.68288  0.60829  0.63328  1.0000
  C   C570      1.0  0.69144  0.94849  0.89031  1.0000
  H   H572      1.0  0.95909  0.60177  0.81736  1.0000
  H   H573      1.0  0.50641  0.89079  0.65495  1.0000
  H   H574      1.0  0.63497  0.94887  0.93726  1.0000
  C   C571      1.0  0.68332  0.62547  0.64640  1.0000
  C   C572      1.0  0.99301  0.56275  0.85156  1.0000
  C   C573      1.0  0.66157  0.93887  0.90616  1.0000
  H   H575      1.0  0.98648  0.96581  0.82278  1.0000
  C   C574      1.0  0.51453  0.94780  0.71295  1.0000
  S   S192      1.0  0.50563  0.88017  0.79112  1.0000
  C   C575      1.0  0.60661  0.48366  0.70878  1.0000
  C   C576      1.0  0.60000  0.48739  0.68705  1.0000
  H   H576      1.0  0.76879  0.51439  0.95057  1.0000
