data_image0
_chemical_formula_structural       HCSHSNHCSFeCH2CHC3FeHC2FeH2CS2HSCSHCHCHCH2FeS2FeSCFeSFeS3H2FeHSCNH3C4H3CHC2NHC3H2C6H4C2H3C3NC3H4CSH2C2NC3H3C2H2CSHC4HCHC3H3C2H3SH2CH2CSCSCH2SFeH3FeCSFeS2FeS2FeSFeS3H2C6H3C3NC2H2CHC8H5C3HCHNC6H3CSCHCHC2HCHFeC2H4C2HSNCH3C2HCHNSCH4C2NH2CH2C2H2CH3SCFeSCHSH2CFe2HCSH2C2HNC2H2C3H2CS2CH2FeHC3FeCHSH2CFe2CH3S2CSH2NHCS3HC2HFeH4CHC2H5CH2C2H2CNC2H3CS2C2HNSFeC2SC2HSCHCHCH4C2HCNSCHCS2FeCHNHC2H3CH4FeHCHC2H2SCSCFeCHSH2FeHCHFeH2FeS2HSCFe2HCFeHC2SHSCSCHCHFeHCHCSH2CHFeSFeS2FeS2FeSFeHS3CHC7NHN2C7H2SHC6H4CHSC3H3NH2SC4HCH3CHCH3CHC4HCFeH2CHCH4SH2C2HC3HFeHC2H2CHFeS2FeS2FeHFeS3HCHFeSCSC6H4C5H2C3SH2C6H6C2H2C2HC3HCNH3SC2H4SCHNH4SCNC6H2CHCH2CHCFeH2CHCFeSH2CHSC2SHCH3C2NC2H3CHCSCSH2S
_chemical_formula_sum              "H288 C288 S96 N24 Fe48"
_cell_length_a       44.6501
_cell_length_b       36.6032
_cell_length_c       29.0664
_cell_angle_alpha    90.2515
_cell_angle_beta     102.437
_cell_angle_gamma    88.9649

_space_group_name_H-M_alt    "P 1"
_space_group_IT_number       1

loop_
  _space_group_symop_operation_xyz
  'x, y, z'

loop_
  _atom_site_type_symbol
  _atom_site_label
  _atom_site_symmetry_multiplicity
  _atom_site_fract_x
  _atom_site_fract_y
  _atom_site_fract_z
  _atom_site_occupancy
  H   H1        1.0  0.25200  0.04498  0.20867  1.0000
  C   C1        1.0  0.29700  0.05248  0.31946  1.0000
  S   S1        1.0  0.13961  0.07081  0.11815  1.0000
  H   H2        1.0  0.27991  0.06395  0.38185  1.0000
  S   S2        1.0  0.19581  0.05838  0.24301  1.0000
  N   N1        1.0  0.05375  0.10709  0.02428  1.0000
  H   H3        1.0  0.20748  0.00715  0.35990  1.0000
  C   C2        1.0  0.08504  0.10955  0.01652  1.0000
  S   S3        1.0  0.33589  0.04931  0.34889  1.0000
  Fe  Fe1       1.0  0.16623  0.06194  0.06114  1.0000
  C   C3        1.0  0.04169  0.01615  0.01053  1.0000
  H   H4        1.0  0.05678  0.49339  0.50332  1.0000
  H   H5        1.0  0.01659  0.08180  0.10867  1.0000
  C   C4        1.0  0.25799  0.04889  0.24640  1.0000
  H   H6        1.0  0.31375  0.47337  0.15733  1.0000
  C   C5        1.0  0.23499  0.05644  0.27120  1.0000
  C   C6        1.0  0.24311  0.06186  0.32008  1.0000
  C   C7        1.0  0.04946  0.09608  0.06731  1.0000
  Fe  Fe2       1.0  0.17967  0.04314  0.16621  1.0000
  H   H7        1.0  0.10014  0.12390  0.04628  1.0000
  C   C8        1.0  0.28896  0.04747  0.27041  1.0000
  C   C9        1.0  0.27393  0.05935  0.34425  1.0000
  Fe  Fe3       1.0  0.12121  0.01493  0.09909  1.0000
  H   H8        1.0  0.22551  0.06843  0.33934  1.0000
  H   H9        1.0  0.30967  0.44065  0.08104  1.0000
  C   C10       1.0  0.27623  0.47896  0.04263  1.0000
  S   S4        1.0  0.20781  0.03844  0.11110  1.0000
  S   S5        1.0  0.14524  0.00722  0.03924  1.0000
  H   H10       1.0  0.30675  0.04241  0.25099  1.0000
  S   S6        1.0  0.31238  0.02460  0.46965  1.0000
  C   C11       1.0  0.29808  0.48338  0.12590  1.0000
  S   S7        1.0  0.16297  0.11081  0.01202  1.0000
  H   H11       1.0  0.26101  0.19378  0.04517  1.0000
  C   C12       1.0  0.29588  0.46511  0.08313  1.0000
  H   H12       1.0  0.27483  0.46464  0.00949  1.0000
  C   C13       1.0  0.01985  0.09189  0.07507  1.0000
  H   H13       1.0  0.06898  0.08922  0.09545  1.0000
  C   C14       1.0  0.25438  0.18565  0.00753  1.0000
  H   H14       1.0  0.24938  0.15593  0.00636  1.0000
  H   H15       1.0  0.09479  0.08174  0.01337  1.0000
  Fe  Fe4       1.0  0.26277  0.20682  0.72736  1.0000
  S   S8        1.0  0.21870  0.20120  0.75238  1.0000
  S   S9        1.0  0.26168  0.18358  0.65432  1.0000
  Fe  Fe5       1.0  0.29273  0.24882  0.81666  1.0000
  S   S10       1.0  0.25169  0.24435  0.84882  1.0000
  C   C15       1.0  0.08426  0.42814  0.59040  1.0000
  Fe  Fe6       1.0  0.24903  0.18652  0.82234  1.0000
  S   S11       1.0  0.24569  0.13369  0.86161  1.0000
  Fe  Fe7       1.0  0.22564  0.25966  0.77595  1.0000
  S   S12       1.0  0.19156  0.30672  0.76906  1.0000
  S   S13       1.0  0.29285  0.18937  0.79607  1.0000
  S   S14       1.0  0.26694  0.26670  0.74520  1.0000
  H   H16       1.0  0.25357  0.35923  0.75880  1.0000
  H   H17       1.0  0.12107  0.34813  0.57637  1.0000
  Fe  Fe8       1.0  0.16527  0.46647  0.59449  1.0000
  H   H18       1.0  0.08934  0.38901  0.69623  1.0000
  S   S15       1.0  0.17578  0.40648  0.58734  1.0000
  C   C16       1.0  0.29829  0.35386  0.93172  1.0000
  N   N2        1.0  0.23000  0.10371  0.69081  1.0000
  H   H19       1.0  0.18617  0.12560  0.69654  1.0000
  H   H20       1.0  0.26277  0.14588  0.56817  1.0000
  H   H21       1.0  0.32059  0.15406  0.70636  1.0000
  C   C17       1.0  0.18291  0.14890  0.94349  1.0000
  C   C18       1.0  0.20093  0.15457  0.90996  1.0000
  C   C19       1.0  0.22205  0.12771  0.90259  1.0000
  C   C20       1.0  0.22521  0.09540  0.92929  1.0000
  H   H22       1.0  0.27919  0.09112  0.79584  1.0000
  H   H23       1.0  0.16640  0.16965  0.94873  1.0000
  H   H24       1.0  0.19829  0.17957  0.88962  1.0000
  C   C21       1.0  0.20740  0.08987  0.96311  1.0000
  H   H25       1.0  0.22897  0.11941  0.76128  1.0000
  C   C22       1.0  0.28915  0.15302  0.63895  1.0000
  C   C23       1.0  0.31581  0.14246  0.67130  1.0000
  N   N3        1.0  0.27881  0.19429  0.98291  1.0000
  H   H26       1.0  0.30908  0.05935  0.74364  1.0000
  C   C24       1.0  0.30364  0.11174  0.58053  1.0000
  C   C25       1.0  0.28328  0.13773  0.59348  1.0000
  C   C26       1.0  0.10881  0.36874  0.59250  1.0000
  H   H27       1.0  0.29880  0.10007  0.54550  1.0000
  H   H28       1.0  0.11466  0.34008  0.65847  1.0000
  C   C27       1.0  0.18262  0.38005  0.63934  1.0000
  C   C28       1.0  0.19386  0.34408  0.63847  1.0000
  C   C29       1.0  0.19746  0.32164  0.67851  1.0000
  C   C30       1.0  0.18903  0.33477  0.71925  1.0000
  C   C31       1.0  0.17779  0.37071  0.72016  1.0000
  C   C32       1.0  0.17515  0.39350  0.68067  1.0000
  H   H29       1.0  0.19966  0.33343  0.60662  1.0000
  H   H30       1.0  0.20598  0.29386  0.67734  1.0000
  H   H31       1.0  0.17111  0.38095  0.75152  1.0000
  H   H32       1.0  0.16654  0.42109  0.68187  1.0000
  C   C33       1.0  0.29087  0.16772  0.95861  1.0000
  C   C34       1.0  0.30110  0.32563  0.89987  1.0000
  H   H33       1.0  0.32216  0.15517  0.91330  1.0000
  H   H34       1.0  0.28268  0.13995  0.95748  1.0000
  H   H35       1.0  0.07711  0.45349  0.57180  1.0000
  C   C35       1.0  0.23655  0.42093  0.79502  1.0000
  C   C36       1.0  0.09834  0.40086  0.56819  1.0000
  C   C37       1.0  0.06655  0.45258  0.65907  1.0000
  N   N4        1.0  0.26793  0.40633  0.80087  1.0000
  C   C38       1.0  0.29208  0.42469  0.82750  1.0000
  C   C39       1.0  0.27279  0.37420  0.77913  1.0000
  C   C40       1.0  0.33026  0.10111  0.61289  1.0000
  H   H36       1.0  0.04857  0.44137  0.67584  1.0000
  H   H37       1.0  0.29617  0.48721  0.74335  1.0000
  H   H38       1.0  0.32030  0.26625  0.96103  1.0000
  H   H39       1.0  0.21001  0.06487  0.98342  1.0000
  C   C41       1.0  0.31208  0.23848  0.96018  1.0000
  S   S16       1.0  0.14166  0.50296  0.53468  1.0000
  H   H40       1.0  0.28117  0.31041  0.88347  1.0000
  H   H41       1.0  0.18764  0.10632  0.64018  1.0000
  C   C42       1.0  0.02907  0.11364  0.98801  1.0000
  C   C43       1.0  0.32416  0.21168  0.93476  1.0000
  N   N5        1.0  0.08059  0.42344  0.63554  1.0000
  C   C44       1.0  0.32212  0.41153  0.83170  1.0000
  C   C45       1.0  0.28668  0.07135  0.72898  1.0000
  C   C46       1.0  0.03491  0.50041  0.51165  1.0000
  H   H42       1.0  0.27624  0.35983  0.94005  1.0000
  H   H43       1.0  0.08590  0.12500  0.98401  1.0000
  H   H44       1.0  0.28784  0.05685  0.65736  1.0000
  C   C47       1.0  0.32733  0.37909  0.80908  1.0000
  C   C48       1.0  0.27467  0.06972  0.68057  1.0000
  H   H45       1.0  0.10239  0.40520  0.53313  1.0000
  H   H46       1.0  0.22207  0.40096  0.80856  1.0000
  C   C49       1.0  0.27005  0.08924  0.75815  1.0000
  S   S17       1.0  0.31050  0.50151  0.94538  1.0000
  H   H47       1.0  0.23571  0.44726  0.81399  1.0000
  C   C50       1.0  0.24628  0.08651  0.66191  1.0000
  C   C51       1.0  0.20079  0.12218  0.67027  1.0000
  C   C52       1.0  0.09120  0.39222  0.65988  1.0000
  C   C53       1.0  0.18605  0.11655  0.97020  1.0000
  H   H48       1.0  0.24153  0.07447  0.92385  1.0000
  C   C54       1.0  0.31343  0.17609  0.93376  1.0000
  H   H49       1.0  0.05556  0.47423  0.63392  1.0000
  C   C55       1.0  0.24159  0.10535  0.73834  1.0000
  C   C56       1.0  0.10531  0.36432  0.63867  1.0000
  C   C57       1.0  0.32976  0.31683  0.89018  1.0000
  H   H50       1.0  0.30645  0.33431  0.76644  1.0000
  H   H51       1.0  0.28836  0.44980  0.84554  1.0000
  H   H52       1.0  0.20528  0.14970  0.65745  1.0000
  C   C58       1.0  0.30255  0.36009  0.78296  1.0000
  C   C59       1.0  0.32384  0.37446  0.95264  1.0000
  H   H53       1.0  0.23782  0.08666  0.62402  1.0000
  H   H54       1.0  0.08436  0.46580  0.68639  1.0000
  H   H55       1.0  0.22668  0.42614  0.75707  1.0000
  S   S18       1.0  0.13841  0.48776  0.64588  1.0000
  H   H56       1.0  0.24097  0.49802  0.70920  1.0000
  H   H57       1.0  0.03236  0.12099  0.95337  1.0000
  C   C60       1.0  0.01473  0.02305  0.97615  1.0000
  H   H58       1.0  0.23281  0.20029  0.99064  1.0000
  H   H59       1.0  0.06389  0.02061  0.00252  1.0000
  C   C61       1.0  0.33630  0.11670  0.65822  1.0000
  S   S19       1.0  0.33460  0.27989  0.85295  1.0000
  C   C62       1.0  0.28235  0.50334  0.76251  1.0000
  S   S20       1.0  0.32019  0.40814  0.99480  1.0000
  C   C63       1.0  0.28905  0.22936  0.98380  1.0000
  H   H60       1.0  0.01635  0.03302  0.94179  1.0000
  H   H61       1.0  0.27934  0.25054  0.00267  1.0000
  S   S21       1.0  0.20449  0.50385  0.61835  1.0000
  Fe  Fe9       1.0  0.34339  0.46141  0.98744  1.0000
  H   H62       1.0  0.34160  0.21861  0.91552  1.0000
  H   H63       1.0  0.34118  0.42637  0.85262  1.0000
  H   H64       1.0  0.23112  0.61050  0.24104  1.0000
  Fe  Fe10      1.0  0.18439  0.98442  0.09467  1.0000
  C   C64       1.0  0.28584  0.87687  0.21961  1.0000
  S   S22       1.0  0.21230  0.93325  0.08776  1.0000
  Fe  Fe11      1.0  0.27508  0.74879  0.31410  1.0000
  S   S23       1.0  0.22500  0.76026  0.30970  1.0000
  S   S24       1.0  0.31494  0.78185  0.35309  1.0000
  Fe  Fe12      1.0  0.26370  0.68404  0.24646  1.0000
  S   S25       1.0  0.21256  0.69079  0.23586  1.0000
  S   S26       1.0  0.28910  0.63474  0.22395  1.0000
  Fe  Fe13      1.0  0.22044  0.75112  0.23217  1.0000
  S   S27       1.0  0.18528  0.78745  0.18511  1.0000
  Fe  Fe14      1.0  0.22062  0.69927  0.31415  1.0000
  S   S28       1.0  0.18510  0.67228  0.34757  1.0000
  S   S29       1.0  0.27102  0.74391  0.23578  1.0000
  S   S30       1.0  0.27130  0.68845  0.32551  1.0000
  H   H65       1.0  0.17052  0.57418  0.32740  1.0000
  H   H66       1.0  0.25387  0.86070  0.43632  1.0000
  C   C65       1.0  0.29308  0.62449  0.16594  1.0000
  C   C66       1.0  0.27306  0.63918  0.12640  1.0000
  C   C67       1.0  0.27532  0.62777  0.08088  1.0000
  C   C68       1.0  0.29775  0.60192  0.07447  1.0000
  C   C69       1.0  0.15980  0.84553  0.03298  1.0000
  C   C70       1.0  0.30022  0.95797  0.32652  1.0000
  H   H67       1.0  0.25550  0.65880  0.13090  1.0000
  H   H68       1.0  0.25938  0.63877  0.05049  1.0000
  H   H69       1.0  0.32241  0.97144  0.32688  1.0000
  C   C71       1.0  0.19303  0.64768  0.40106  1.0000
  C   C72       1.0  0.16919  0.62860  0.41432  1.0000
  C   C73       1.0  0.17496  0.60626  0.45467  1.0000
  N   N6        1.0  0.29468  0.92993  0.28971  1.0000
  C   C74       1.0  0.22846  0.62252  0.46932  1.0000
  C   C75       1.0  0.22266  0.64491  0.42901  1.0000
  H   H70       1.0  0.14619  0.63074  0.39288  1.0000
  H   H71       1.0  0.27497  0.60237  0.30842  1.0000
  C   C76       1.0  0.12854  0.90086  0.03668  1.0000
  H   H72       1.0  0.24110  0.65975  0.41926  1.0000
  C   C77       1.0  0.08801  0.90220  0.07988  1.0000
  C   C78       1.0  0.31826  0.58792  0.11397  1.0000
  C   C79       1.0  0.20681  0.89431  0.12014  1.0000
  C   C80       1.0  0.22702  0.86424  0.12242  1.0000
  C   C81       1.0  0.22188  0.83189  0.14529  1.0000
  C   C82       1.0  0.19604  0.82928  0.16491  1.0000
  C   C83       1.0  0.17613  0.85948  0.16321  1.0000
  C   C84       1.0  0.18160  0.89193  0.14122  1.0000
  H   H73       1.0  0.24630  0.86564  0.10543  1.0000
  H   H74       1.0  0.23696  0.80835  0.14558  1.0000
  H   H75       1.0  0.15588  0.85738  0.17783  1.0000
  H   H76       1.0  0.16528  0.91425  0.13841  1.0000
  H   H77       1.0  0.21439  0.87291  0.25276  1.0000
  C   C85       1.0  0.29946  0.88117  0.44143  1.0000
  C   C86       1.0  0.30915  0.81804  0.39043  1.0000
  C   C87       1.0  0.28057  0.82478  0.40129  1.0000
  H   H78       1.0  0.28119  0.60817  0.40659  1.0000
  C   C88       1.0  0.30185  0.89417  0.30115  1.0000
  H   H79       1.0  0.17832  0.59770  0.25079  1.0000
  N   N7        1.0  0.24765  0.58253  0.35459  1.0000
  C   C89       1.0  0.22551  0.88945  0.32553  1.0000
  C   C90       1.0  0.25218  0.59510  0.31241  1.0000
  C   C91       1.0  0.22743  0.59987  0.27413  1.0000
  C   C92       1.0  0.27376  0.58016  0.39490  1.0000
  C   C93       1.0  0.10477  0.91979  0.05149  1.0000
  C   C94       1.0  0.20469  0.60292  0.48210  1.0000
  H   H80       1.0  0.30308  0.83865  0.27600  1.0000
  H   H81       1.0  0.29326  0.56509  0.38500  1.0000
  H   H82       1.0  0.21840  0.97570  0.40793  1.0000
  C   C95       1.0  0.03972  0.00433  0.05543  1.0000
  S   S31       1.0  0.29734  0.58540  0.01700  1.0000
  C   C96       1.0  0.28371  0.93992  0.24377  1.0000
  H   H83       1.0  0.28267  0.85607  0.19237  1.0000
  C   C97       1.0  0.32847  0.87349  0.43254  1.0000
  H   H84       1.0  0.15651  0.59133  0.46422  1.0000
  C   C98       1.0  0.21620  0.89568  0.27723  1.0000
  C   C99       1.0  0.20916  0.93124  0.26075  1.0000
  H   H85       1.0  0.26780  0.56585  0.42532  1.0000
  C   C100      1.0  0.21137  0.96009  0.29303  1.0000
  H   H86       1.0  0.23501  0.91412  0.39433  1.0000
  Fe  Fe15      1.0  0.32824  0.96586  0.47733  1.0000
  C   C101      1.0  0.09489  0.86579  0.09265  1.0000
  C   C102      1.0  0.21881  0.57401  0.35971  1.0000
  H   H87       1.0  0.27011  0.92151  0.17156  1.0000
  H   H88       1.0  0.17819  0.86443  0.02838  1.0000
  H   H89       1.0  0.33136  0.58754  0.18992  1.0000
  H   H90       1.0  0.24789  0.55308  0.08828  1.0000
  C   C103      1.0  0.27593  0.85594  0.42749  1.0000
  C   C104      1.0  0.27891  0.91353  0.20803  1.0000
  H   H91       1.0  0.28215  0.52971  0.16074  1.0000
  S   S32       1.0  0.15883  0.98805  0.15265  1.0000
  N   N8        1.0  0.22030  0.95367  0.34040  1.0000
  C   C105      1.0  0.29733  0.86705  0.26648  1.0000
  H   H92       1.0  0.26208  0.80597  0.38958  1.0000
  H   H93       1.0  0.21498  0.56490  0.39343  1.0000
  H   H94       1.0  0.06982  0.91694  0.09206  1.0000
  C   C106      1.0  0.19349  0.57898  0.32234  1.0000
  C   C107      1.0  0.33339  0.84172  0.40762  1.0000
  H   H95       1.0  0.31131  0.88648  0.33723  1.0000
  C   C108      1.0  0.19787  0.59231  0.27944  1.0000
  H   H96       1.0  0.30112  0.94625  0.36210  1.0000
  N   N9        1.0  0.13527  0.86523  0.04964  1.0000
  S   S33       1.0  0.29127  0.92317  0.46645  1.0000
  C   C109      1.0  0.31572  0.59894  0.15949  1.0000
  H   H97       1.0  0.28171  0.97913  0.32019  1.0000
  H   H98       1.0  0.25149  0.62025  0.49061  1.0000
  H   H99       1.0  0.23089  0.86184  0.33864  1.0000
  H   H100      1.0  0.12407  0.81931  0.08740  1.0000
  C   C110      1.0  0.22354  0.98422  0.37380  1.0000
  C   C111      1.0  0.22765  0.91899  0.35679  1.0000
  N   N10       1.0  0.25953  0.51042  0.04460  1.0000
  H   H101      1.0  0.27875  0.96846  0.23455  1.0000
  H   H102      1.0  0.20187  0.93649  0.22325  1.0000
  C   C112      1.0  0.26091  0.52796  0.08667  1.0000
  H   H103      1.0  0.20564  0.98759  0.27994  1.0000
  H   H104      1.0  0.08212  0.85192  0.11500  1.0000
  C   C113      1.0  0.01069  0.99814  0.06503  1.0000
  C   C114      1.0  0.11855  0.84749  0.07675  1.0000
  H   H105      1.0  0.14190  0.91503  0.01544  1.0000
  H   H106      1.0  0.33563  0.56806  0.10948  1.0000
  C   C115      1.0  0.28028  0.51483  0.12788  1.0000
  H   H107      1.0  0.24744  0.99430  0.38088  1.0000
  H   H108      1.0  0.17094  0.82454  0.05902  1.0000
  H   H109      1.0  0.09940  0.94805  0.04136  1.0000
  S   S34       1.0  0.07269  0.99849  0.10125  1.0000
  C   C116      1.0  0.27779  0.53870  0.83123  1.0000
  Fe  Fe16      1.0  0.17919  0.54293  0.56349  1.0000
  S   S35       1.0  0.15335  0.56977  0.61333  1.0000
  C   C117      1.0  0.24654  0.54496  0.81168  1.0000
  H   H110      1.0  0.22489  0.59184  0.63127  1.0000
  S   S36       1.0  0.06710  0.54240  0.58507  1.0000
  H   H111      1.0  0.20186  0.61322  0.69409  1.0000
  H   H112      1.0  0.23284  0.56146  0.83065  1.0000
  C   C118      1.0  0.22440  0.62253  0.71467  1.0000
  Fe  Fe17      1.0  0.17621  0.52778  0.66586  1.0000
  Fe  Fe18      1.0  0.11735  0.52723  0.58862  1.0000
  H   H113      1.0  0.25044  0.52178  0.97111  1.0000
  C   C119      1.0  0.23319  0.53089  0.76722  1.0000
  S   S37       1.0  0.19460  0.54191  0.74223  1.0000
  H   H114      1.0  0.22665  0.65214  0.70846  1.0000
  H   H115      1.0  0.28810  0.55070  0.86486  1.0000
  C   C120      1.0  0.29584  0.51821  0.80644  1.0000
  C   C121      1.0  0.27040  0.56876  0.64350  1.0000
  H   H116      1.0  0.26729  0.55734  0.60827  1.0000
  N   N11       1.0  0.24975  0.60198  0.70142  1.0000
  C   C122      1.0  0.24637  0.58820  0.65680  1.0000
  C   C123      1.0  0.03369  0.52388  0.54928  1.0000
  H   H117      1.0  0.22404  0.61780  0.75233  1.0000
  H   H118      1.0  0.31683  0.54841  0.66639  1.0000
  C   C124      1.0  0.27709  0.59802  0.73319  1.0000
  C   C125      1.0  0.29816  0.56395  0.67596  1.0000
  C   C126      1.0  0.30168  0.57889  0.72101  1.0000
  H   H119      1.0  0.27977  0.60876  0.76866  1.0000
  H   H120      1.0  0.32295  0.57464  0.74694  1.0000
  C   C127      1.0  0.23924  0.52459  0.00164  1.0000
  S   S38       1.0  0.21364  0.57318  0.53101  1.0000
  S   S39       1.0  0.33531  0.51146  0.82925  1.0000
  C   C128      1.0  0.25107  0.50956  0.74302  1.0000
  H   H121      1.0  0.21730  0.50972  0.99434  1.0000
  H   H122      1.0  0.15033  0.83197  0.99886  1.0000
  Fe  Fe19      1.0  0.33126  0.54369  0.99837  1.0000
  H   H123      1.0  0.23451  0.55436  0.00474  1.0000
  C   C129      1.0  0.48065  0.01521  0.50268  1.0000
  C   C130      1.0  0.59157  0.46771  0.15803  1.0000
  C   C131      1.0  0.53588  0.48723  0.00916  1.0000
  Fe  Fe20      1.0  0.34696  0.02872  0.42413  1.0000
  C   C132      1.0  0.56838  0.45162  0.12462  1.0000
  H   H124      1.0  0.52003  0.45027  0.09522  1.0000
  S   S40       1.0  0.64799  0.44585  0.08345  1.0000
  H   H125      1.0  0.57404  0.43127  0.10042  1.0000
  H   H126      1.0  0.61535  0.45935  0.16099  1.0000
  C   C133      1.0  0.58414  0.49496  0.18751  1.0000
  Fe  Fe21      1.0  0.66579  0.49120  0.13336  1.0000
  Fe  Fe22      1.0  0.61757  0.48832  0.04042  1.0000
  C   C134      1.0  0.53785  0.46255  0.12184  1.0000
  H   H127      1.0  0.51045  0.05978  0.49621  1.0000
  H   H128      1.0  0.45986  0.03010  0.48685  1.0000
  H   H129      1.0  0.48253  0.48549  0.12029  1.0000
  S   S41       1.0  0.38576  0.04542  0.48387  1.0000
  S   S42       1.0  0.36115  0.50238  0.04448  1.0000
  C   C135      1.0  0.49864  0.50040  0.14839  1.0000
  S   S43       1.0  0.67261  0.49042  0.21265  1.0000
  H   H130      1.0  0.59755  0.01344  0.40958  1.0000
  H   H131      1.0  0.49196  0.49521  0.18238  1.0000
  N   N12       1.0  0.53069  0.48914  0.15118  1.0000
  H   H132      1.0  0.60461  0.37598  0.95986  1.0000
  C   C136      1.0  0.61934  0.45522  0.85928  1.0000
  S   S44       1.0  0.65279  0.03700  0.62015  1.0000
  S   S45       1.0  0.57116  0.46773  0.00216  1.0000
  S   S46       1.0  0.38057  0.47000  0.94781  1.0000
  H   H133      1.0  0.35689  0.10870  0.68343  1.0000
  C   C137      1.0  0.53656  0.01310  0.52902  1.0000
  C   C138      1.0  0.67478  0.22332  0.57509  1.0000
  H   H134      1.0  0.45915  0.46867  0.98174  1.0000
  Fe  Fe23      1.0  0.35199  0.03612  0.53024  1.0000
  H   H135      1.0  0.37213  0.38218  0.95780  1.0000
  H   H136      1.0  0.65086  0.21952  0.57590  1.0000
  H   H137      1.0  0.61095  0.48243  0.84797  1.0000
  H   H138      1.0  0.35048  0.36813  0.81280  1.0000
  C   C139      1.0  0.46777  0.08251  0.59560  1.0000
  H   H139      1.0  0.60504  0.45907  0.92516  1.0000
  C   C140      1.0  0.43835  0.07005  0.59516  1.0000
  C   C141      1.0  0.63345  0.43324  0.83044  1.0000
  H   H140      1.0  0.50914  0.44507  0.96839  1.0000
  H   H141      1.0  0.66253  0.11283  0.60954  1.0000
  H   H142      1.0  0.63648  0.44332  0.79670  1.0000
  H   H143      1.0  0.41850  0.08823  0.58533  1.0000
  H   H144      1.0  0.47100  0.11045  0.58565  1.0000
  C   C142      1.0  0.48823  0.02257  0.62033  1.0000
  H   H145      1.0  0.65524  0.16271  0.66408  1.0000
  H   H146      1.0  0.65528  0.38112  0.82342  1.0000
  C   C143      1.0  0.64393  0.39824  0.84538  1.0000
  C   C144      1.0  0.62445  0.39446  0.96417  1.0000
  H   H147      1.0  0.51592  0.06787  0.60827  1.0000
  H   H148      1.0  0.64574  0.37975  0.98222  1.0000
  C   C145      1.0  0.64081  0.38600  0.88963  1.0000
  N   N13       1.0  0.62758  0.40803  0.91812  1.0000
  C   C146      1.0  0.35224  0.36663  0.94155  1.0000
  C   C147      1.0  0.49294  0.05873  0.60857  1.0000
  H   H149      1.0  0.64969  0.35909  0.90148  1.0000
  H   H150      1.0  0.62074  0.41725  0.98780  1.0000
  H   H151      1.0  0.37750  0.33101  0.90362  1.0000
  C   C148      1.0  0.61629  0.44195  0.90309  1.0000
  S   S47       1.0  0.57189  0.03566  0.53494  1.0000
  S   S48       1.0  0.35629  0.06789  0.59902  1.0000
  C   C149      1.0  0.35527  0.33753  0.91101  1.0000
  C   C150      1.0  0.43451  0.03372  0.60705  1.0000
  H   H152      1.0  0.41156  0.02427  0.60652  1.0000
  N   N14       1.0  0.45922  0.01035  0.61862  1.0000
  S   S49       1.0  0.65214  0.50283  0.99770  1.0000
  Fe  Fe24      1.0  0.62000  0.01115  0.55977  1.0000
  C   C151      1.0  0.48006  0.48293  0.99649  1.0000
  C   C152      1.0  0.50844  0.46957  0.98912  1.0000
  S   S50       1.0  0.65191  0.01645  0.50984  1.0000
  C   C153      1.0  0.50935  0.03196  0.50811  1.0000
  C   C154      1.0  0.56448  0.98055  0.43299  1.0000
  H   H153      1.0  0.50560  0.55668  0.06400  1.0000
  S   S51       1.0  0.36089  0.96944  0.42915  1.0000
  C   C155      1.0  0.67059  0.73730  0.03495  1.0000
  H   H154      1.0  0.53623  0.94098  0.45719  1.0000
  C   C156      1.0  0.63158  0.69268  0.04298  1.0000
  H   H155      1.0  0.65948  0.64747  0.19301  1.0000
  C   C157      1.0  0.66167  0.77488  0.11406  1.0000
  H   H156      1.0  0.62842  0.73404  0.11767  1.0000
  H   H157      1.0  0.55563  0.53288  0.05115  1.0000
  H   H158      1.0  0.35576  0.83621  0.40013  1.0000
  H   H159      1.0  0.61724  0.89908  0.41686  1.0000
  C   C158      1.0  0.64460  0.74394  0.09780  1.0000
  C   C159      1.0  0.63741  0.96304  0.39223  1.0000
  H   H160      1.0  0.55020  0.00377  0.43851  1.0000
  C   C160      1.0  0.67251  0.65171  0.16616  1.0000
  N   N15       1.0  0.64951  0.72527  0.05912  1.0000
  S   S52       1.0  0.44457  0.52923  0.03963  1.0000
  C   C161      1.0  0.60221  0.92207  0.42051  1.0000
  H   H161      1.0  0.54775  0.52682  0.20641  1.0000
  C   C162      1.0  0.55674  0.94532  0.44370  1.0000
  S   S53       1.0  0.63176  0.53237  0.09437  1.0000
  S   S54       1.0  0.67184  0.91104  0.48803  1.0000
  Fe  Fe25      1.0  0.66922  0.54341  0.05599  1.0000
  C   C163      1.0  0.57584  0.91587  0.43784  1.0000
  H   H162      1.0  0.62709  0.67698  0.07341  1.0000
  N   N16       1.0  0.60940  0.95669  0.40949  1.0000
  H   H163      1.0  0.34707  0.89210  0.44442  1.0000
  C   C164      1.0  0.59124  0.98583  0.41639  1.0000
  C   C165      1.0  0.50632  0.53230  0.04307  1.0000
  H   H164      1.0  0.67311  0.84954  0.42710  1.0000
  H   H165      1.0  0.65863  0.78854  0.14600  1.0000
  H   H166      1.0  0.49538  0.52995  0.13967  1.0000
  C   C166      1.0  0.53469  0.51893  0.03576  1.0000
  H   H167      1.0  0.57052  0.88846  0.44725  1.0000
  H   H168      1.0  0.65903  0.60074  0.13085  1.0000
  H   H169      1.0  0.65583  0.97251  0.42171  1.0000
  H   H170      1.0  0.64590  0.93761  0.37783  1.0000
  Fe  Fe26      1.0  0.39651  0.98542  0.49280  1.0000
  H   H171      1.0  0.64428  0.67358  0.02375  1.0000
  C   C167      1.0  0.47893  0.51416  0.02397  1.0000
  H   H172      1.0  0.63331  0.98385  0.36380  1.0000
  C   C168      1.0  0.67226  0.62513  0.13093  1.0000
  C   C169      1.0  0.55338  0.50548  0.18352  1.0000
  H   H173      1.0  0.60229  0.50785  0.21306  1.0000
  H   H174      1.0  0.60941  0.70065  0.01950  1.0000
  S   S55       1.0  0.36683  0.55860  0.95774  1.0000
  C   C170      1.0  0.45471  0.97242  0.63123  1.0000
  S   S56       1.0  0.63603  0.95427  0.58268  1.0000
  C   C171      1.0  0.50622  0.96023  0.53821  1.0000
  Fe  Fe27      1.0  0.67218  0.98079  0.63855  1.0000
  C   C172      1.0  0.53491  0.97712  0.54407  1.0000
  H   H175      1.0  0.47199  0.95387  0.62046  1.0000
  S   S57       1.0  0.36469  0.97657  0.54193  1.0000
  H   H176      1.0  0.55572  0.96231  0.56011  1.0000
  H   H177      1.0  0.50510  0.93236  0.54991  1.0000
  Fe  Fe28      1.0  0.66997  0.96063  0.53564  1.0000
  H   H178      1.0  0.45633  0.97014  0.66973  1.0000
  C   C173      1.0  0.47897  0.97926  0.51779  1.0000
  H   H179      1.0  0.50786  0.00406  0.62936  1.0000
  Fe  Fe29      1.0  0.34824  0.51282  0.90870  1.0000
  H   H180      1.0  0.43196  0.96257  0.61210  1.0000
  H   H181      1.0  0.67455  0.72244  0.00438  1.0000
  Fe  Fe30      1.0  0.39616  0.51469  0.00088  1.0000
  S   S58       1.0  0.44345  0.95742  0.51340  1.0000
  S   S59       1.0  0.94548  0.47782  0.45784  1.0000
  H   H182      1.0  0.70295  0.50440  0.30923  1.0000
  S   S60       1.0  0.85959  0.45479  0.45079  1.0000
  C   C174      1.0  0.71106  0.48405  0.24317  1.0000
  Fe  Fe31      1.0  0.83193  0.48986  0.39278  1.0000
  Fe  Fe32      1.0  0.89629  0.49677  0.45498  1.0000
  H   H183      1.0  0.80613  0.38446  0.05172  1.0000
  C   C175      1.0  0.73305  0.46978  0.22003  1.0000
  Fe  Fe33      1.0  0.84030  0.49175  0.49955  1.0000
  H   H184      1.0  0.72646  0.46170  0.18351  1.0000
  C   C176      1.0  0.76357  0.46483  0.24449  1.0000
  C   C177      1.0  0.77252  0.47438  0.29219  1.0000
  S   S61       1.0  0.81106  0.46654  0.32122  1.0000
  H   H185      1.0  0.78033  0.45325  0.22642  1.0000
  S   S62       1.0  0.70707  0.41281  0.01770  1.0000
  C   C178      1.0  0.75063  0.48900  0.31543  1.0000
  S   S63       1.0  0.70383  0.50406  0.09725  1.0000
  C   C179      1.0  0.99457  0.09872  0.03839  1.0000
  H   H186      1.0  0.97149  0.09393  0.04315  1.0000
  C   C180      1.0  0.78531  0.38246  0.02305  1.0000
  H   H187      1.0  0.75725  0.49606  0.35236  1.0000
  Fe  Fe34      1.0  0.68321  0.46215  0.04301  1.0000
  H   H188      1.0  0.80271  0.31329  0.01528  1.0000
  C   C181      1.0  0.71989  0.49356  0.29101  1.0000
  H   H189      1.0  0.76771  0.36646  0.03568  1.0000
  C   C182      1.0  0.97895  0.49620  0.49352  1.0000
  S   S64       1.0  0.87927  0.03381  0.00686  1.0000
  H   H190      1.0  0.77535  0.41043  0.01532  1.0000
  H   H191      1.0  0.92438  0.41134  0.50378  1.0000
  C   C183      1.0  0.00765  0.48641  0.48417  1.0000
  H   H192      1.0  0.00877  0.46818  0.45514  1.0000
  Fe  Fe35      1.0  0.84008  0.05299  0.94885  1.0000
  S   S65       1.0  0.80900  0.10256  0.94813  1.0000
  Fe  Fe36      1.0  0.79370  0.27506  0.79711  1.0000
  S   S66       1.0  0.74625  0.27819  0.81128  1.0000
  S   S67       1.0  0.83410  0.24893  0.84709  1.0000
  Fe  Fe37      1.0  0.77459  0.31141  0.69996  1.0000
  S   S68       1.0  0.72557  0.31679  0.70694  1.0000
  S   S69       1.0  0.78821  0.32168  0.63009  1.0000
  Fe  Fe38      1.0  0.74486  0.33490  0.78154  1.0000
  S   S70       1.0  0.72618  0.38679  0.80955  1.0000
  Fe  Fe39      1.0  0.73168  0.25963  0.73584  1.0000
  H   H193      1.0  0.73313  0.18229  0.53573  1.0000
  S   S71       1.0  0.79379  0.33337  0.77239  1.0000
  S   S72       1.0  0.77924  0.25288  0.72397  1.0000
  S   S73       1.0  0.82772  0.47714  0.56885  1.0000
  C   C184      1.0  0.73307  0.10868  0.77936  1.0000
  H   H194      1.0  0.75800  0.13840  0.63063  1.0000
  C   C185      1.0  0.68196  0.12868  0.62664  1.0000
  C   C186      1.0  0.91748  0.44544  0.56154  1.0000
  C   C187      1.0  0.71065  0.40587  0.95895  1.0000
  C   C188      1.0  0.70877  0.43489  0.92736  1.0000
  C   C189      1.0  0.71378  0.42856  0.88180  1.0000
  C   C190      1.0  0.72038  0.39319  0.86728  1.0000
  C   C191      1.0  0.72163  0.36402  0.89856  1.0000
  N   N17       1.0  0.79295  0.36507  0.98136  1.0000
  H   H195      1.0  0.80241  0.08010  0.84309  1.0000
  N   N18       1.0  0.75698  0.06553  0.73540  1.0000
  N   N19       1.0  0.73691  0.23094  0.57741  1.0000
  C   C192      1.0  0.67779  0.15725  0.65724  1.0000
  C   C193      1.0  0.79752  0.36555  0.61260  1.0000
  C   C194      1.0  0.80028  0.39539  0.64329  1.0000
  C   C195      1.0  0.80877  0.42961  0.62879  1.0000
  C   C196      1.0  0.81448  0.43437  0.58351  1.0000
  C   C197      1.0  0.81142  0.40464  0.55258  1.0000
  C   C198      1.0  0.80306  0.37033  0.56718  1.0000
  H   H196      1.0  0.79603  0.39207  0.67829  1.0000
  H   H197      1.0  0.81106  0.45250  0.65290  1.0000
  S   S74       1.0  0.95260  0.03267  0.94451  1.0000
  H   H198      1.0  0.80088  0.34739  0.54316  1.0000
  C   C199      1.0  0.81650  0.14279  0.91957  1.0000
  C   C200      1.0  0.84454  0.14792  0.90662  1.0000
  C   C201      1.0  0.84980  0.18056  0.88437  1.0000
  C   C202      1.0  0.82673  0.20769  0.87362  1.0000
  C   C203      1.0  0.79856  0.20228  0.88601  1.0000
  C   C204      1.0  0.79369  0.17024  0.90962  1.0000
  H   H199      1.0  0.86238  0.12709  0.91450  1.0000
  H   H200      1.0  0.87171  0.18469  0.87515  1.0000
  H   H201      1.0  0.78078  0.22314  0.87848  1.0000
  H   H202      1.0  0.77206  0.16659  0.91996  1.0000
  C   C205      1.0  0.78198  0.06283  0.77208  1.0000
  H   H203      1.0  0.81638  0.28302  0.94563  1.0000
  S   S75       1.0  0.69532  0.21705  0.71262  1.0000
  C   C206      1.0  0.70232  0.17954  0.67770  1.0000
  C   C207      1.0  0.73134  0.17227  0.66845  1.0000
  C   C208      1.0  0.73556  0.14356  0.63801  1.0000
  H   H204      1.0  0.77398  0.02322  0.69609  1.0000
  H   H205      1.0  0.81578  0.40799  0.51765  1.0000
  H   H206      1.0  0.75051  0.18882  0.68443  1.0000
  N   N20       1.0  0.90472  0.44850  0.60020  1.0000
  H   H207      1.0  0.71263  0.45124  0.85766  1.0000
  H   H208      1.0  0.78221  0.23866  0.61690  1.0000
  S   S76       1.0  0.71627  0.08750  0.57634  1.0000
  C   C209      1.0  0.79894  0.36833  0.90125  1.0000
  C   C210      1.0  0.80173  0.32897  0.98339  1.0000
  C   C211      1.0  0.76979  0.23507  0.57967  1.0000
  C   C212      1.0  0.75637  0.04550  0.69146  1.0000
  H   H209      1.0  0.79688  0.38371  0.86879  1.0000
  C   C213      1.0  0.79164  0.38482  0.94105  1.0000
  H   H210      1.0  0.72647  0.33663  0.88763  1.0000
  H   H211      1.0  0.70407  0.46232  0.93831  1.0000
  H   H212      1.0  0.92943  0.46818  0.55043  1.0000
  C   C214      1.0  0.91471  0.41323  0.53500  1.0000
  H   H213      1.0  0.75857  0.12086  0.84937  1.0000
  C   C215      1.0  0.88863  0.42021  0.61300  1.0000
  H   H214      1.0  0.76054  0.06444  0.66384  1.0000
  H   H215      1.0  0.71306  0.09035  0.70944  1.0000
  H   H216      1.0  0.87177  0.36571  0.59681  1.0000
  C   C216      1.0  0.72197  0.25595  0.59987  1.0000
  H   H217      1.0  0.73435  0.27846  0.61907  1.0000
  C   C217      1.0  0.89836  0.38424  0.54783  1.0000
  C   C218      1.0  0.73277  0.08812  0.73859  1.0000
  C   C219      1.0  0.88533  0.38762  0.58721  1.0000
  C   C220      1.0  0.75816  0.10553  0.81725  1.0000
  H   H218      1.0  0.78006  0.21087  0.56535  1.0000
  C   C221      1.0  0.80811  0.33164  0.90319  1.0000
  Fe  Fe40      1.0  0.68575  0.03826  0.57246  1.0000
  H   H219      1.0  0.88765  0.50177  0.60921  1.0000
  H   H220      1.0  0.71836  0.34778  0.96856  1.0000
  C   C222      1.0  0.71696  0.37042  0.94432  1.0000
  H   H221      1.0  0.90476  0.47881  0.66326  1.0000
  C   C223      1.0  0.71083  0.12181  0.61674  1.0000
  H   H222      1.0  0.71400  0.12700  0.78139  1.0000
  H   H223      1.0  0.73365  0.03273  0.67885  1.0000
  H   H224      1.0  0.87723  0.42319  0.64226  1.0000
  H   H225      1.0  0.77359  0.25975  0.55963  1.0000
  S   S77       1.0  0.86559  0.04358  0.89141  1.0000
  H   H226      1.0  0.92886  0.49664  0.62681  1.0000
  H   H227      1.0  0.81408  0.31852  0.87284  1.0000
  C   C224      1.0  0.72130  0.20259  0.55291  1.0000
  C   C225      1.0  0.78281  0.08253  0.81370  1.0000
  H   H228      1.0  0.80128  0.04501  0.76965  1.0000
  C   C226      1.0  0.80946  0.31171  0.94434  1.0000
  C   C227      1.0  0.69078  0.25241  0.59936  1.0000
  C   C228      1.0  0.98563  0.01824  0.98632  1.0000
  H   H229      1.0  0.78402  0.41321  0.93888  1.0000
  Fe  Fe41      1.0  0.90335  0.01980  0.94832  1.0000
  H   H230      1.0  0.89522  0.35952  0.52672  1.0000
  C   C229      1.0  0.90672  0.48311  0.62621  1.0000
  C   C230      1.0  0.69003  0.19835  0.55140  1.0000
  H   H231      1.0  0.67940  0.27138  0.61907  1.0000
  H   H232      1.0  0.97957  0.11333  0.96531  1.0000
  C   C231      1.0  0.99914  0.10971  0.99457  1.0000
  H   H233      1.0  0.67806  0.17495  0.53367  1.0000
  Fe  Fe42      1.0  0.75718  0.82110  0.18227  1.0000
  S   S78       1.0  0.71672  0.82283  0.21696  1.0000
  S   S79       1.0  0.75050  0.85646  0.11645  1.0000
  Fe  Fe43      1.0  0.79115  0.76487  0.25442  1.0000
  S   S80       1.0  0.75388  0.76444  0.29511  1.0000
  S   S81       1.0  0.82911  0.72213  0.26669  1.0000
  Fe  Fe44      1.0  0.72291  0.76167  0.22304  1.0000
  H   H234      1.0  0.73696  0.96735  0.18174  1.0000
  Fe  Fe45      1.0  0.75162  0.82573  0.28533  1.0000
  S   S82       1.0  0.75219  0.87402  0.33581  1.0000
  S   S83       1.0  0.76023  0.75992  0.18294  1.0000
  S   S84       1.0  0.79210  0.82629  0.24998  1.0000
  H   H235      1.0  0.81768  0.73547  0.35985  1.0000
  C   C232      1.0  0.74683  0.94135  0.17132  1.0000
  H   H236      1.0  0.94002  0.53468  0.38890  1.0000
  Fe  Fe46      1.0  0.84985  0.56020  0.44533  1.0000
  S   S85       1.0  0.84460  0.62159  0.44769  1.0000
  C   C233      1.0  0.80719  0.91594  0.27724  1.0000
  S   S86       1.0  0.85987  0.93632  0.05148  1.0000
  C   C234      1.0  0.78115  0.87760  0.09778  1.0000
  C   C235      1.0  0.77460  0.90442  0.06232  1.0000
  C   C236      1.0  0.79842  0.92292  0.04794  1.0000
  C   C237      1.0  0.82901  0.91417  0.06824  1.0000
  C   C238      1.0  0.83552  0.88722  0.10346  1.0000
  C   C239      1.0  0.81172  0.86909  0.11834  1.0000
  H   H237      1.0  0.75098  0.91131  0.04645  1.0000
  H   H238      1.0  0.92129  0.57278  0.35454  1.0000
  H   H239      1.0  0.85914  0.88031  0.11936  1.0000
  H   H240      1.0  0.81706  0.84850  0.14564  1.0000
  C   C240      1.0  0.72952  0.88361  0.37793  1.0000
  C   C241      1.0  0.73411  0.91650  0.40361  1.0000
  C   C242      1.0  0.71686  0.92532  0.43763  1.0000
  C   C243      1.0  0.92829  0.62545  0.47675  1.0000
  C   C244      1.0  0.70725  0.85968  0.38641  1.0000
  H   H241      1.0  0.75132  0.93519  0.39744  1.0000
  H   H242      1.0  0.70351  0.83425  0.36708  1.0000
  C   C245      1.0  0.69484  0.90118  0.44647  1.0000
  C   C246      1.0  0.70584  0.68899  0.13144  1.0000
  C   C247      1.0  0.70520  0.66276  0.09582  1.0000
  S   S87       1.0  0.87025  0.52886  0.39302  1.0000
  H   H243      1.0  0.71814  0.71386  0.13038  1.0000
  H   H244      1.0  0.71752  0.66747  0.06822  1.0000
  C   C248      1.0  0.83203  0.69380  0.31637  1.0000
  C   C249      1.0  0.84183  0.65726  0.31443  1.0000
  C   C250      1.0  0.84479  0.63437  0.35397  1.0000
  C   C251      1.0  0.83899  0.64835  0.39616  1.0000
  C   C252      1.0  0.82910  0.68481  0.39795  1.0000
  C   C253      1.0  0.82514  0.70732  0.35798  1.0000
  H   H245      1.0  0.84698  0.64663  0.28215  1.0000
  H   H246      1.0  0.85196  0.60617  0.35191  1.0000
  H   H247      1.0  0.82448  0.69577  0.43043  1.0000
  H   H248      1.0  0.73113  0.91856  0.17401  1.0000
  H   H249      1.0  0.80826  0.90638  0.31293  1.0000
  H   H250      1.0  0.74815  0.94300  0.13363  1.0000
  C   C254      1.0  0.80319  0.93931  0.18550  1.0000
  C   C255      1.0  0.74304  0.57838  0.22305  1.0000
  H   H251      1.0  0.90089  0.60396  0.41313  1.0000
  H   H252      1.0  0.74522  0.59711  0.15367  1.0000
  C   C256      1.0  0.74784  0.58770  0.27078  1.0000
  C   C257      1.0  0.74905  0.60392  0.19086  1.0000
  H   H253      1.0  0.96190  0.56612  0.36205  1.0000
  C   C258      1.0  0.83396  0.91995  0.26043  1.0000
  C   C259      1.0  0.77875  0.92319  0.24725  1.0000
  C   C260      1.0  0.98373  0.00512  0.03068  1.0000
  H   H254      1.0  0.80193  0.94838  0.14963  1.0000
  C   C261      1.0  0.92373  0.60478  0.43533  1.0000
  N   N21       1.0  0.75794  0.62167  0.28591  1.0000
  H   H255      1.0  0.78026  0.61224  0.35718  1.0000
  H   H256      1.0  0.76990  0.65923  0.34362  1.0000
  H   H257      1.0  0.76450  0.65850  0.18209  1.0000
  S   S88       1.0  0.68628  0.71854  0.20799  1.0000
  C   C262      1.0  0.75972  0.63835  0.20670  1.0000
  C   C263      1.0  0.76238  0.63061  0.33612  1.0000
  H   H258      1.0  0.79320  0.94420  0.02159  1.0000
  H   H259      1.0  0.85261  0.93488  0.20057  1.0000
  H   H260      1.0  0.74058  0.62738  0.34810  1.0000
  H   H261      1.0  0.72082  0.95058  0.45728  1.0000
  S   S89       1.0  0.68500  0.60080  0.04673  1.0000
  C   C264      1.0  0.76383  0.64694  0.25455  1.0000
  H   H262      1.0  0.73467  0.55154  0.21113  1.0000
  N   N22       1.0  0.77702  0.93417  0.20184  1.0000
  H   H263      1.0  0.85611  0.91359  0.28303  1.0000
  H   H264      1.0  0.74333  0.56762  0.29566  1.0000
  H   H265      1.0  0.75802  0.91942  0.26033  1.0000
  H   H266      1.0  0.77173  0.67399  0.26628  1.0000
  S   S90       1.0  0.80951  0.52364  0.44114  1.0000
  C   C265      1.0  0.83201  0.93187  0.21431  1.0000
  N   N23       1.0  0.94762  0.58596  0.42311  1.0000
  C   C266      1.0  0.94244  0.56384  0.38004  1.0000
  C   C267      1.0  0.97624  0.58647  0.45188  1.0000
  C   C268      1.0  0.68913  0.68390  0.16641  1.0000
  C   C269      1.0  0.68810  0.63095  0.09504  1.0000
  C   C270      1.0  0.69005  0.86845  0.42051  1.0000
  C   C271      1.0  0.95751  0.62667  0.50586  1.0000
  H   H267      1.0  0.99496  0.57049  0.44313  1.0000
  H   H268      1.0  0.70543  0.77715  0.03204  1.0000
  C   C272      1.0  0.98170  0.60712  0.49340  1.0000
  H   H269      1.0  0.90913  0.64027  0.48610  1.0000
  C   C273      1.0  0.68810  0.76814  0.05033  1.0000
  H   H270      1.0  0.96149  0.00132  0.03894  1.0000
  H   H271      1.0  0.69744  0.81043  0.10308  1.0000
  C   C274      1.0  0.68362  0.78691  0.09024  1.0000
  H   H272      1.0  0.00897  0.98880  0.09962  1.0000
  C   C275      1.0  0.75205  0.90740  0.87154  1.0000
  Fe  Fe47      1.0  0.84479  0.98818  0.88642  1.0000
  H   H273      1.0  0.76160  0.92285  0.94483  1.0000
  H   H274      1.0  0.73900  0.94404  0.68436  1.0000
  C   C276      1.0  0.76617  0.98227  0.81113  1.0000
  H   H275      1.0  0.00389  0.55175  0.58781  1.0000
  C   C277      1.0  0.77097  0.91193  0.91607  1.0000
  Fe  Fe48      1.0  0.85798  0.97818  0.99315  1.0000
  S   S91       1.0  0.88461  0.96320  0.93803  1.0000
  H   H276      1.0  0.85924  0.88439  0.93098  1.0000
  H   H277      1.0  0.71824  0.99459  0.80766  1.0000
  C   C278      1.0  0.72490  0.96972  0.74319  1.0000
  H   H278      1.0  0.72793  0.91519  0.86520  1.0000
  S   S92       1.0  0.82683  0.96268  0.81503  1.0000
  C   C279      1.0  0.77769  0.95342  0.74180  1.0000
  C   C280      1.0  0.74647  0.95503  0.71950  1.0000
  S   S93       1.0  0.70707  0.98296  0.59363  1.0000
  H   H279      1.0  0.81692  0.90718  0.95756  1.0000
  C   C281      1.0  0.80225  0.90300  0.92301  1.0000
  H   H280      1.0  0.79415  0.94142  0.72348  1.0000
  H   H281      1.0  0.85779  0.90043  0.87210  1.0000
  H   H282      1.0  0.80564  0.87649  0.81342  1.0000
  C   C282      1.0  0.79585  0.88533  0.84279  1.0000
  C   C283      1.0  0.78765  0.96700  0.78764  1.0000
  N   N24       1.0  0.81426  0.88988  0.88652  1.0000
  C   C284      1.0  0.84715  0.88143  0.89348  1.0000
  C   C285      1.0  0.76448  0.89385  0.83467  1.0000
  H   H283      1.0  0.77358  0.99279  0.84647  1.0000
  H   H284      1.0  0.75017  0.89152  0.79949  1.0000
  H   H285      1.0  0.85081  0.85294  0.88240  1.0000
  C   C286      1.0  0.73484  0.98323  0.78913  1.0000
  H   H286      1.0  0.96132  0.64254  0.53816  1.0000
  C   C287      1.0  0.97769  0.51991  0.53092  1.0000
  S   S94       1.0  0.68541  0.96985  0.71705  1.0000
  C   C288      1.0  0.00500  0.53345  0.55884  1.0000
  S   S95       1.0  0.81670  0.99852  0.94049  1.0000
  H   H287      1.0  0.95576  0.52793  0.53824  1.0000
  H   H288      1.0  0.00447  0.60734  0.51615  1.0000
  S   S96       1.0  0.87914  0.53144  0.50771  1.0000
