data_image0
_chemical_formula_structural       CHCSHC3HFeHC2H2C2HC3HSHCH3CHCHSCH2CNHNC2H2FeSHCFeS2HSFeS2FeS2FeSFeS3C6H4C4HC5H2C2H2CHC4HC2H2CN2H5CFeSNCH2CH4C3HSCHCHC3HCNH3CH3CSCH2C2H2SC2HCFeCH2NHCHFeS2H3FeS2FeS2FeCFeS3C6H4C2NH4CHC3H2C3SHCHC2HNC6H4CH3C2HCHCNHCSHCHCFeC2HC2HCHFeH3C3SFeSFeSCS2C10H2C2HCHCHC2H2C2H2SHCHC2HC3FeHNFeHSHCHNH4NH5CHS2HCFeH7CH3C4NC2HC2HFeHSFeSC5HCHCH2S3HCHCSCH2C4HCHCNC2H4C2H2C3FeH2FeHSCH2CSFeS2FeS2FeSFeS3Fe2SH3C3H2C6H4C6H4C2H3CHC2H2SH2SH3C4NC3HCSC2NHCH4NC2HCHCHCH2NCHC2SH3C2H3CH2NH2C2SC2HC3HFeHSC2H2SHC2HFeS2FeS2FeCFeS3C4NHC2H5C2H2C6H3C2H2CSCSCH2CHSC2SH2CFe2SHC2NCH5SHC2H2SCFeSHC2H2C2NHCHCSC2FeSHFeS2FeS2FeS2FeSFeS3C5H2SC2H3C2H2C2HC4H2FeC2HC2HSH2CNC2HCH2CHC2H4C2HC2HFeCH6C2HCHCHNH4SC4H2CHC2HCNHCH4FeHCSC2SH3FeHSCHCFeS2FeS2FeSFeS3FeS2HCHFeCS2HCNCSCH2C6H6C6H6C3HCSHFeH2CHSC2HC2HCH9NHC2HCNHC2HCNHFeHCHCHC2S2CHSCHCHCH3C4SHC3HCHCSH2SH2SCHS2FeSCFe2S3C2NH2SNH2FeHSC6H5C3HCH3FeCHFeCH2CHSCHCH2FeHCHCHCH4C2HSH2
_chemical_formula_sum              "C384 H384 S128 Fe64 N32"
_cell_length_a       35.8404
_cell_length_b       36.064
_cell_length_c       46.6866
_cell_angle_alpha    90.3797
_cell_angle_beta     89.5698
_cell_angle_gamma    89.9871

_space_group_name_H-M_alt    "P 1"
_space_group_IT_number       1

loop_
  _space_group_symop_operation_xyz
  'x, y, z'

loop_
  _atom_site_type_symbol
  _atom_site_label
  _atom_site_symmetry_multiplicity
  _atom_site_fract_x
  _atom_site_fract_y
  _atom_site_fract_z
  _atom_site_occupancy
  C   C1        1.0  0.43710  0.05657  0.26833  1.0000
  H   H1        1.0  0.47227  0.12641  0.17673  1.0000
  C   C2        1.0  0.44751  0.38837  0.04548  1.0000
  S   S1        1.0  0.46180  0.05883  0.21275  1.0000
  H   H2        1.0  0.43259  0.39805  0.06433  1.0000
  C   C3        1.0  0.49795  0.14242  0.17648  1.0000
  C   C4        1.0  0.31457  0.24772  0.33417  1.0000
  C   C5        1.0  0.50621  0.37622  0.02072  1.0000
  H   H3        1.0  0.08592  0.46251  0.15357  1.0000
  Fe  Fe1       1.0  0.50060  0.03046  0.18123  1.0000
  H   H4        1.0  0.45654  0.30133  0.06025  1.0000
  C   C6        1.0  0.45405  0.28865  0.03922  1.0000
  C   C7        1.0  0.42755  0.37741  0.02108  1.0000
  H   H5        1.0  0.06398  0.40763  0.09560  1.0000
  H   H6        1.0  0.28563  0.30019  0.33659  1.0000
  C   C8        1.0  0.49939  0.17691  0.16314  1.0000
  C   C9        1.0  0.07916  0.47853  0.13473  1.0000
  H   H7        1.0  0.11201  0.41970  0.08920  1.0000
  C   C10       1.0  0.43734  0.04396  0.29674  1.0000
  C   C11       1.0  0.46521  0.01963  0.30576  1.0000
  C   C12       1.0  0.48682  0.38758  0.04538  1.0000
  H   H8        1.0  0.47490  0.18785  0.15262  1.0000
  S   S2        1.0  0.08020  0.40230  0.03198  1.0000
  H   H9        1.0  0.41614  0.05335  0.31169  1.0000
  C   C13       1.0  0.08827  0.42292  0.10453  1.0000
  H   H10       1.0  0.41538  0.07528  0.26144  1.0000
  H   H11       1.0  0.29995  0.23818  0.31524  1.0000
  H   H12       1.0  0.34698  0.19786  0.33788  1.0000
  C   C14       1.0  0.46443  0.04459  0.24870  1.0000
  H   H13       1.0  0.50209  0.39701  0.06397  1.0000
  C   C15       1.0  0.15236  0.38575  0.01611  1.0000
  H   H14       1.0  0.39437  0.29752  0.03767  1.0000
  S   S3        1.0  0.37833  0.38062  0.02099  1.0000
  C   C16       1.0  0.06928  0.48239  0.08458  1.0000
  H   H15       1.0  0.15741  0.38355  0.03884  1.0000
  H   H16       1.0  0.06885  0.46939  0.06357  1.0000
  C   C17       1.0  0.41877  0.28651  0.02661  1.0000
  N   N1        1.0  0.07892  0.46227  0.10813  1.0000
  H   H17       1.0  0.09615  0.40968  0.12501  1.0000
  N   N2        1.0  0.48504  0.27598  0.02489  1.0000
  C   C18       1.0  0.49296  0.00820  0.28628  1.0000
  C   C19       1.0  0.49247  0.02047  0.25776  1.0000
  H   H18       1.0  0.40635  0.46155  0.01978  1.0000
  H   H19       1.0  0.32909  0.46731  0.33967  1.0000
  Fe  Fe2       1.0  0.02111  0.42176  0.02273  1.0000
  S   S4        1.0  0.51024  0.05492  0.13773  1.0000
  H   H20       1.0  0.10196  0.41217  0.56046  1.0000
  C   C20       1.0  0.38543  0.48581  0.40437  1.0000
  Fe  Fe3       1.0  0.34496  0.05994  0.37903  1.0000
  S   S5        1.0  0.40272  0.06051  0.39720  1.0000
  S   S6        1.0  0.31409  0.11302  0.36798  1.0000
  H   H21       1.0  0.47101  0.05344  0.46934  1.0000
  S   S7        1.0  0.32224  0.01921  0.41067  1.0000
  Fe  Fe4       1.0  0.29143  0.30661  0.45240  1.0000
  S   S8        1.0  0.27784  0.33399  0.49487  1.0000
  S   S9        1.0  0.31281  0.24747  0.45639  1.0000
  Fe  Fe5       1.0  0.29256  0.38134  0.42130  1.0000
  S   S10       1.0  0.28089  0.41265  0.46177  1.0000
  S   S11       1.0  0.30591  0.41075  0.37964  1.0000
  Fe  Fe6       1.0  0.32204  0.37480  0.48229  1.0000
  S   S12       1.0  0.36545  0.39703  0.51296  1.0000
  Fe  Fe7       1.0  0.23725  0.36895  0.47008  1.0000
  S   S13       1.0  0.18383  0.39747  0.48577  1.0000
  S   S14       1.0  0.33719  0.34657  0.44119  1.0000
  S   S15       1.0  0.24744  0.33862  0.42814  1.0000
  C   C21       1.0  0.30983  0.14829  0.39431  1.0000
  C   C22       1.0  0.32989  0.14665  0.41982  1.0000
  C   C23       1.0  0.32926  0.17683  0.43904  1.0000
  C   C24       1.0  0.30877  0.20901  0.43292  1.0000
  C   C25       1.0  0.28752  0.21017  0.40794  1.0000
  C   C26       1.0  0.28798  0.17980  0.38875  1.0000
  H   H22       1.0  0.34653  0.12241  0.42446  1.0000
  H   H23       1.0  0.34542  0.17552  0.45849  1.0000
  H   H24       1.0  0.27119  0.23458  0.40323  1.0000
  H   H25       1.0  0.27194  0.18100  0.36924  1.0000
  C   C27       1.0  0.45966  0.34078  0.48961  1.0000
  C   C28       1.0  0.42295  0.35461  0.49002  1.0000
  C   C29       1.0  0.41173  0.38003  0.51115  1.0000
  C   C30       1.0  0.39091  0.45108  0.41662  1.0000
  H   H26       1.0  0.40340  0.34529  0.47411  1.0000
  C   C31       1.0  0.06202  0.36054  0.49951  1.0000
  C   C32       1.0  0.12692  0.34471  0.48784  1.0000
  C   C33       1.0  0.13712  0.38208  0.48995  1.0000
  C   C34       1.0  0.10949  0.40855  0.49654  1.0000
  C   C35       1.0  0.07216  0.39791  0.50117  1.0000
  H   H27       1.0  0.11715  0.43750  0.49830  1.0000
  H   H28       1.0  0.05147  0.41861  0.50659  1.0000
  C   C36       1.0  0.31407  0.48083  0.35701  1.0000
  C   C37       1.0  0.29864  0.45934  0.37916  1.0000
  H   H29       1.0  0.38291  0.41786  0.45436  1.0000
  H   H30       1.0  0.26546  0.46101  0.41768  1.0000
  C   C38       1.0  0.40831  0.26957  0.52397  1.0000
  H   H31       1.0  0.39670  0.03027  0.53543  1.0000
  C   C39       1.0  0.37831  0.44456  0.44445  1.0000
  C   C40       1.0  0.41459  0.00868  0.52680  1.0000
  C   C41       1.0  0.43758  0.39152  0.53184  1.0000
  C   C42       1.0  0.47412  0.37721  0.53173  1.0000
  H   H32       1.0  0.42923  0.41127  0.54822  1.0000
  C   C43       1.0  0.48527  0.35174  0.51061  1.0000
  C   C44       1.0  0.08952  0.33402  0.49274  1.0000
  H   H33       1.0  0.08199  0.30500  0.49145  1.0000
  H   H34       1.0  0.14792  0.32404  0.48289  1.0000
  C   C45       1.0  0.35138  0.27052  0.38325  1.0000
  N   N3        1.0  0.02052  0.38683  0.59188  1.0000
  N   N4        1.0  0.35901  0.23648  0.37143  1.0000
  H   H35       1.0  0.03502  0.48510  0.43813  1.0000
  H   H36       1.0  0.38164  0.18283  0.37983  1.0000
  H   H37       1.0  0.40468  0.42917  0.40452  1.0000
  H   H38       1.0  0.39480  0.49112  0.38264  1.0000
  H   H39       1.0  0.35196  0.27479  0.50811  1.0000
  C   C46       1.0  0.42412  0.30770  0.56375  1.0000
  Fe  Fe8       1.0  0.41361  0.01232  0.36747  1.0000
  S   S16       1.0  0.48850  0.01843  0.61564  1.0000
  N   N5        1.0  0.43391  0.28181  0.54349  1.0000
  C   C47       1.0  0.50915  0.06493  0.54595  1.0000
  H   H40       1.0  0.33436  0.32305  0.54402  1.0000
  H   H41       1.0  0.44447  0.31769  0.57907  1.0000
  C   C48       1.0  0.05138  0.38499  0.57449  1.0000
  H   H42       1.0  0.06475  0.44571  0.44582  1.0000
  H   H43       1.0  0.46471  0.10452  0.55269  1.0000
  H   H44       1.0  0.47174  0.23881  0.55415  1.0000
  H   H45       1.0  0.46812  0.32113  0.47320  1.0000
  C   C49       1.0  0.37202  0.28393  0.52400  1.0000
  C   C50       1.0  0.35926  0.47258  0.45938  1.0000
  C   C51       1.0  0.32502  0.29398  0.37080  1.0000
  H   H46       1.0  0.48221  0.26285  0.52087  1.0000
  S   S17       1.0  0.35767  0.01507  0.34650  1.0000
  C   C52       1.0  0.01583  0.41596  0.61049  1.0000
  H   H47       1.0  0.49376  0.38625  0.54781  1.0000
  C   C53       1.0  0.47163  0.26604  0.54322  1.0000
  H   H48       1.0  0.36507  0.27934  0.40279  1.0000
  C   C54       1.0  0.27886  0.47712  0.40121  1.0000
  C   C55       1.0  0.34135  0.22512  0.34700  1.0000
  C   C56       1.0  0.38810  0.32269  0.56436  1.0000
  H   H49       1.0  0.41600  0.24904  0.50793  1.0000
  C   C57       1.0  0.36200  0.31076  0.54429  1.0000
  N   N6        1.0  0.01407  0.43198  0.42503  1.0000
  H   H50       1.0  0.34917  0.46704  0.48093  1.0000
  H   H51       1.0  0.09278  0.46639  0.59314  1.0000
  H   H52       1.0  0.31875  0.32090  0.38026  1.0000
  C   C58       1.0  0.03540  0.45551  0.44469  1.0000
  H   H53       1.0  0.38083  0.34435  0.57964  1.0000
  H   H54       1.0  0.44027  0.09735  0.50302  1.0000
  H   H55       1.0  0.03750  0.46831  0.62577  1.0000
  C   C59       1.0  0.04165  0.44504  0.61118  1.0000
  S   S18       1.0  0.38503  0.02695  0.47526  1.0000
  C   C60       1.0  0.48219  0.05750  0.49070  1.0000
  H   H56       1.0  0.38708  0.21582  0.40812  1.0000
  H   H57       1.0  0.49181  0.28463  0.55418  1.0000
  C   C61       1.0  0.07266  0.44390  0.59294  1.0000
  C   C62       1.0  0.07777  0.41358  0.57459  1.0000
  H   H58       1.0  0.05562  0.36139  0.56029  1.0000
  H   H59       1.0  0.41538  0.21981  0.37593  1.0000
  S   S19       1.0  0.01558  0.34607  0.50681  1.0000
  C   C63       1.0  0.38731  0.21265  0.38441  1.0000
  C   C64       1.0  0.46486  0.08218  0.50969  1.0000
  H   H60       1.0  0.02263  0.45474  0.46646  1.0000
  C   C65       1.0  0.47835  0.08596  0.53753  1.0000
  Fe  Fe9       1.0  0.38076  0.01736  0.42748  1.0000
  C   C66       1.0  0.30644  0.28237  0.34618  1.0000
  H   H61       1.0  0.30423  0.01008  0.47684  1.0000
  H   H62       1.0  0.01436  0.38595  0.45344  1.0000
  N   N7        1.0  0.35294  0.50617  0.44685  1.0000
  H   H63       1.0  0.01065  0.47298  0.39239  1.0000
  C   C67       1.0  0.46448  0.45465  0.98571  1.0000
  H   H64       1.0  0.38829  0.27042  0.98880  1.0000
  Fe  Fe10      1.0  0.38378  0.04498  0.89502  1.0000
  S   S20       1.0  0.44350  0.06245  0.89130  1.0000
  S   S21       1.0  0.33752  0.08824  0.89651  1.0000
  H   H65       1.0  0.27750  0.41843  0.88302  1.0000
  H   H66       1.0  0.28258  0.45641  0.84039  1.0000
  H   H67       1.0  0.38983  0.44904  0.94281  1.0000
  Fe  Fe11      1.0  0.33916  0.30847  0.93396  1.0000
  S   S22       1.0  0.30744  0.32041  0.97488  1.0000
  S   S23       1.0  0.37472  0.25674  0.92635  1.0000
  Fe  Fe12      1.0  0.33956  0.39232  0.91763  1.0000
  S   S24       1.0  0.30999  0.40926  0.95794  1.0000
  S   S25       1.0  0.35990  0.43248  0.88390  1.0000
  Fe  Fe13      1.0  0.34742  0.36816  0.97975  1.0000
  C   C68       1.0  0.11023  0.39743  0.97699  1.0000
  Fe  Fe14      1.0  0.27292  0.36037  0.94865  1.0000
  S   S26       1.0  0.21114  0.37193  0.94140  1.0000
  S   S27       1.0  0.37963  0.35539  0.93988  1.0000
  S   S28       1.0  0.30200  0.34454  0.90712  1.0000
  C   C69       1.0  0.34690  0.13439  0.90778  1.0000
  C   C70       1.0  0.38262  0.14519  0.91630  1.0000
  C   C71       1.0  0.39023  0.18265  0.92251  1.0000
  C   C72       1.0  0.36218  0.20974  0.92068  1.0000
  C   C73       1.0  0.32615  0.19891  0.91288  1.0000
  C   C74       1.0  0.31860  0.16137  0.90640  1.0000
  H   H68       1.0  0.40457  0.12480  0.91778  1.0000
  H   H69       1.0  0.41818  0.19067  0.92854  1.0000
  H   H70       1.0  0.30430  0.21950  0.91135  1.0000
  H   H71       1.0  0.29082  0.15329  0.89995  1.0000
  C   C75       1.0  0.41537  0.27165  0.99909  1.0000
  C   C76       1.0  0.44723  0.36449  0.99707  1.0000
  N   N8        1.0  0.25618  0.47344  0.87942  1.0000
  H   H72       1.0  0.44453  0.24764  0.96307  1.0000
  H   H73       1.0  0.43266  0.35455  0.97865  1.0000
  H   H74       1.0  0.23064  0.49774  0.91643  1.0000
  H   H75       1.0  0.34951  0.07133  0.79968  1.0000
  C   C77       1.0  0.17550  0.38109  0.96709  1.0000
  H   H76       1.0  0.32800  0.47931  0.92936  1.0000
  C   C78       1.0  0.48841  0.01800  0.99326  1.0000
  C   C79       1.0  0.36455  0.50387  0.86484  1.0000
  C   C80       1.0  0.41859  0.44741  0.94968  1.0000
  H   H77       1.0  0.25391  0.43526  0.91428  1.0000
  H   H78       1.0  0.45456  0.17372  0.85336  1.0000
  C   C81       1.0  0.27123  0.47938  0.85281  1.0000
  C   C82       1.0  0.18182  0.37903  0.99656  1.0000
  C   C83       1.0  0.48290  0.43326  0.93860  1.0000
  S   S29       1.0  0.48436  0.03062  0.81947  1.0000
  H   H79       1.0  0.31655  0.10349  0.81494  1.0000
  C   C84       1.0  0.48194  0.26133  0.99789  1.0000
  H   H80       1.0  0.47244  0.49673  0.71073  1.0000
  C   C85       1.0  0.25350  0.43557  0.89048  1.0000
  C   C86       1.0  0.49434  0.03191  0.76173  1.0000
  H   H81       1.0  0.01830  0.43807  0.87193  1.0000
  N   N9        1.0  0.37316  0.11197  0.82756  1.0000
  C   C87       1.0  0.36583  0.14573  0.83993  1.0000
  C   C88       1.0  0.40914  0.09996  0.82430  1.0000
  C   C89       1.0  0.39499  0.16871  0.84892  1.0000
  C   C90       1.0  0.43898  0.12211  0.83317  1.0000
  C   C91       1.0  0.43177  0.15665  0.84567  1.0000
  C   C92       1.0  0.34235  0.08748  0.81932  1.0000
  H   H82       1.0  0.33728  0.15455  0.84383  1.0000
  H   H83       1.0  0.41496  0.07284  0.81520  1.0000
  H   H84       1.0  0.38895  0.19507  0.85938  1.0000
  H   H85       1.0  0.13443  0.39191  0.93468  1.0000
  C   C93       1.0  0.44577  0.43563  0.93000  1.0000
  H   H86       1.0  0.33621  0.06791  0.83704  1.0000
  H   H87       1.0  0.50419  0.42359  0.92370  1.0000
  H   H88       1.0  0.46743  0.11199  0.83098  1.0000
  C   C94       1.0  0.44709  0.25895  0.98459  1.0000
  C   C95       1.0  0.13962  0.39044  0.95744  1.0000
  H   H89       1.0  0.22716  0.42227  0.88337  1.0000
  C   C96       1.0  0.33684  0.49667  0.91185  1.0000
  H   H90       1.0  0.08271  0.40422  0.96925  1.0000
  C   C97       1.0  0.35343  0.48085  0.88744  1.0000
  N   N10       1.0  0.42804  0.45619  0.97724  1.0000
  H   H91       1.0  0.37762  0.49190  0.84596  1.0000
  C   C98       1.0  0.49244  0.44306  0.96657  1.0000
  S   S30       1.0  0.49895  0.02563  0.95681  1.0000
  H   H92       1.0  0.43783  0.42815  0.90829  1.0000
  C   C99       1.0  0.48628  0.36411  0.99680  1.0000
  H   H93       1.0  0.20923  0.37174  0.00426  1.0000
  C   C100      1.0  0.11642  0.39485  0.00644  1.0000
  Fe  Fe15      1.0  0.45491  0.01746  0.92296  1.0000
  C   C101      1.0  0.39916  0.46897  0.99739  1.0000
  C   C102      1.0  0.24249  0.50247  0.89533  1.0000
  H   H94       1.0  0.50384  0.03175  0.71621  1.0000
  C   C103      1.0  0.48456  0.02491  0.73319  1.0000
  C   C104      1.0  0.46947  0.02365  0.78406  1.0000
  H   H95       1.0  0.50654  0.25164  0.98643  1.0000
  C   C105      1.0  0.50078  0.50463  0.71610  1.0000
  H   H96       1.0  0.50112  0.35489  0.97777  1.0000
  Fe  Fe16      1.0  0.44781  0.01802  0.85770  1.0000
  H   H97       1.0  0.37201  0.45520  0.99296  1.0000
  H   H98       1.0  0.39567  0.49947  0.99576  1.0000
  H   H99       1.0  0.47204  0.46131  0.00761  1.0000
  C   C106      1.0  0.43429  0.00909  0.77772  1.0000
  C   C107      1.0  0.44988  0.00947  0.72675  1.0000
  C   C108      1.0  0.41539  0.73560  0.28507  1.0000
  S   S31       1.0  0.05859  0.60399  0.32238  1.0000
  Fe  Fe17      1.0  0.34773  0.64422  0.29382  1.0000
  S   S32       1.0  0.38972  0.62788  0.25964  1.0000
  Fe  Fe18      1.0  0.26542  0.66422  0.30095  1.0000
  S   S33       1.0  0.21338  0.66303  0.27366  1.0000
  C   C109      1.0  0.48068  0.74663  0.28294  1.0000
  S   S34       1.0  0.31606  0.69701  0.28754  1.0000
  S   S35       1.0  0.29657  0.61037  0.30311  1.0000
  C   C110      1.0  0.05943  0.53655  0.11430  1.0000
  C   C111      1.0  0.43276  0.93457  0.27096  1.0000
  C   C112      1.0  0.10015  0.62308  0.30817  1.0000
  C   C113      1.0  0.44625  0.99724  0.03081  1.0000
  C   C114      1.0  0.16248  0.64812  0.31690  1.0000
  C   C115      1.0  0.16972  0.64866  0.28745  1.0000
  C   C116      1.0  0.14191  0.63680  0.26841  1.0000
  C   C117      1.0  0.10737  0.62365  0.27871  1.0000
  C   C118      1.0  0.44087  0.94746  0.24339  1.0000
  C   C119      1.0  0.45024  0.73865  0.32987  1.0000
  H   H100      1.0  0.14729  0.63739  0.24558  1.0000
  H   H101      1.0  0.08639  0.61398  0.26390  1.0000
  C   C120      1.0  0.43596  0.64266  0.26443  1.0000
  C   C121      1.0  0.45096  0.64696  0.29181  1.0000
  H   H102      1.0  0.39920  0.90109  0.31496  1.0000
  C   C122      1.0  0.49313  0.57481  0.18259  1.0000
  H   H103      1.0  0.46660  0.93946  0.23255  1.0000
  C   C123      1.0  0.45873  0.64827  0.24032  1.0000
  H   H104      1.0  0.43370  0.64225  0.31051  1.0000
  C   C124      1.0  0.46573  0.56063  0.23713  1.0000
  C   C125      1.0  0.48452  0.91650  0.01794  1.0000
  H   H105      1.0  0.44719  0.64516  0.21909  1.0000
  H   H106      1.0  0.39020  0.73073  0.29747  1.0000
  C   C126      1.0  0.12762  0.63587  0.32717  1.0000
  C   C127      1.0  0.41329  0.73640  0.25518  1.0000
  H   H107      1.0  0.44115  0.76571  0.33907  1.0000
  H   H108      1.0  0.43653  0.56793  0.16826  1.0000
  S   S36       1.0  0.46559  0.00247  0.34100  1.0000
  H   H109      1.0  0.32441  0.53626  0.34115  1.0000
  C   C128      1.0  0.48873  0.65642  0.29499  1.0000
  H   H110      1.0  0.23728  0.57395  0.33775  1.0000
  C   C129      1.0  0.45518  0.56766  0.18645  1.0000
  C   C130      1.0  0.20111  0.55902  0.28936  1.0000
  H   H111      1.0  0.36295  0.93459  0.31974  1.0000
  C   C131      1.0  0.44718  0.90937  0.01130  1.0000
  C   C132      1.0  0.47526  0.99852  0.05083  1.0000
  C   C133      1.0  0.37689  0.96996  0.27243  1.0000
  Fe  Fe19      1.0  0.32541  0.70704  0.33453  1.0000
  H   H112      1.0  0.41165  0.55607  0.21735  1.0000
  N   N11       1.0  0.50279  0.56844  0.23321  1.0000
  Fe  Fe20      1.0  0.01101  0.58147  0.29545  1.0000
  H   H113      1.0  0.50739  0.74963  0.29350  1.0000
  S   S37       1.0  0.35990  0.65521  0.34007  1.0000
  H   H114      1.0  0.45254  0.91644  0.28138  1.0000
  C   C134      1.0  0.39286  0.93118  0.31368  1.0000
  H   H115      1.0  0.05051  0.56516  0.11681  1.0000
  N   N12       1.0  0.40071  0.94523  0.28485  1.0000
  H   H116      1.0  0.06854  0.52841  0.15942  1.0000
  H   H117      1.0  0.05025  0.53521  0.06873  1.0000
  H   H118      1.0  0.43109  0.71684  0.33816  1.0000
  H   H119      1.0  0.45448  0.55591  0.25843  1.0000
  N   N13       1.0  0.44888  0.74002  0.29852  1.0000
  H   H120      1.0  0.50441  0.58037  0.16138  1.0000
  H   H121      1.0  0.35218  0.97953  0.28384  1.0000
  H   H122      1.0  0.36581  0.00377  0.23534  1.0000
  H   H123      1.0  0.50036  0.65942  0.31621  1.0000
  H   H124      1.0  0.41013  0.94633  0.32957  1.0000
  C   C135      1.0  0.49649  0.65757  0.24349  1.0000
  H   H125      1.0  0.47868  0.73188  0.33756  1.0000
  S   S38       1.0  0.49080  0.97309  0.16461  1.0000
  S   S39       1.0  0.46758  0.98029  0.08530  1.0000
  H   H126      1.0  0.21637  0.53281  0.28494  1.0000
  C   C136      1.0  0.44129  0.56059  0.21389  1.0000
  Fe  Fe21      1.0  0.50618  0.99630  0.12148  1.0000
  H   H127      1.0  0.22048  0.58283  0.28658  1.0000
  H   H128      1.0  0.44455  0.74258  0.21587  1.0000
  H   H129      1.0  0.49382  0.91555  0.04002  1.0000
  H   H130      1.0  0.17888  0.56277  0.27314  1.0000
  H   H131      1.0  0.18357  0.65749  0.33173  1.0000
  H   H132      1.0  0.50509  0.75190  0.24072  1.0000
  H   H133      1.0  0.41885  0.98786  0.03740  1.0000
  C   C137      1.0  0.14905  0.54930  0.32298  1.0000
  H   H134      1.0  0.42808  0.90227  0.02853  1.0000
  H   H135      1.0  0.38681  0.73153  0.24466  1.0000
  H   H136      1.0  0.13087  0.54335  0.30504  1.0000
  C   C138      1.0  0.05926  0.51973  0.08730  1.0000
  C   C139      1.0  0.47957  0.74794  0.25301  1.0000
  C   C140      1.0  0.44564  0.74256  0.23909  1.0000
  C   C141      1.0  0.06953  0.51591  0.13820  1.0000
  N   N14       1.0  0.18561  0.55871  0.31850  1.0000
  C   C142      1.0  0.41633  0.97203  0.23033  1.0000
  C   C143      1.0  0.38428  0.98363  0.24497  1.0000
  H   H137      1.0  0.42287  0.98321  0.20932  1.0000
  C   C144      1.0  0.20819  0.56693  0.34118  1.0000
  C   C145      1.0  0.41419  0.00063  0.49738  1.0000
  H   H138      1.0  0.21190  0.57443  0.38696  1.0000
  Fe  Fe22      1.0  0.48598  0.99190  0.65928  1.0000
  H   H139      1.0  0.38519  0.90876  0.49743  1.0000
  S   S40       1.0  0.29387  0.58612  0.38538  1.0000
  Fe  Fe23      1.0  0.34079  0.97408  0.38020  1.0000
  S   S41       1.0  0.39743  0.96881  0.39975  1.0000
  C   C146      1.0  0.19396  0.56714  0.36915  1.0000
  C   C147      1.0  0.36666  0.51337  0.42002  1.0000
  C   C148      1.0  0.29348  0.85197  0.35403  1.0000
  C   C149      1.0  0.43840  0.98935  0.54514  1.0000
  C   C150      1.0  0.29310  0.53751  0.38070  1.0000
  H   H140      1.0  0.37655  0.88964  0.37341  1.0000
  C   C151      1.0  0.46057  0.95274  0.50486  1.0000
  H   H141      1.0  0.26171  0.52930  0.41970  1.0000
  C   C152      1.0  0.35622  0.89097  0.45936  1.0000
  H   H142      1.0  0.34413  0.96299  0.50559  1.0000
  H   H143      1.0  0.47832  0.93094  0.49638  1.0000
  S   S42       1.0  0.35746  0.75810  0.35014  1.0000
  S   S43       1.0  0.30341  0.92519  0.36910  1.0000
  S   S44       1.0  0.49692  0.93436  0.64240  1.0000
  H   H144      1.0  0.32175  0.88064  0.42250  1.0000
  C   C153      1.0  0.36763  0.83191  0.36254  1.0000
  H   H145      1.0  0.27023  0.98052  0.49423  1.0000
  C   C154      1.0  0.46145  0.96132  0.53424  1.0000
  S   S45       1.0  0.49154  0.93666  0.55680  1.0000
  C   C155      1.0  0.43718  0.97257  0.48637  1.0000
  H   H146      1.0  0.28216  0.93561  0.43081  1.0000
  H   H147      1.0  0.43698  0.96620  0.46369  1.0000
  C   C156      1.0  0.30468  0.81482  0.34978  1.0000
  C   C157      1.0  0.32694  0.89858  0.44079  1.0000
  C   C158      1.0  0.36234  0.91418  0.48288  1.0000
  C   C159      1.0  0.30444  0.92970  0.44575  1.0000
  H   H148      1.0  0.43847  0.99574  0.56779  1.0000
  C   C160      1.0  0.31132  0.51986  0.35774  1.0000
  H   H149      1.0  0.37413  0.86717  0.45545  1.0000
  C   C161      1.0  0.33904  0.94484  0.48740  1.0000
  N   N15       1.0  0.31075  0.95242  0.46882  1.0000
  C   C162      1.0  0.27629  0.51594  0.40207  1.0000
  C   C163      1.0  0.13385  0.54936  0.35067  1.0000
  H   H150      1.0  0.14490  0.55934  0.39538  1.0000
  H   H151      1.0  0.12215  0.63569  0.34998  1.0000
  H   H152      1.0  0.36213  0.54019  0.41019  1.0000
  H   H153      1.0  0.26726  0.98985  0.45642  1.0000
  C   C164      1.0  0.28682  0.98471  0.47434  1.0000
  C   C165      1.0  0.15648  0.55849  0.37386  1.0000
  H   H154      1.0  0.32195  0.55699  0.44822  1.0000
  H   H155      1.0  0.30720  0.52257  0.47325  1.0000
  C   C166      1.0  0.33220  0.53483  0.46270  1.0000
  C   C167      1.0  0.35648  0.86906  0.36663  1.0000
  C   C168      1.0  0.31924  0.87924  0.36251  1.0000
  Fe  Fe24      1.0  0.50561  0.96198  0.59985  1.0000
  H   H156      1.0  0.26457  0.85953  0.35089  1.0000
  H   H157      1.0  0.10435  0.54380  0.35387  1.0000
  Fe  Fe25      1.0  0.30570  0.62597  0.34899  1.0000
  H   H158      1.0  0.39638  0.82422  0.36615  1.0000
  S   S46       1.0  0.27173  0.67861  0.34767  1.0000
  C   C169      1.0  0.34181  0.80456  0.35420  1.0000
  H   H159      1.0  0.35036  0.54760  0.47921  1.0000
  H   H160      1.0  0.28450  0.79409  0.34341  1.0000
  C   C170      1.0  0.49631  0.93027  0.96820  1.0000
  S   S47       1.0  0.05662  0.64701  0.80332  1.0000
  Fe  Fe26      1.0  0.36580  0.64611  0.79153  1.0000
  S   S48       1.0  0.37734  0.67508  0.83325  1.0000
  S   S49       1.0  0.40660  0.63134  0.75611  1.0000
  Fe  Fe27      1.0  0.28036  0.64886  0.80016  1.0000
  S   S50       1.0  0.28510  0.67896  0.84214  1.0000
  S   S51       1.0  0.22931  0.62870  0.77620  1.0000
  Fe  Fe28      1.0  0.33038  0.71343  0.82123  1.0000
  S   S52       1.0  0.33385  0.77593  0.81434  1.0000
  Fe  Fe29      1.0  0.33152  0.63798  0.85047  1.0000
  S   S53       1.0  0.33090  0.60598  0.89206  1.0000
  S   S54       1.0  0.32157  0.68609  0.77840  1.0000
  S   S55       1.0  0.32395  0.60619  0.80956  1.0000
  Fe  Fe30      1.0  0.40373  0.96201  0.89285  1.0000
  Fe  Fe31      1.0  0.01452  0.60782  0.78290  1.0000
  S   S56       1.0  0.39023  0.90124  0.90103  1.0000
  H   H161      1.0  0.43834  0.91731  0.82576  1.0000
  H   H162      1.0  0.02973  0.61050  0.85440  1.0000
  H   H163      1.0  0.28630  0.52012  0.82092  1.0000
  C   C171      1.0  0.34132  0.55814  0.89045  1.0000
  C   C172      1.0  0.45376  0.92058  0.80580  1.0000
  C   C173      1.0  0.43142  0.72667  0.77497  1.0000
  H   H164      1.0  0.31798  0.54734  0.93222  1.0000
  H   H165      1.0  0.36708  0.55976  0.84870  1.0000
  C   C174      1.0  0.35094  0.81011  0.83846  1.0000
  C   C175      1.0  0.35363  0.84714  0.82928  1.0000
  C   C176      1.0  0.36612  0.87536  0.84796  1.0000
  C   C177      1.0  0.37583  0.86678  0.87612  1.0000
  C   C178      1.0  0.37347  0.82971  0.88519  1.0000
  C   C179      1.0  0.36124  0.80148  0.86646  1.0000
  H   H166      1.0  0.34544  0.85410  0.80772  1.0000
  H   H167      1.0  0.36731  0.90380  0.84083  1.0000
  H   H168      1.0  0.38084  0.82279  0.90693  1.0000
  H   H169      1.0  0.35923  0.77317  0.87384  1.0000
  C   C180      1.0  0.10473  0.63780  0.79822  1.0000
  C   C181      1.0  0.11718  0.61606  0.77520  1.0000
  C   C182      1.0  0.15558  0.61225  0.76965  1.0000
  C   C183      1.0  0.18197  0.62994  0.78710  1.0000
  C   C184      1.0  0.16968  0.65048  0.81090  1.0000
  C   C185      1.0  0.13111  0.65451  0.81635  1.0000
  H   H170      1.0  0.09729  0.60347  0.76084  1.0000
  H   H171      1.0  0.16484  0.59641  0.75115  1.0000
  H   H172      1.0  0.18977  0.66422  0.82450  1.0000
  H   H173      1.0  0.12169  0.67140  0.83423  1.0000
  C   C186      1.0  0.45509  0.63337  0.76116  1.0000
  C   C187      1.0  0.47085  0.63695  0.78836  1.0000
  H   H174      1.0  0.41498  0.00250  0.79484  1.0000
  H   H175      1.0  0.44894  0.92556  0.94054  1.0000
  H   H176      1.0  0.48399  0.54659  0.74684  1.0000
  C   C188      1.0  0.47840  0.63166  0.73699  1.0000
  H   H177      1.0  0.45303  0.63788  0.80717  1.0000
  C   C189      1.0  0.24455  0.53877  0.88494  1.0000
  C   C190      1.0  0.01527  0.56777  0.91801  1.0000
  H   H178      1.0  0.46634  0.62877  0.71590  1.0000
  H   H179      1.0  0.40723  0.71206  0.76527  1.0000
  S   S57       1.0  0.43843  0.99754  0.69123  1.0000
  H   H180      1.0  0.37784  0.90320  0.99638  1.0000
  H   H181      1.0  0.43168  0.72167  0.71788  1.0000
  S   S58       1.0  0.46492  0.97443  0.88889  1.0000
  H   H182      1.0  0.40957  0.89910  0.77942  1.0000
  H   H183      1.0  0.39747  0.99040  0.74415  1.0000
  H   H184      1.0  0.44474  0.90830  0.73401  1.0000
  C   C191      1.0  0.45946  0.72375  0.72684  1.0000
  C   C192      1.0  0.35841  0.54234  0.86627  1.0000
  C   C193      1.0  0.39554  0.90584  0.97687  1.0000
  C   C194      1.0  0.50910  0.92731  0.99624  1.0000
  N   N16       1.0  0.05296  0.55831  0.86619  1.0000
  C   C195      1.0  0.43763  0.91041  0.77978  1.0000
  C   C196      1.0  0.03195  0.58950  0.87084  1.0000
  C   C197      1.0  0.07314  0.55318  0.83903  1.0000
  H   H185      1.0  0.49480  0.94101  0.70968  1.0000
  C   C198      1.0  0.49041  0.72370  0.70833  1.0000
  S   S59       1.0  0.38705  0.00288  0.85882  1.0000
  C   C199      1.0  0.45769  0.91554  0.75423  1.0000
  C   C200      1.0  0.05640  0.53229  0.88719  1.0000
  N   N17       1.0  0.46414  0.72554  0.75589  1.0000
  H   H186      1.0  0.43720  0.71234  0.79546  1.0000
  C   C201      1.0  0.22856  0.73226  0.77934  1.0000
  H   H187      1.0  0.20958  0.69098  0.73419  1.0000
  H   H188      1.0  0.23046  0.75945  0.79061  1.0000
  H   H189      1.0  0.23677  0.71001  0.79437  1.0000
  H   H190      1.0  0.24916  0.73273  0.76142  1.0000
  N   N18       1.0  0.19073  0.72506  0.76892  1.0000
  C   C202      1.0  0.18571  0.70296  0.74532  1.0000
  C   C203      1.0  0.42446  0.00219  0.74905  1.0000
  H   H191      1.0  0.38412  0.92909  0.96407  1.0000
  C   C204      1.0  0.12427  0.72913  0.77570  1.0000
  H   H192      1.0  0.03982  0.51564  0.92985  1.0000
  C   C205      1.0  0.16061  0.73792  0.78421  1.0000
  H   H193      1.0  0.16459  0.75419  0.80356  1.0000
  C   C206      1.0  0.26008  0.54511  0.85794  1.0000
  H   H194      1.0  0.09091  0.69841  0.74555  1.0000
  H   H195      1.0  0.10040  0.73818  0.78839  1.0000
  N   N19       1.0  0.43475  0.91288  0.98378  1.0000
  C   C207      1.0  0.11891  0.70680  0.75158  1.0000
  H   H196      1.0  0.10292  0.56087  0.84157  1.0000
  C   C208      1.0  0.14977  0.69370  0.73619  1.0000
  C   C209      1.0  0.50897  0.94014  0.78007  1.0000
  S   S60       1.0  0.03316  0.55321  0.76481  1.0000
  H   H197      1.0  0.26272  0.57323  0.84997  1.0000
  H   H198      1.0  0.14595  0.67505  0.71812  1.0000
  H   H199      1.0  0.39316  0.88001  0.96388  1.0000
  C   C210      1.0  0.03789  0.53678  0.91349  1.0000
  C   C211      1.0  0.33113  0.53524  0.91343  1.0000
  H   H200      1.0  0.48676  0.72180  0.68531  1.0000
  H   H201      1.0  0.42322  0.75581  0.77965  1.0000
  H   H202      1.0  0.07091  0.52395  0.83145  1.0000
  C   C212      1.0  0.45886  0.92271  0.96230  1.0000
  H   H203      1.0  0.50203  0.94464  0.82599  1.0000
  H   H204      1.0  0.43044  0.00521  0.98675  1.0000
  N   N20       1.0  0.49281  0.93046  0.75462  1.0000
  H   H205      1.0  0.23517  0.56200  0.89801  1.0000
  H   H206      1.0  0.06121  0.57066  0.82193  1.0000
  C   C213      1.0  0.27340  0.51528  0.84167  1.0000
  C   C214      1.0  0.50724  0.53258  0.73629  1.0000
  S   S61       1.0  0.39469  0.00266  0.92927  1.0000
  C   C215      1.0  0.49920  0.72767  0.76722  1.0000
  C   C216      1.0  0.48964  0.93556  0.80598  1.0000
  H   H207      1.0  0.50299  0.72857  0.79024  1.0000
  C   C217      1.0  0.50989  0.63875  0.79122  1.0000
  C   C218      1.0  0.45276  0.00699  0.00211  1.0000
  C   C219      1.0  0.01236  0.59444  0.89663  1.0000
  H   H208      1.0  0.07275  0.50740  0.88339  1.0000
  Fe  Fe32      1.0  0.57051  0.04136  0.14492  1.0000
  H   H209      1.0  0.00005  0.44134  0.16493  1.0000
  S   S62       1.0  0.61757  0.08316  0.13959  1.0000
  C   C220      1.0  0.88559  0.48703  0.13070  1.0000
  C   C221      1.0  0.59919  0.48664  0.18024  1.0000
  H   H210      1.0  0.89761  0.40691  0.09281  1.0000
  H   H211      1.0  0.86168  0.49809  0.19191  1.0000
  S   S63       1.0  0.99875  0.48682  0.21514  1.0000
  H   H212      1.0  0.85340  0.42900  0.04714  1.0000
  C   C222      1.0  0.82131  0.34051  0.05091  1.0000
  C   C223      1.0  0.99143  0.46887  0.15867  1.0000
  H   H213      1.0  0.69322  0.46713  0.17139  1.0000
  Fe  Fe33      1.0  0.61195  0.30259  0.09362  1.0000
  S   S64       1.0  0.63434  0.32470  0.05166  1.0000
  S   S65       1.0  0.58255  0.24632  0.09548  1.0000
  Fe  Fe34      1.0  0.60763  0.38111  0.11982  1.0000
  S   S66       1.0  0.62690  0.40747  0.07927  1.0000
  S   S67       1.0  0.59898  0.41512  0.16022  1.0000
  Fe  Fe35      1.0  0.58947  0.36753  0.05679  1.0000
  C   C224      1.0  0.98323  0.47610  0.12991  1.0000
  Fe  Fe36      1.0  0.67075  0.36281  0.07821  1.0000
  S   S68       1.0  0.72468  0.39565  0.07124  1.0000
  S   S69       1.0  0.56593  0.34500  0.09748  1.0000
  S   S70       1.0  0.65207  0.33721  0.12005  1.0000
  C   C225      1.0  0.84679  0.36972  0.04695  1.0000
  C   C226      1.0  0.52206  0.27883  0.03795  1.0000
  C   C227      1.0  0.78368  0.34770  0.05819  1.0000
  C   C228      1.0  0.77131  0.38426  0.06168  1.0000
  N   N21       1.0  0.56285  0.14769  0.18839  1.0000
  H   H214      1.0  0.59021  0.19743  0.17531  1.0000
  C   C229      1.0  0.79686  0.41341  0.05768  1.0000
  C   C230      1.0  0.53262  0.19706  0.16315  1.0000
  H   H215      1.0  0.98563  0.45422  0.11418  1.0000
  H   H216      1.0  0.66257  0.14947  0.13796  1.0000
  H   H217      1.0  0.69164  0.43407  0.12476  1.0000
  H   H218      1.0  0.64990  0.21369  0.12116  1.0000
  H   H219      1.0  0.53978  0.29863  0.02578  1.0000
  C   C231      1.0  0.59409  0.46343  0.15636  1.0000
  C   C232      1.0  0.58549  0.47910  0.12991  1.0000
  H   H220      1.0  0.60572  0.47459  0.20077  1.0000
  H   H221      1.0  0.58088  0.46143  0.11149  1.0000
  C   C233      1.0  0.60897  0.12786  0.12538  1.0000
  C   C234      1.0  0.57510  0.13636  0.11232  1.0000
  C   C235      1.0  0.56828  0.17249  0.10243  1.0000
  C   C236      1.0  0.59492  0.20075  0.10583  1.0000
  C   C237      1.0  0.62908  0.19224  0.11854  1.0000
  C   C238      1.0  0.63613  0.15585  0.12811  1.0000
  H   H222      1.0  0.55415  0.11509  0.10969  1.0000
  H   H223      1.0  0.54185  0.17869  0.09248  1.0000
  H   H224      1.0  0.59626  0.10152  0.20049  1.0000
  C   C239      1.0  0.88729  0.46307  0.10702  1.0000
  C   C240      1.0  0.90130  0.43768  0.16181  1.0000
  H   H225      1.0  0.90715  0.42759  0.18316  1.0000
  H   H226      1.0  0.83066  0.31214  0.04834  1.0000
  C   C241      1.0  0.89605  0.42578  0.11103  1.0000
  S   S71       1.0  0.89381  0.35967  0.03746  1.0000
  C   C242      1.0  0.83430  0.40624  0.05026  1.0000
  S   S72       1.0  0.55493  0.37997  0.01779  1.0000
  C   C243      1.0  0.59622  0.13233  0.20187  1.0000
  H   H227      1.0  0.76433  0.32501  0.06122  1.0000
  H   H228      1.0  0.78752  0.44176  0.06030  1.0000
  C   C244      1.0  0.53008  0.12827  0.18924  1.0000
  H   H229      1.0  0.53440  0.22360  0.15233  1.0000
  S   S73       1.0  0.98214  0.41719  0.06071  1.0000
  C   C245      1.0  0.68898  0.48287  0.15198  1.0000
  C   C246      1.0  0.90307  0.41293  0.13859  1.0000
  S   S74       1.0  0.92120  0.46349  0.02316  1.0000
  H   H230      1.0  0.52062  0.28880  0.06052  1.0000
  H   H231      1.0  0.88256  0.47360  0.08563  1.0000
  C   C247      1.0  0.68809  0.46399  0.12572  1.0000
  Fe  Fe37      1.0  0.93728  0.40424  0.02887  1.0000
  Fe  Fe38      1.0  0.96868  0.47664  0.05237  1.0000
  S   S75       1.0  0.56103  0.02093  0.18977  1.0000
  H   H232      1.0  0.91001  0.38398  0.14187  1.0000
  C   C248      1.0  0.56424  0.18200  0.17608  1.0000
  C   C249      1.0  0.68218  0.48383  0.10063  1.0000
  N   N22       1.0  0.89293  0.47428  0.15764  1.0000
  C   C250      1.0  0.98844  0.49705  0.17938  1.0000
  H   H233      1.0  0.59740  0.14104  0.22467  1.0000
  H   H234      1.0  0.62195  0.14152  0.19049  1.0000
  H   H235      1.0  0.68171  0.46940  0.08014  1.0000
  H   H236      1.0  0.53605  0.25130  0.03822  1.0000
  H   H237      1.0  0.52871  0.10141  0.19952  1.0000
  S   S76       1.0  0.91450  0.49576  0.34062  1.0000
  H   H238      1.0  0.53304  0.01204  0.05756  1.0000
  C   C251      1.0  0.89011  0.49948  0.18237  1.0000
  C   C252      1.0  0.51707  0.02060  0.01352  1.0000
  H   H239      1.0  0.91092  0.49218  0.19900  1.0000
  H   H240      1.0  0.51357  0.01092  0.24279  1.0000
  S   S77       1.0  0.01033  0.48263  0.01665  1.0000
  C   C253      1.0  0.51053  0.01096  0.04227  1.0000
  Fe  Fe39      1.0  0.94205  0.46382  0.49915  1.0000
  S   S78       1.0  0.93291  0.40810  0.47903  1.0000
  H   H241      1.0  0.69780  0.21755  0.59179  1.0000
  C   C254      1.0  0.95131  0.49894  0.67528  1.0000
  C   C255      1.0  0.75412  0.36947  0.51234  1.0000
  H   H242      1.0  0.69739  0.35719  0.52547  1.0000
  H   H243      1.0  0.74635  0.37771  0.49095  1.0000
  C   C256      1.0  0.69319  0.43362  0.57632  1.0000
  C   C257      1.0  0.66448  0.24544  0.62382  1.0000
  N   N23       1.0  0.73395  0.43678  0.57725  1.0000
  H   H244      1.0  0.88826  0.45956  0.39115  1.0000
  C   C258      1.0  0.53708  0.17156  0.63910  1.0000
  H   H245      1.0  0.97237  0.43421  0.36022  1.0000
  C   C259      1.0  0.75245  0.42932  0.60210  1.0000
  S   S79       1.0  0.58105  0.07583  0.60654  1.0000
  C   C260      1.0  0.92679  0.50151  0.37680  1.0000
  C   C261      1.0  0.64126  0.24110  0.64766  1.0000
  Fe  Fe40      1.0  0.92771  0.43462  0.55943  1.0000
  S   S80       1.0  0.91885  0.37654  0.54318  1.0000
  H   H246      1.0  0.53035  0.11284  0.64696  1.0000
  Fe  Fe41      1.0  0.88407  0.40346  0.50953  1.0000
  S   S81       1.0  0.82574  0.38692  0.49564  1.0000
  S   S82       1.0  0.89066  0.46120  0.52692  1.0000
  Fe  Fe42      1.0  0.57207  0.29473  0.60668  1.0000
  S   S83       1.0  0.60193  0.29029  0.56450  1.0000
  S   S84       1.0  0.54881  0.24621  0.63215  1.0000
  Fe  Fe43      1.0  0.57484  0.38052  0.60614  1.0000
  S   S85       1.0  0.60435  0.38220  0.56356  1.0000
  S   S86       1.0  0.55587  0.43293  0.62898  1.0000
  Fe  Fe44      1.0  0.56393  0.33699  0.55116  1.0000
  S   S87       1.0  0.53045  0.33214  0.51040  1.0000
  Fe  Fe45      1.0  0.63937  0.33581  0.58107  1.0000
  S   S88       1.0  0.70257  0.33317  0.58525  1.0000
  S   S89       1.0  0.53202  0.33864  0.59244  1.0000
  S   S90       1.0  0.61189  0.33697  0.62469  1.0000
  C   C262      1.0  0.79186  0.37070  0.52037  1.0000
  C   C263      1.0  0.80166  0.35975  0.54798  1.0000
  C   C264      1.0  0.77397  0.34775  0.56736  1.0000
  C   C265      1.0  0.73621  0.34699  0.55948  1.0000
  C   C266      1.0  0.72633  0.35790  0.53187  1.0000
  H   H247      1.0  0.83059  0.36043  0.55439  1.0000
  H   H248      1.0  0.78189  0.33927  0.58865  1.0000
  S   S91       1.0  0.91638  0.43913  0.60697  1.0000
  C   C267      1.0  0.79197  0.45229  0.55413  1.0000
  C   C268      1.0  0.63362  0.20547  0.65779  1.0000
  H   H249      1.0  0.80715  0.46008  0.53488  1.0000
  H   H250      1.0  0.60382  0.14197  0.57757  1.0000
  H   H251      1.0  0.68362  0.15482  0.61060  1.0000
  C   C269      1.0  0.58900  0.46825  0.63472  1.0000
  C   C270      1.0  0.62717  0.46033  0.63524  1.0000
  H   H252      1.0  0.57828  0.01436  0.51914  1.0000
  H   H253      1.0  0.63672  0.43239  0.63088  1.0000
  C   C271      1.0  0.56786  0.12275  0.61162  1.0000
  C   C272      1.0  0.54342  0.13361  0.63358  1.0000
  H   H254      1.0  0.51925  0.06779  0.56769  1.0000
  C   C273      1.0  0.55460  0.19896  0.62246  1.0000
  C   C274      1.0  0.57801  0.18804  0.59982  1.0000
  C   C275      1.0  0.58479  0.15011  0.59458  1.0000
  C   C276      1.0  0.81113  0.44438  0.57927  1.0000
  H   H255      1.0  0.67031  0.27290  0.61558  1.0000
  H   H256      1.0  0.59173  0.20882  0.58690  1.0000
  Fe  Fe46      1.0  0.96876  0.38754  0.51479  1.0000
  C   C277      1.0  0.75314  0.44849  0.55353  1.0000
  C   C278      1.0  0.65284  0.48832  0.64239  1.0000
  H   H257      1.0  0.99131  0.34377  0.56993  1.0000
  C   C279      1.0  0.93290  0.47311  0.65773  1.0000
  C   C280      1.0  0.93812  0.47349  0.62792  1.0000
  H   H258      1.0  0.51894  0.17976  0.65667  1.0000
  S   S92       1.0  0.98031  0.44346  0.53382  1.0000
  H   H259      1.0  0.73723  0.41981  0.62082  1.0000
  H   H260      1.0  0.97627  0.34614  0.42195  1.0000
  C   C281      1.0  0.79132  0.43288  0.60345  1.0000
  N   N24       1.0  0.64857  0.17496  0.64442  1.0000
  C   C282      1.0  0.96158  0.50002  0.61563  1.0000
  C   C283      1.0  0.00538  0.39656  0.43293  1.0000
  H   H261      1.0  0.00196  0.33472  0.60706  1.0000
  C   C284      1.0  0.98189  0.42317  0.38050  1.0000
  H   H262      1.0  0.91499  0.45241  0.66734  1.0000
  H   H263      1.0  0.68380  0.42447  0.55476  1.0000
  C   C285      1.0  0.67174  0.17898  0.62119  1.0000
  H   H264      1.0  0.73861  0.45391  0.53370  1.0000
  C   C286      1.0  0.99341  0.35642  0.59169  1.0000
  C   C287      1.0  0.67988  0.21426  0.61045  1.0000
  H   H265      1.0  0.68291  0.41236  0.59161  1.0000
  H   H266      1.0  0.96572  0.50051  0.59265  1.0000
  H   H267      1.0  0.84134  0.44649  0.57989  1.0000
  H   H268      1.0  0.80615  0.42618  0.62292  1.0000
  C   C288      1.0  0.64107  0.13790  0.65585  1.0000
  C   C289      1.0  0.97182  0.38744  0.38884  1.0000
  H   H269      1.0  0.68230  0.48194  0.64319  1.0000
  C   C290      1.0  0.91894  0.48280  0.42649  1.0000
  C   C291      1.0  0.90925  0.47950  0.39751  1.0000
  H   H270      1.0  0.90506  0.46578  0.44226  1.0000
  Fe  Fe47      1.0  0.54936  0.02647  0.62493  1.0000
  C   C292      1.0  0.98390  0.37385  0.41512  1.0000
  H   H271      1.0  0.96503  0.36656  0.59766  1.0000
  H   H272      1.0  0.95455  0.37043  0.37501  1.0000
  H   H273      1.0  0.68008  0.46071  0.58174  1.0000
  H   H274      1.0  0.62831  0.26508  0.65777  1.0000
  H   H275      1.0  0.64188  0.11649  0.63857  1.0000
  H   H276      1.0  0.99189  0.41692  0.62484  1.0000
  C   C293      1.0  0.51256  0.03649  0.49998  1.0000
  C   C294      1.0  0.00337  0.44510  0.39890  1.0000
  H   H277      1.0  0.61265  0.13644  0.66552  1.0000
  C   C295      1.0  0.57674  0.50445  0.64081  1.0000
  H   H278      1.0  0.57184  0.03059  0.55514  1.0000
  C   C296      1.0  0.55729  0.01786  0.53656  1.0000
  H   H279      1.0  0.52486  0.01620  0.48548  1.0000
  N   N25       1.0  0.52599  0.04080  0.52716  1.0000
  H   H280      1.0  0.61468  0.20240  0.67585  1.0000
  H   H281      1.0  0.66198  0.13084  0.67235  1.0000
  H   H282      1.0  0.93257  0.34289  0.93013  1.0000
  H   H283      1.0  0.99693  0.44413  0.92272  1.0000
  S   S93       1.0  0.97732  0.40301  0.99118  1.0000
  C   C297      1.0  0.98396  0.48284  0.85675  1.0000
  C   C298      1.0  0.91303  0.39748  0.91903  1.0000
  C   C299      1.0  0.84876  0.45843  0.96178  1.0000
  C   C300      1.0  0.89046  0.42730  0.92755  1.0000
  H   H284      1.0  0.85608  0.39397  0.98934  1.0000
  H   H285      1.0  0.88988  0.45202  0.91443  1.0000
  C   C301      1.0  0.91473  0.36600  0.93619  1.0000
  H   H286      1.0  0.83284  0.47002  0.94357  1.0000
  C   C302      1.0  0.87174  0.39508  0.96943  1.0000
  C   C303      1.0  0.89383  0.36466  0.96150  1.0000
  H   H287      1.0  0.52641  0.46509  0.68702  1.0000
  C   C304      1.0  0.98568  0.46218  0.90650  1.0000
  N   N26       1.0  0.87031  0.42588  0.95252  1.0000
  H   H288      1.0  0.89529  0.34059  0.97533  1.0000
  C   C305      1.0  0.56732  0.49783  0.70969  1.0000
  H   H289      1.0  0.52144  0.04354  0.76652  1.0000
  H   H290      1.0  0.92961  0.39919  0.89951  1.0000
  H   H291      1.0  0.82844  0.45153  0.97906  1.0000
  H   H292      1.0  0.52111  0.44052  0.97375  1.0000
  Fe  Fe48      1.0  0.96406  0.46387  0.98782  1.0000
  H   H293      1.0  0.54467  0.02927  0.00681  1.0000
  C   C306      1.0  0.95980  0.48966  0.91413  1.0000
  S   S94       1.0  0.94531  0.49725  0.94978  1.0000
  C   C307      1.0  0.99773  0.45881  0.87778  1.0000
  C   C308      1.0  0.53098  0.48685  0.70286  1.0000
  S   S95       1.0  0.00160  0.48049  0.82140  1.0000
  H   H294      1.0  0.86807  0.48014  0.96995  1.0000
  H   H295      1.0  0.94761  0.49805  0.69826  1.0000
  H   H296      1.0  0.59067  0.48410  0.69911  1.0000
  Fe  Fe49      1.0  0.55227  0.96441  0.17015  1.0000
  H   H297      1.0  0.96030  0.56729  0.13621  1.0000
  S   S96       1.0  0.57004  0.91581  0.19784  1.0000
  C   C309      1.0  0.97205  0.51158  0.12170  1.0000
  H   H298      1.0  0.64299  0.95999  0.18776  1.0000
  C   C310      1.0  0.67963  0.86122  0.21279  1.0000
  Fe  Fe50      1.0  0.63619  0.70795  0.18873  1.0000
  S   S97       1.0  0.65249  0.69723  0.23458  1.0000
  S   S98       1.0  0.64271  0.76164  0.16383  1.0000
  Fe  Fe51      1.0  0.60800  0.62884  0.17972  1.0000
  S   S99       1.0  0.62049  0.61284  0.22469  1.0000
  S   S100      1.0  0.58447  0.58939  0.14670  1.0000
  Fe  Fe52      1.0  0.59686  0.66822  0.23691  1.0000
  S   S101      1.0  0.55866  0.67367  0.27548  1.0000
  Fe  Fe53      1.0  0.67513  0.64248  0.21819  1.0000
  S   S102      1.0  0.72240  0.60395  0.23100  1.0000
  S   S103      1.0  0.57944  0.68208  0.19222  1.0000
  S   S104      1.0  0.66354  0.65550  0.17210  1.0000
  Fe  Fe54      1.0  0.93504  0.59450  0.26690  1.0000
  S   S105      1.0  0.92284  0.53374  0.26330  1.0000
  S   S106      1.0  0.89379  0.63900  0.25373  1.0000
  H   H299      1.0  0.70385  0.81007  0.19719  1.0000
  C   C311      1.0  0.68661  0.88637  0.15703  1.0000
  H   H300      1.0  0.54593  0.58140  0.20318  1.0000
  Fe  Fe55      1.0  0.94519  0.53035  0.30800  1.0000
  C   C312      1.0  0.83311  0.55624  0.32109  1.0000
  S   S107      1.0  0.99402  0.59013  0.24954  1.0000
  S   S108      1.0  0.95309  0.59146  0.31281  1.0000
  H   H301      1.0  0.57534  0.52965  0.10683  1.0000
  C   C313      1.0  0.97719  0.53254  0.17125  1.0000
  N   N27       1.0  0.67052  0.90859  0.17753  1.0000
  C   C314      1.0  0.58801  0.54100  0.15108  1.0000
  S   S109      1.0  0.96156  0.52157  0.08584  1.0000
  C   C315      1.0  0.59648  0.52534  0.17758  1.0000
  H   H302      1.0  0.60110  0.54286  0.19602  1.0000
  H   H303      1.0  0.81976  0.53636  0.33609  1.0000
  C   C316      1.0  0.77008  0.61464  0.23609  1.0000
  C   C317      1.0  0.78394  0.65078  0.23407  1.0000
  C   C318      1.0  0.82208  0.65780  0.23896  1.0000
  C   C319      1.0  0.84663  0.62879  0.24575  1.0000
  C   C320      1.0  0.83275  0.59264  0.24752  1.0000
  C   C321      1.0  0.79468  0.58565  0.24277  1.0000
  H   H304      1.0  0.76526  0.67332  0.22896  1.0000
  H   H305      1.0  0.83257  0.68588  0.23766  1.0000
  H   H306      1.0  0.85123  0.57011  0.25277  1.0000
  H   H307      1.0  0.78415  0.55763  0.24439  1.0000
  H   H308      1.0  0.81076  0.56824  0.30758  1.0000
  H   H309      1.0  0.67545  0.85112  0.23440  1.0000
  C   C322      1.0  0.61554  0.80138  0.17209  1.0000
  C   C323      1.0  0.61067  0.82876  0.15113  1.0000
  C   C324      1.0  0.59420  0.86317  0.15816  1.0000
  C   C325      1.0  0.58325  0.87071  0.18642  1.0000
  C   C326      1.0  0.58678  0.84279  0.20710  1.0000
  C   C327      1.0  0.60250  0.80813  0.19994  1.0000
  H   H310      1.0  0.62063  0.82368  0.12952  1.0000
  H   H311      1.0  0.59145  0.88433  0.14200  1.0000
  H   H312      1.0  0.57848  0.84843  0.22903  1.0000
  H   H313      1.0  0.60633  0.78737  0.21629  1.0000
  H   H314      1.0  0.67307  0.56987  0.12970  1.0000
  H   H315      1.0  0.54239  0.54143  0.25937  1.0000
  C   C328      1.0  0.58215  0.51775  0.12736  1.0000
  C   C329      1.0  0.69570  0.83823  0.19195  1.0000
  C   C330      1.0  0.68734  0.54013  0.18064  1.0000
  H   H316      1.0  0.54946  0.59083  0.25547  1.0000
  C   C331      1.0  0.66702  0.89651  0.20516  1.0000
  S   S110      1.0  0.00395  0.51960  0.29387  1.0000
  H   H317      1.0  0.89601  0.52863  0.17615  1.0000
  Fe  Fe56      1.0  0.98264  0.52871  0.24929  1.0000
  H   H318      1.0  0.68851  0.89558  0.13500  1.0000
  H   H319      1.0  0.65291  0.91347  0.22118  1.0000
  C   C332      1.0  0.69935  0.85084  0.16390  1.0000
  H   H320      1.0  0.67843  0.96252  0.16026  1.0000
  S   S111      1.0  0.56759  0.98359  0.12566  1.0000
  C   C333      1.0  0.51664  0.57515  0.20636  1.0000
  C   C334      1.0  0.52810  0.56864  0.25775  1.0000
  H   H321      1.0  0.97486  0.55443  0.18714  1.0000
  C   C335      1.0  0.96896  0.53975  0.14244  1.0000
  C   C336      1.0  0.65585  0.94495  0.16929  1.0000
  H   H322      1.0  0.71047  0.83250  0.14741  1.0000
  C   C337      1.0  0.67775  0.54013  0.12869  1.0000
  H   H323      1.0  0.71698  0.54743  0.18461  1.0000
  H   H324      1.0  0.67686  0.52296  0.19866  1.0000
  H   H325      1.0  0.63358  0.94132  0.15308  1.0000
  H   H326      1.0  0.51289  0.57472  0.27809  1.0000
  H   H327      1.0  0.67113  0.53764  0.08276  1.0000
  H   H328      1.0  0.87945  0.51611  0.12723  1.0000
  H   H329      1.0  0.84560  0.62562  0.30402  1.0000
  H   H330      1.0  0.67072  0.56617  0.18089  1.0000
  H   H331      1.0  0.51377  0.66176  0.22477  1.0000
  N   N28       1.0  0.68395  0.52049  0.15318  1.0000
  H   H332      1.0  0.85294  0.54059  0.30713  1.0000
  C   C338      1.0  0.67659  0.52209  0.10208  1.0000
  C   C339      1.0  0.51159  0.66161  0.27084  1.0000
  H   H333      1.0  0.51464  0.98945  0.29316  1.0000
  C   C340      1.0  0.85808  0.61937  0.32448  1.0000
  N   N29       1.0  0.85337  0.58527  0.33664  1.0000
  H   H334      1.0  0.88430  0.67305  0.32759  1.0000
  C   C341      1.0  0.87979  0.64651  0.33791  1.0000
  C   C342      1.0  0.64047  0.52428  0.64923  1.0000
  H   H335      1.0  0.67680  0.74556  0.63074  1.0000
  C   C343      1.0  0.89670  0.63856  0.36400  1.0000
  N   N30       1.0  0.69696  0.79075  0.65604  1.0000
  H   H336      1.0  0.96704  0.54486  0.36940  1.0000
  Fe  Fe57      1.0  0.55682  0.94762  0.65072  1.0000
  H   H337      1.0  0.64108  0.78541  0.59807  1.0000
  C   C344      1.0  0.97500  0.52534  0.66306  1.0000
  H   H338      1.0  0.83977  0.62463  0.66879  1.0000
  C   C345      1.0  0.86970  0.57730  0.36226  1.0000
  H   H339      1.0  0.90510  0.59693  0.39637  1.0000
  C   C346      1.0  0.67576  0.85147  0.64274  1.0000
  C   C347      1.0  0.56844  0.84416  0.64771  1.0000
  S   S112      1.0  0.67334  0.55797  0.65972  1.0000
  S   S113      1.0  0.56681  0.97098  0.60689  1.0000
  C   C348      1.0  0.56867  0.80562  0.64260  1.0000
  H   H340      1.0  0.86647  0.55005  0.37167  1.0000
  S   S114      1.0  0.59223  0.73410  0.65096  1.0000
  C   C349      1.0  0.96296  0.53113  0.41434  1.0000
  H   H341      1.0  0.91436  0.65903  0.37431  1.0000
  C   C350      1.0  0.65647  0.83612  0.61969  1.0000
  H   H342      1.0  0.59262  0.56010  0.65313  1.0000
  C   C351      1.0  0.95349  0.52760  0.38525  1.0000
  H   H343      1.0  0.54690  0.99010  0.54298  1.0000
  H   H344      1.0  0.55390  0.79444  0.62434  1.0000
  H   H345      1.0  0.63950  0.85368  0.60619  1.0000
  C   C352      1.0  0.97996  0.52590  0.63321  1.0000
  C   C353      1.0  0.65745  0.79787  0.61507  1.0000
  C   C354      1.0  0.58889  0.78167  0.66033  1.0000
  C   C355      1.0  0.58856  0.85906  0.67061  1.0000
  S   S115      1.0  0.67871  0.66632  0.66461  1.0000
  H   H346      1.0  0.55362  0.86239  0.63340  1.0000
  C   C356      1.0  0.67771  0.77543  0.63370  1.0000
  C   C357      1.0  0.69587  0.82821  0.66089  1.0000
  C   C358      1.0  0.60237  0.53238  0.64821  1.0000
  H   H347      1.0  0.98384  0.55112  0.42082  1.0000
  C   C359      1.0  0.89155  0.60377  0.37636  1.0000
  H   H348      1.0  0.77117  0.61627  0.66857  1.0000
  C   C360      1.0  0.94610  0.50833  0.43498  1.0000
  S   S116      1.0  0.54580  0.00413  0.66983  1.0000
  H   H349      1.0  0.54724  0.51079  0.64016  1.0000
  H   H350      1.0  0.99820  0.54639  0.62366  1.0000
  S   S117      1.0  0.96028  0.51129  0.47098  1.0000
  H   H351      1.0  0.67364  0.88099  0.64726  1.0000
  H   H352      1.0  0.72684  0.74096  0.66542  1.0000
  S   S118      1.0  0.59314  0.90754  0.67554  1.0000
  C   C361      1.0  0.71652  0.76665  0.67614  1.0000
  H   H353      1.0  0.53655  0.95250  0.78042  1.0000
  S   S119      1.0  0.64183  0.70481  0.72229  1.0000
  S   S120      1.0  0.67322  0.61940  0.72487  1.0000
  Fe  Fe58      1.0  0.61823  0.64839  0.73176  1.0000
  S   S121      1.0  0.58204  0.63927  0.77098  1.0000
  C   C362      1.0  0.95707  0.50920  0.86439  1.0000
  Fe  Fe59      1.0  0.69488  0.67448  0.71054  1.0000
  Fe  Fe60      1.0  0.93118  0.58775  0.77559  1.0000
  S   S122      1.0  0.94503  0.53134  0.75766  1.0000
  S   S123      1.0  0.86918  0.59575  0.78349  1.0000
  S   S124      1.0  0.75408  0.69549  0.71531  1.0000
  C   C363      1.0  0.53076  0.72746  0.74934  1.0000
  C   C364      1.0  0.83318  0.55613  0.71697  1.0000
  N   N31       1.0  0.57336  0.52604  0.72881  1.0000
  H   H354      1.0  0.62319  0.84631  0.70678  1.0000
  H   H355      1.0  0.53461  0.63277  0.72099  1.0000
  S   S125      1.0  0.97132  0.58315  0.81219  1.0000
  N   N32       1.0  0.84905  0.58245  0.69978  1.0000
  H   H356      1.0  0.61243  0.56479  0.74644  1.0000
  H   H357      1.0  0.99946  0.57062  0.93785  1.0000
  Fe  Fe61      1.0  0.98834  0.56181  0.73207  1.0000
  H   H358      1.0  0.92472  0.53362  0.89862  1.0000
  S   S126      1.0  0.97239  0.61869  0.74820  1.0000
  C   C365      1.0  0.78617  0.66809  0.73447  1.0000
  C   C366      1.0  0.77383  0.64024  0.75290  1.0000
  C   C367      1.0  0.79973  0.61886  0.76805  1.0000
  C   C368      1.0  0.83822  0.62460  0.76455  1.0000
  C   C369      1.0  0.85073  0.65236  0.74602  1.0000
  C   C370      1.0  0.82471  0.67425  0.73119  1.0000
  H   H359      1.0  0.74429  0.63562  0.75596  1.0000
  H   H360      1.0  0.78987  0.59764  0.78253  1.0000
  H   H361      1.0  0.88033  0.65730  0.74344  1.0000
  H   H362      1.0  0.90336  0.56505  0.68695  1.0000
  H   H363      1.0  0.89815  0.61462  0.69113  1.0000
  C   C371      1.0  0.51378  0.93459  0.72772  1.0000
  C   C372      1.0  0.51721  0.63408  0.73983  1.0000
  C   C373      1.0  0.88968  0.58728  0.69985  1.0000
  H   H364      1.0  0.62572  0.51662  0.74831  1.0000
  C   C374      1.0  0.53317  0.63762  0.76692  1.0000
  H   H365      1.0  0.83446  0.69599  0.71715  1.0000
  H   H366      1.0  0.62773  0.54117  0.71459  1.0000
  H   H367      1.0  0.85039  0.54003  0.73136  1.0000
  Fe  Fe62      1.0  0.62397  0.69224  0.67746  1.0000
  C   C375      1.0  0.94514  0.51264  0.89293  1.0000
  H   H368      1.0  0.74131  0.78060  0.68547  1.0000
  Fe  Fe63      1.0  0.65443  0.61233  0.67946  1.0000
  C   C376      1.0  0.52625  0.72555  0.71971  1.0000
  H   H369      1.0  0.62345  0.77841  0.69773  1.0000
  H   H370      1.0  0.53399  0.95791  0.72900  1.0000
  C   C377      1.0  0.54397  0.54269  0.74265  1.0000
  H   H371      1.0  0.70976  0.84022  0.67931  1.0000
  S   S127      1.0  0.59769  0.63695  0.68736  1.0000
  C   C378      1.0  0.60764  0.83498  0.68898  1.0000
  H   H372      1.0  0.55856  0.72774  0.75844  1.0000
  C   C379      1.0  0.79451  0.55063  0.71708  1.0000
  H   H373      1.0  0.52204  0.64108  0.81232  1.0000
  H   H374      1.0  0.55047  0.72498  0.70559  1.0000
  Fe  Fe64      1.0  0.98793  0.52891  0.79253  1.0000
  H   H375      1.0  0.54880  0.56411  0.75859  1.0000
  C   C380      1.0  0.61169  0.53767  0.73491  1.0000
  H   H376      1.0  0.90036  0.58620  0.72211  1.0000
  C   C381      1.0  0.60780  0.79645  0.68390  1.0000
  H   H377      1.0  0.94519  0.52686  0.84828  1.0000
  C   C382      1.0  0.77210  0.57215  0.69937  1.0000
  H   H378      1.0  0.69746  0.75857  0.69389  1.0000
  H   H379      1.0  0.99470  0.61857  0.89982  1.0000
  H   H380      1.0  0.78200  0.53041  0.73128  1.0000
  H   H381      1.0  0.53763  0.93478  0.00133  1.0000
  C   C383      1.0  0.78852  0.59885  0.68188  1.0000
  C   C384      1.0  0.82731  0.60351  0.68221  1.0000
  H   H382      1.0  0.74201  0.56854  0.69942  1.0000
  S   S128      1.0  0.99923  0.55764  0.68437  1.0000
  H   H383      1.0  0.52935  0.90871  0.72254  1.0000
  H   H384      1.0  0.51485  0.94000  0.95137  1.0000
