data_image0
_chemical_formula_structural       FeSCFeH2S2CH2NH2CH2CSHC3HCH3C2HC3HFeNCH2C2HNS2CH3C2FeSHFeSC4H2CH3C3H2C2HSCHSH3CHCSH2CHCHCNH2CNFeSHC2HC4SH3SHSHFeCSHCFeSHSHCHCSHFeS2FeSFeHSFeS2FeS2FeSFeS3CFeH3C8H5CHCHCH2CHCH2C6H4C6H5CHSHSHCH3CHNC6H9CH2CHFeHCNC2HFeHC3SCSCNC2HC2H3CHCHCFeSCHNH3CHCSNHC5HSCHCHC3HC5S2NC2SCHS2H2FeSC2H2Fe2SH2SHFeSFeHSFeS2FeS2FeSFeS3C3HC2HC6H5S2CH7C8H4C6H5CSC3HCFeHCH2NC4NCH3C2H3CFeHCHCHCFeNCFeH2CH2CSH3CHCSC3SH3CH2NCSC2HNH2C4H2CH2CH3SHC5NH5C2FeS2H2FeCSHSHCHSHCSCHCFeH3FeHSCFeSFeSCFeSCSHC2HC3HSC3SCFeSH2NHC2H2C2HC2H3CH3CH2C3SH4C3N2CH4CHCH2CHCHCHSC2HC5H4CHSHCH4CHCHNFeHC4H2C2HCFeHSHSHC2FeS2FeCFeCHS2CSHCH4CHCHSHFeCSH3CH2FeSHSHCHC4H6CFeC3FeNHCSCH2CH2C3SHSCNHCH2NC2FeC2HC2H2C9H2C4SH3SHNC3H2SHSNH2C3HFeHNC2H3CFeH4CH4CHCSC4HC2HCHCSCH2CSCHCHCH2SFeSH2CFeHSFeS2HSFeCS2FeS2FeCS2FeSFeS2FeHFeHS2HSHSFeCFeS2FeS2FeS2FeSFeS4H2CH2CH4C8H4C2HCHCHC3HC3HCSCHC6H4C6H4C6H6C6H5CHC2HFeH2NCHNC6H3CH4SC3H3SH5C2NHC3FeHC3HCH2SCHNC6H8SHCH2CNHNSH2C2HNHC2H3C5HC2HC2HC2SC5HSCHFeCFeH3CHNHSNHCH3CH2CHNHC2NH3C2HC2HCNCHFeC2H2CHCHCSCS2H4CHCS2H3CHFeHSFeS2HSFeHS2FeS2FeHS2FeSFeS2FeCFe2S2HSCSFeSFeSHFeS2FeS2FeSFeS4FeSC5NH3C7H5C3HCNC3H3C3HC8H4C6H4C6H4NH2C3HCHCHNC6H8CNC6H3CH4NC6H8NC4HC2HNHCH3C3H4SH2SC2FeC2HC3NCFeH3CH2CHCH7CFeSCHCH4SHC2SH3C2HC2NHSC3H2C2SHCHC2H3SH3FeHCSCH4SCSH3NHC2FeC4HCH4C2HC2HCH2C2HC3H3SH3CHCFeHFeCSHFeHS2HFeS2FeS2FeSFeS3FeSHCSFeSFeCS3HFeSHSHSFeSFeS2CSH2C3H4CHC3HC6H4C4NH2SC7H4C6H4C6H4CH2CHCH4CHCHCHC2HSCHC2FeSC5SCH2CHNC3HSH3CH2NC6H8NC2H3NC2HNHC2HC2SC2H2CFeH3C2HCH2CH2SNC6H8SH2CNH3CH3FeCH2SCSHFeC2HSNHC2H4CH2CH4CFe2C2FeC2HC3HNHCSH2CHCH2CHCHC4FeSH2CH2Fe2SCH2S2CFeS2FeS2FeSFeS3FeSCHSFeSFeHS2C2FeSHSFeSFeHFeS2CSHCHC2SH3C3H2FeC6H4NC3SH4C6H4C6H4C6H4SHCSC3H4CHFeHFeC2SNC2HSHCSHC3H2CH4C4SC2SNC2HCFeHC2NHC2HC2HSHCSCH2CH2CH2CNC3H2CH2FeHNC6H9C2HC2HCH4N3SCHCHNH2CSC3SCHCFeC2HSCH4C5H4C2H3SH2CSH2FeHC3H3C5H3CH2CH3C3HSH2C3HSCH3CFeSFeHS2CHCH3CHFeCHSCSHCHSH2FeSFeH2SFeSC2HSC2HC3NH2C2HC2S2H2SC4SCHSC4SCH2CFeC6H4C2SCS2NHCSCH2C4HC2NH2C6H5SHC2H2FeH3SCH3SHC3HCSHC2H3C2HNHCHC2HFeNH2SCH3NCHFeCS2CH2C2FeSFeCS2C4SC2H2NCHCSHCHSHSFeSFeS3FeSCFeS2CH2C2H2CHC2H2CH2SHC4HCHCH2FeCHNSH2CH2SC3S2C5H2C2H2NFeHCNFeCH2C3H3C4HC2HC2HCH2C3NFeHCHC2H2CFeH3CHCSH2CHSH3SH4C2HCHCH2CH2CHSHS2C2FeCS2HCFeHFeC3SHS2FeS2FeHFeSHSHS2FeSH2FeS2FeS2FeSFeS3C6H5CH2C2NH3C7H4C6H5C3HC3H2CH3C3NH2SC2HCH4NC6H7C4NC2HNSCH7C3H3NC3HCFeHCHC4H3C2HC6HSCH3C2FeSH3NHNHSFeSHFeSFeS2HCS2FeSHCFeS2FeS2FeSFeS3C6H4CHC3HFeH2CHC6H4C6H4C4SH2C3NCNC6H6CHCSH2C4NC2HCH4C2HSC2H5SFeSC2NCH2CH4CH4C2NHC2HC2H6FeSH2CH3C2HC2FeHS2H2SFeSCSCSHCHSC2SFeC5H2C2HC4FeCH2C2NH3CHCH2CSHFeHFeH2SCHCSHCHCH4CH2C2H2CH2FeHSCHFeSFeSHS3HC2SH2CFeHC2HCHNHC7SH2C2FeHC4HC5HCHSCH3SH3CH
_chemical_formula_sum              "Fe192 S384 C1152 H1152 N96"
_cell_length_a       85.3956
_cell_length_b       84.7244
_cell_length_c       47.7726
_cell_angle_alpha    90.8839
_cell_angle_beta     92.0211
_cell_angle_gamma    114.996

_space_group_name_H-M_alt    "P 1"
_space_group_IT_number       1

loop_
  _space_group_symop_operation_xyz
  'x, y, z'

loop_
  _atom_site_type_symbol
  _atom_site_label
  _atom_site_symmetry_multiplicity
  _atom_site_fract_x
  _atom_site_fract_y
  _atom_site_fract_z
  _atom_site_occupancy
  Fe  Fe1       1.0  0.05179  0.45703  0.01624  1.0000
  S   S1        1.0  0.08010  0.46144  0.01506  1.0000
  C   C1        1.0  0.00115  0.43557  0.99283  1.0000
  Fe  Fe2       1.0  0.08535  0.48314  0.04733  1.0000
  H   H1        1.0  0.13358  0.45727  0.17630  1.0000
  H   H2        1.0  0.12417  0.46046  0.12790  1.0000
  S   S2        1.0  0.09353  0.46886  0.43745  1.0000
  S   S3        1.0  0.05722  0.47738  0.05072  1.0000
  C   C2        1.0  0.14615  0.48483  0.12241  1.0000
  H   H3        1.0  0.17497  0.48881  0.21193  1.0000
  H   H4        1.0  0.08819  0.46779  0.12102  1.0000
  N   N1        1.0  0.99723  0.46103  0.04169  1.0000
  H   H5        1.0  0.00961  0.44945  0.06858  1.0000
  H   H6        1.0  0.22525  0.48906  0.25723  1.0000
  C   C3        1.0  0.10733  0.47701  0.38519  1.0000
  H   H7        1.0  0.15645  0.47350  0.40711  1.0000
  H   H8        1.0  0.09920  0.46348  0.37962  1.0000
  C   C4        1.0  0.13632  0.47008  0.13714  1.0000
  S   S4        1.0  0.02789  0.43148  0.02258  1.0000
  H   H9        1.0  0.16168  0.46800  0.34882  1.0000
  C   C5        1.0  0.09887  0.47819  0.13230  1.0000
  C   C6        1.0  0.99256  0.41225  0.02548  1.0000
  C   C7        1.0  0.99744  0.44957  0.06139  1.0000
  H   H10       1.0  0.11846  0.48271  0.34437  1.0000
  C   C8        1.0  0.00581  0.42616  0.01269  1.0000
  H   H11       1.0  0.13965  0.47064  0.38065  1.0000
  H   H12       1.0  0.02074  0.48391  0.04757  1.0000
  H   H13       1.0  0.09443  0.46487  0.17149  1.0000
  C   C9        1.0  0.11672  0.48964  0.17583  1.0000
  C   C10       1.0  0.10250  0.47655  0.16095  1.0000
  H   H14       1.0  0.15252  0.47939  0.22015  1.0000
  C   C11       1.0  0.01366  0.47359  0.03129  1.0000
  C   C12       1.0  0.14171  0.46836  0.16448  1.0000
  C   C13       1.0  0.10680  0.48343  0.41239  1.0000
  H   H15       1.0  0.99598  0.40473  0.04063  1.0000
  Fe  Fe3       1.0  0.08588  0.47601  0.47991  1.0000
  N   N2        1.0  0.15664  0.48087  0.17664  1.0000
  C   C14       1.0  0.15129  0.48035  0.39242  1.0000
  H   H16       1.0  0.14685  0.48875  0.40493  1.0000
  H   H17       1.0  0.14165  0.48664  0.10165  1.0000
  C   C15       1.0  0.11824  0.48790  0.36510  1.0000
  C   C16       1.0  0.16192  0.47864  0.20531  1.0000
  H   H18       1.0  0.16235  0.46577  0.20706  1.0000
  N   N3        1.0  0.16455  0.49050  0.37305  1.0000
  S   S5        1.0  0.06985  0.49134  0.48043  1.0000
  S   S6        1.0  0.12203  0.48588  0.21082  1.0000
  C   C17       1.0  0.16862  0.48201  0.35188  1.0000
  H   H19       1.0  0.01179  0.47990  0.01204  1.0000
  H   H20       1.0  0.02191  0.46689  0.02572  1.0000
  H   H21       1.0  0.18471  0.48463  0.31660  1.0000
  C   C18       1.0  0.10954  0.49292  0.11806  1.0000
  C   C19       1.0  0.18164  0.49129  0.33369  1.0000
  Fe  Fe4       1.0  0.05441  0.47317  0.51356  1.0000
  S   S7        1.0  0.06926  0.45662  0.51126  1.0000
  H   H22       1.0  0.99083  0.46093  0.53040  1.0000
  Fe  Fe5       1.0  0.08763  0.47501  0.54501  1.0000
  S   S8        1.0  0.09640  0.46628  0.58559  1.0000
  C   C20       1.0  0.10246  0.47380  0.86721  1.0000
  C   C21       1.0  0.00341  0.43148  0.50173  1.0000
  C   C22       1.0  0.11615  0.48773  0.85526  1.0000
  C   C23       1.0  0.11114  0.47389  0.63952  1.0000
  H   H23       1.0  0.10598  0.45991  0.64144  1.0000
  H   H24       1.0  0.09569  0.46173  0.85513  1.0000
  C   C24       1.0  0.03620  0.47288  0.59565  1.0000
  H   H25       1.0  0.22489  0.49024  0.78329  1.0000
  H   H26       1.0  0.13620  0.45477  0.85170  1.0000
  H   H27       1.0  0.06283  0.43645  0.57918  1.0000
  C   C25       1.0  0.02046  0.42742  0.56588  1.0000
  C   C26       1.0  0.14267  0.46619  0.86544  1.0000
  C   C27       1.0  0.10815  0.48073  0.61421  1.0000
  H   H28       1.0  0.08718  0.46425  0.90372  1.0000
  H   H29       1.0  0.13792  0.48257  0.92838  1.0000
  C   C28       1.0  0.09758  0.47518  0.89482  1.0000
  C   C29       1.0  0.02086  0.44316  0.57607  1.0000
  H   H30       1.0  0.16625  0.46752  0.82749  1.0000
  S   S9        1.0  0.02539  0.46587  0.51906  1.0000
  C   C30       1.0  0.00497  0.44742  0.51321  1.0000
  H   H31       1.0  0.17575  0.49079  0.82557  1.0000
  S   S10       1.0  0.12296  0.48456  0.82148  1.0000
  H   H32       1.0  0.15381  0.47835  0.81259  1.0000
  H   H33       1.0  0.15206  0.48329  0.64607  1.0000
  H   H34       1.0  0.00858  0.41747  0.55640  1.0000
  C   C31       1.0  0.05088  0.43809  0.57851  1.0000
  H   H35       1.0  0.03569  0.48016  0.57671  1.0000
  C   C32       1.0  0.16597  0.48284  0.68415  1.0000
  S   S11       1.0  0.07191  0.49034  0.54894  1.0000
  H   H36       1.0  0.12428  0.45587  0.89782  1.0000
  H   H37       1.0  0.15828  0.46906  0.68709  1.0000
  C   C33       1.0  0.10645  0.49053  0.91102  1.0000
  H   H38       1.0  0.04814  0.48104  0.60840  1.0000
  C   C34       1.0  0.05081  0.45368  0.58846  1.0000
  H   H39       1.0  0.06283  0.46396  0.59684  1.0000
  C   C35       1.0  0.12076  0.48497  0.66238  1.0000
  N   N4        1.0  0.03593  0.45607  0.58703  1.0000
  H   H40       1.0  0.12297  0.47950  0.68161  1.0000
  H   H41       1.0  0.03560  0.41297  0.55859  1.0000
  C   C36       1.0  0.03562  0.42494  0.56700  1.0000
  N   N5        1.0  0.15684  0.48016  0.85686  1.0000
  Fe  Fe6       1.0  0.08241  0.48082  0.98131  1.0000
  S   S12       1.0  0.05388  0.47467  0.98043  1.0000
  H   H42       1.0  0.18204  0.48656  0.72183  1.0000
  C   C37       1.0  0.98986  0.44871  0.52148  1.0000
  C   C38       1.0  0.16353  0.47919  0.82933  1.0000
  H   H43       1.0  0.01111  0.44606  0.98233  1.0000
  C   C39       1.0  0.13587  0.46673  0.89148  1.0000
  C   C40       1.0  0.16250  0.49098  0.66101  1.0000
  C   C41       1.0  0.17925  0.49264  0.70363  1.0000
  C   C42       1.0  0.14352  0.48175  0.90862  1.0000
  S   S13       1.0  0.10535  0.49234  0.51354  1.0000
  H   H44       1.0  0.02491  0.47091  0.60832  1.0000
  H   H45       1.0  0.01484  0.43020  0.49524  1.0000
  H   H46       1.0  0.00920  0.44528  0.57407  1.0000
  S   S14       1.0  0.10215  0.49267  0.94691  1.0000
  H   H47       1.0  0.00720  0.53561  0.00414  1.0000
  S   S15       1.0  0.07262  0.61078  0.04341  1.0000
  H   H48       1.0  0.06351  0.53753  0.45246  1.0000
  Fe  Fe7       1.0  0.14314  0.50504  0.24119  1.0000
  C   C43       1.0  0.18935  0.72982  0.20574  1.0000
  S   S16       1.0  0.09805  0.62876  0.43160  1.0000
  H   H49       1.0  0.20043  0.51670  0.32300  1.0000
  C   C44       1.0  0.14642  0.67361  0.43149  1.0000
  Fe  Fe8       1.0  0.08890  0.63973  0.04304  1.0000
  S   S17       1.0  0.09581  0.65679  0.08361  1.0000
  H   H50       1.0  0.22465  0.71082  0.20133  1.0000
  S   S18       1.0  0.07337  0.64313  0.00576  1.0000
  H   H51       1.0  0.05452  0.56176  0.45340  1.0000
  C   C45       1.0  0.06807  0.56446  0.45208  1.0000
  H   H52       1.0  0.11632  0.57383  0.45077  1.0000
  C   C46       1.0  0.21149  0.70024  0.19693  1.0000
  S   S19       1.0  0.16985  0.52208  0.22815  1.0000
  H   H53       1.0  0.21143  0.69362  0.17667  1.0000
  Fe  Fe9       1.0  0.15181  0.51777  0.30330  1.0000
  S   S20       1.0  0.17936  0.53612  0.29402  1.0000
  S   S21       1.0  0.14434  0.51943  0.34880  1.0000
  Fe  Fe10      1.0  0.16739  0.54263  0.25579  1.0000
  S   S22       1.0  0.17481  0.56900  0.23689  1.0000
  Fe  Fe11      1.0  0.17985  0.51420  0.26728  1.0000
  H   H54       1.0  0.15592  0.64676  0.35078  1.0000
  S   S23       1.0  0.14000  0.52606  0.26655  1.0000
  Fe  Fe12      1.0  0.14912  0.67606  0.29711  1.0000
  S   S24       1.0  0.17534  0.67789  0.31036  1.0000
  S   S25       1.0  0.13316  0.68018  0.33188  1.0000
  Fe  Fe13      1.0  0.15240  0.66639  0.23562  1.0000
  S   S26       1.0  0.17860  0.66692  0.24619  1.0000
  S   S27       1.0  0.14372  0.65592  0.19014  1.0000
  Fe  Fe14      1.0  0.16707  0.65299  0.28492  1.0000
  S   S28       1.0  0.16868  0.63019  0.30674  1.0000
  Fe  Fe15      1.0  0.18500  0.69214  0.27060  1.0000
  S   S29       1.0  0.21329  0.71249  0.26623  1.0000
  S   S30       1.0  0.14051  0.65053  0.27319  1.0000
  S   S31       1.0  0.15918  0.69230  0.25843  1.0000
  C   C47       1.0  0.12346  0.50623  0.13319  1.0000
  Fe  Fe16      1.0  0.08380  0.62860  0.47194  1.0000
  H   H55       1.0  0.19252  0.74294  0.21363  1.0000
  H   H56       1.0  0.12705  0.68090  0.05837  1.0000
  H   H57       1.0  0.20843  0.74467  0.27662  1.0000
  C   C48       1.0  0.09144  0.55618  0.03116  1.0000
  C   C49       1.0  0.19050  0.50934  0.33727  1.0000
  C   C50       1.0  0.17424  0.58631  0.25712  1.0000
  C   C51       1.0  0.17030  0.58445  0.28538  1.0000
  C   C52       1.0  0.16905  0.59819  0.30055  1.0000
  C   C53       1.0  0.17152  0.61376  0.28749  1.0000
  C   C54       1.0  0.17566  0.61570  0.25933  1.0000
  C   C55       1.0  0.17709  0.60202  0.24423  1.0000
  H   H58       1.0  0.16811  0.57239  0.29547  1.0000
  H   H59       1.0  0.16590  0.59665  0.32237  1.0000
  H   H60       1.0  0.17782  0.62773  0.24924  1.0000
  H   H61       1.0  0.18024  0.60353  0.22241  1.0000
  H   H62       1.0  0.14906  0.63560  0.41678  1.0000
  C   C56       1.0  0.23383  0.76611  0.27405  1.0000
  H   H63       1.0  0.08651  0.52842  0.46103  1.0000
  C   C57       1.0  0.23249  0.50257  0.26386  1.0000
  H   H64       1.0  0.10433  0.55918  0.03970  1.0000
  C   C58       1.0  0.12842  0.51181  0.39923  1.0000
  H   H65       1.0  0.04539  0.54517  0.99972  1.0000
  H   H66       1.0  0.13669  0.52526  0.40498  1.0000
  C   C59       1.0  0.10926  0.68645  0.03172  1.0000
  H   H67       1.0  0.09574  0.53585  0.42757  1.0000
  C   C60       1.0  0.05814  0.54827  0.00891  1.0000
  H   H68       1.0  0.16486  0.63728  0.37653  1.0000
  H   H69       1.0  0.13786  0.64921  0.45233  1.0000
  C   C61       1.0  0.10879  0.65600  0.11338  1.0000
  C   C62       1.0  0.11811  0.64581  0.11323  1.0000
  C   C63       1.0  0.12860  0.64595  0.13691  1.0000
  C   C64       1.0  0.12985  0.65612  0.16124  1.0000
  C   C65       1.0  0.12046  0.66625  0.16148  1.0000
  C   C66       1.0  0.11010  0.66625  0.13766  1.0000
  H   H70       1.0  0.11728  0.63783  0.09484  1.0000
  H   H71       1.0  0.13576  0.63804  0.13634  1.0000
  H   H72       1.0  0.12111  0.67406  0.17998  1.0000
  H   H73       1.0  0.10292  0.67414  0.13814  1.0000
  C   C67       1.0  0.10605  0.64277  0.40275  1.0000
  C   C68       1.0  0.11310  0.63717  0.38051  1.0000
  C   C69       1.0  0.12091  0.64821  0.35831  1.0000
  C   C70       1.0  0.12189  0.66512  0.35800  1.0000
  C   C71       1.0  0.11439  0.67056  0.37980  1.0000
  C   C72       1.0  0.10654  0.65950  0.40204  1.0000
  H   H74       1.0  0.11268  0.62424  0.38060  1.0000
  H   H75       1.0  0.12628  0.64366  0.34150  1.0000
  H   H76       1.0  0.11492  0.68354  0.37975  1.0000
  H   H77       1.0  0.10116  0.66404  0.41884  1.0000
  H   H78       1.0  0.15539  0.69310  0.18058  1.0000
  C   C73       1.0  0.12399  0.68361  0.03722  1.0000
  H   H79       1.0  0.14096  0.67941  0.44648  1.0000
  S   S32       1.0  0.15300  0.49537  0.27886  1.0000
  H   H80       1.0  0.16593  0.68156  0.36941  1.0000
  S   S33       1.0  0.04744  0.51311  0.01254  1.0000
  H   H81       1.0  0.08213  0.52873  0.03747  1.0000
  C   C74       1.0  0.16469  0.64970  0.36980  1.0000
  H   H82       1.0  0.19258  0.53199  0.36117  1.0000
  H   H83       1.0  0.17780  0.50571  0.17240  1.0000
  H   H84       1.0  0.13797  0.51485  0.17293  1.0000
  C   C75       1.0  0.22198  0.74830  0.27340  1.0000
  H   H85       1.0  0.01706  0.61114  0.03507  1.0000
  N   N6        1.0  0.13513  0.59986  0.22739  1.0000
  C   C76       1.0  0.13178  0.59768  0.25522  1.0000
  C   C77       1.0  0.13679  0.58701  0.21175  1.0000
  C   C78       1.0  0.12946  0.58211  0.26787  1.0000
  C   C79       1.0  0.13461  0.57130  0.22377  1.0000
  C   C80       1.0  0.13087  0.56885  0.25198  1.0000
  C   C81       1.0  0.13810  0.61651  0.21486  1.0000
  H   H86       1.0  0.13140  0.60821  0.26799  1.0000
  H   H87       1.0  0.14016  0.58898  0.19000  1.0000
  H   H88       1.0  0.12729  0.58061  0.29010  1.0000
  H   H89       1.0  0.13651  0.56135  0.21163  1.0000
  H   H90       1.0  0.12976  0.55696  0.26175  1.0000
  H   H91       1.0  0.15165  0.62615  0.21958  1.0000
  H   H92       1.0  0.13570  0.61515  0.19173  1.0000
  H   H93       1.0  0.12925  0.62184  0.22317  1.0000
  H   H94       1.0  0.22919  0.77598  0.27779  1.0000
  C   C82       1.0  0.18162  0.69602  0.18741  1.0000
  H   H95       1.0  0.15505  0.69561  0.40454  1.0000
  H   H96       1.0  0.20903  0.69085  0.21405  1.0000
  C   C83       1.0  0.22769  0.73527  0.26863  1.0000
  H   H97       1.0  0.17836  0.68263  0.18080  1.0000
  Fe  Fe17      1.0  0.05856  0.61381  0.00448  1.0000
  H   H98       1.0  0.17801  0.65838  0.36393  1.0000
  C   C84       1.0  0.22352  0.51290  0.26918  1.0000
  N   N7        1.0  0.15886  0.65805  0.39165  1.0000
  C   C85       1.0  0.09555  0.53983  0.44976  1.0000
  C   C86       1.0  0.17244  0.71883  0.19670  1.0000
  H   H99       1.0  0.10854  0.54350  0.46015  1.0000
  Fe  Fe18      1.0  0.06057  0.49500  0.01486  1.0000
  H   H100      1.0  0.09334  0.69097  0.99974  1.0000
  C   C87       1.0  0.99783  0.55913  0.05250  1.0000
  C   C88       1.0  0.02636  0.56337  0.03657  1.0000
  C   C89       1.0  0.16854  0.70185  0.18730  1.0000
  S   S34       1.0  0.05581  0.60967  0.47503  1.0000
  C   C90       1.0  0.16049  0.67467  0.38818  1.0000
  S   S35       1.0  0.10359  0.59079  0.02102  1.0000
  C   C91       1.0  0.00626  0.60049  0.02445  1.0000
  N   N8        1.0  0.19819  0.70691  0.19617  1.0000
  C   C92       1.0  0.15101  0.64900  0.41452  1.0000
  C   C93       1.0  0.07053  0.56565  0.01115  1.0000
  H   H101      1.0  0.10088  0.68601  0.04858  1.0000
  C   C94       1.0  0.16118  0.49769  0.13516  1.0000
  C   C95       1.0  0.15436  0.68272  0.40805  1.0000
  H   H102      1.0  0.03075  0.57690  0.04526  1.0000
  H   H103      1.0  0.10767  0.59842  0.45114  1.0000
  H   H104      1.0  0.16230  0.72333  0.19738  1.0000
  C   C96       1.0  0.10273  0.57111  0.45101  1.0000
  H   H105      1.0  0.11720  0.50614  0.43997  1.0000
  C   C97       1.0  0.09798  0.58504  0.45122  1.0000
  H   H106      1.0  0.22661  0.53857  0.28184  1.0000
  C   C98       1.0  0.14473  0.65665  0.43481  1.0000
  Fe  Fe19      1.0  0.09207  0.60973  0.01414  1.0000
  S   S36       1.0  0.20034  0.50317  0.26556  1.0000
  C   C99       1.0  0.08730  0.56955  0.02177  1.0000
  H   H107      1.0  0.16968  0.51503  0.39299  1.0000
  N   N9        1.0  0.00744  0.55399  0.03533  1.0000
  H   H108      1.0  0.03142  0.56469  0.01518  1.0000
  H   H109      1.0  0.14538  0.68069  0.01944  1.0000
  H   H110      1.0  0.00404  0.57056  0.06634  1.0000
  C   C100      1.0  0.00926  0.59117  0.00244  1.0000
  H   H111      1.0  0.06728  0.57595  0.00382  1.0000
  C   C101      1.0  0.07326  0.55085  0.45175  1.0000
  S   S37       1.0  0.10922  0.63839  0.01564  1.0000
  N   N10       1.0  0.09042  0.55429  0.45135  1.0000
  H   H112      1.0  0.13183  0.51767  0.12243  1.0000
  C   C102      1.0  0.07897  0.53889  0.02944  1.0000
  C   C103      1.0  0.08054  0.58163  0.45168  1.0000
  C   C104      1.0  0.98920  0.59611  0.03260  1.0000
  C   C105      1.0  0.06246  0.53487  0.01770  1.0000
  C   C106      1.0  0.20216  0.72365  0.20514  1.0000
  H   H113      1.0  0.21521  0.73219  0.21266  1.0000
  S   S38       1.0  0.08888  0.50246  0.01365  1.0000
  C   C107      1.0  0.12903  0.50536  0.37210  1.0000
  H   H114      1.0  0.07673  0.59233  0.45195  1.0000
  C   C108      1.0  0.99954  0.53973  0.01758  1.0000
  H   H115      1.0  0.16857  0.50948  0.12421  1.0000
  C   C109      1.0  0.17323  0.50820  0.37678  1.0000
  C   C110      1.0  0.12699  0.50466  0.16187  1.0000
  C   C111      1.0  0.11735  0.50099  0.41917  1.0000
  H   H116      1.0  0.03224  0.55636  0.04961  1.0000
  C   C112      1.0  0.18621  0.51789  0.35882  1.0000
  C   C113      1.0  0.10505  0.68927  0.00436  1.0000
  C   C114      1.0  0.23317  0.53036  0.27769  1.0000
  C   C115      1.0  0.16627  0.49550  0.16247  1.0000
  C   C116      1.0  0.13428  0.68350  0.01514  1.0000
  S   S39       1.0  0.03035  0.59574  0.99112  1.0000
  S   S40       1.0  0.10767  0.49438  0.08095  1.0000
  N   N11       1.0  0.13010  0.68634  0.98837  1.0000
  C   C117      1.0  0.99501  0.57741  0.98888  1.0000
  C   C118      1.0  0.11598  0.55349  0.97201  1.0000
  S   S41       1.0  0.06088  0.61738  0.54441  1.0000
  C   C119      1.0  0.06462  0.56064  0.52066  1.0000
  H   H117      1.0  0.11270  0.50435  0.59289  1.0000
  S   S42       1.0  0.09246  0.61671  0.50769  1.0000
  S   S43       1.0  0.10223  0.65573  0.93934  1.0000
  H   H118      1.0  0.22068  0.63511  0.79684  1.0000
  H   H119      1.0  0.20621  0.60665  0.81985  1.0000
  Fe  Fe20      1.0  0.08854  0.63573  0.53697  1.0000
  S   S44       1.0  0.11157  0.65026  0.56853  1.0000
  C   C120      1.0  0.16523  0.62228  0.85634  1.0000
  C   C121      1.0  0.11276  0.56822  0.96908  1.0000
  H   H120      1.0  0.12989  0.52387  0.63270  1.0000
  H   H121      1.0  0.11888  0.62061  0.70726  1.0000
  Fe  Fe21      1.0  0.08843  0.50648  0.51566  1.0000
  Fe  Fe22      1.0  0.15010  0.51645  0.73245  1.0000
  S   S45       1.0  0.17716  0.53647  0.74494  1.0000
  H   H122      1.0  0.21815  0.76210  0.74640  1.0000
  H   H123      1.0  0.06636  0.51253  0.96424  1.0000
  S   S46       1.0  0.16930  0.52332  0.80975  1.0000
  H   H124      1.0  0.01189  0.54828  0.52123  1.0000
  Fe  Fe23      1.0  0.16476  0.54245  0.78198  1.0000
  S   S47       1.0  0.16747  0.56838  0.80032  1.0000
  Fe  Fe24      1.0  0.17961  0.51569  0.77137  1.0000
  H   H125      1.0  0.15672  0.50790  0.62040  1.0000
  S   S48       1.0  0.13772  0.52391  0.76809  1.0000
  Fe  Fe25      1.0  0.15840  0.66665  0.79637  1.0000
  S   S49       1.0  0.18681  0.67665  0.78744  1.0000
  S   S50       1.0  0.15108  0.65507  0.84008  1.0000
  Fe  Fe26      1.0  0.14857  0.66751  0.73274  1.0000
  S   S51       1.0  0.17612  0.67727  0.72042  1.0000
  S   S52       1.0  0.12474  0.65971  0.70238  1.0000
  Fe  Fe27      1.0  0.17770  0.65770  0.75053  1.0000
  S   S53       1.0  0.18995  0.63959  0.73884  1.0000
  Fe  Fe28      1.0  0.18309  0.69562  0.75844  1.0000
  S   S54       1.0  0.20002  0.72516  0.75472  1.0000
  S   S55       1.0  0.14982  0.64683  0.76049  1.0000
  S   S56       1.0  0.15498  0.68686  0.76947  1.0000
  C   C122      1.0  0.22264  0.73985  0.75832  1.0000
  C   C123      1.0  0.18874  0.51042  0.69997  1.0000
  C   C124      1.0  0.22783  0.75763  0.75273  1.0000
  H   H126      1.0  0.01171  0.59321  0.59046  1.0000
  C   C125      1.0  0.09672  0.56642  0.95809  1.0000
  C   C126      1.0  0.15604  0.60677  0.69747  1.0000
  H   H127      1.0  0.14546  0.64048  0.68482  1.0000
  C   C127      1.0  0.17149  0.58635  0.77905  1.0000
  C   C128      1.0  0.16341  0.59735  0.78483  1.0000
  C   C129      1.0  0.16861  0.61347  0.77197  1.0000
  C   C130      1.0  0.18200  0.61875  0.75331  1.0000
  C   C131      1.0  0.18954  0.60740  0.74653  1.0000
  C   C132      1.0  0.18426  0.59120  0.75929  1.0000
  H   H128      1.0  0.15357  0.59369  0.80019  1.0000
  H   H129      1.0  0.16273  0.62207  0.77743  1.0000
  H   H130      1.0  0.19988  0.61139  0.73205  1.0000
  H   H131      1.0  0.19071  0.58290  0.75497  1.0000
  H   H132      1.0  0.16951  0.63174  0.67883  1.0000
  S   S57       1.0  0.08118  0.64872  0.50075  1.0000
  S   S58       1.0  0.14159  0.51790  0.68675  1.0000
  C   C133      1.0  0.00718  0.61841  0.51034  1.0000
  H   H133      1.0  0.17952  0.52188  0.61974  1.0000
  H   H134      1.0  0.04449  0.53458  0.51480  1.0000
  H   H135      1.0  0.15260  0.57830  0.72147  1.0000
  H   H136      1.0  0.12237  0.58094  0.97642  1.0000
  H   H137      1.0  0.12692  0.51653  0.91113  1.0000
  H   H138      1.0  0.02427  0.57778  0.54336  1.0000
  H   H139      1.0  0.18933  0.72599  0.69699  1.0000
  C   C134      1.0  0.10309  0.53712  0.96366  1.0000
  C   C135      1.0  0.22392  0.51431  0.77162  1.0000
  C   C136      1.0  0.11474  0.65155  0.60590  1.0000
  C   C137      1.0  0.10103  0.64667  0.62398  1.0000
  C   C138      1.0  0.10435  0.64905  0.65335  1.0000
  C   C139      1.0  0.12137  0.65606  0.66517  1.0000
  C   C140      1.0  0.13507  0.66058  0.64714  1.0000
  C   C141      1.0  0.13177  0.65851  0.61778  1.0000
  H   H140      1.0  0.08788  0.64141  0.61531  1.0000
  H   H141      1.0  0.09360  0.64552  0.66696  1.0000
  H   H142      1.0  0.14824  0.66606  0.65571  1.0000
  H   H143      1.0  0.14249  0.66236  0.60407  1.0000
  C   C142      1.0  0.11525  0.65474  0.91135  1.0000
  C   C143      1.0  0.11752  0.66575  0.88854  1.0000
  C   C144      1.0  0.12817  0.66589  0.86639  1.0000
  C   C145      1.0  0.13690  0.65513  0.86686  1.0000
  C   C146      1.0  0.13466  0.64418  0.88976  1.0000
  C   C147      1.0  0.12391  0.64392  0.91177  1.0000
  H   H144      1.0  0.11094  0.67421  0.88789  1.0000
  H   H145      1.0  0.12971  0.67442  0.84907  1.0000
  H   H146      1.0  0.14126  0.63575  0.89052  1.0000
  H   H147      1.0  0.12238  0.63541  0.92912  1.0000
  H   H148      1.0  0.16152  0.61048  0.86903  1.0000
  C   C148      1.0  0.12461  0.50990  0.63484  1.0000
  S   S59       1.0  0.15317  0.49528  0.75674  1.0000
  C   C149      1.0  0.08756  0.54488  0.52137  1.0000
  C   C150      1.0  0.09387  0.56295  0.52485  1.0000
  C   C151      1.0  0.08239  0.57080  0.52469  1.0000
  H   H149      1.0  0.99716  0.57009  0.97185  1.0000
  C   C152      1.0  0.20180  0.61681  0.82300  1.0000
  Fe  Fe29      1.0  0.14286  0.50442  0.79374  1.0000
  H   H150      1.0  0.08732  0.58470  0.52779  1.0000
  C   C153      1.0  0.23240  0.50348  0.77721  1.0000
  H   H151      1.0  0.13493  0.57684  0.74173  1.0000
  H   H152      1.0  0.00219  0.63880  0.52967  1.0000
  N   N12       1.0  0.14594  0.70786  0.70332  1.0000
  C   C154      1.0  0.16318  0.71674  0.71063  1.0000
  C   C155      1.0  0.14069  0.70116  0.67664  1.0000
  C   C156      1.0  0.17566  0.71911  0.69093  1.0000
  C   C157      1.0  0.11994  0.50457  0.89889  1.0000
  N   N13       1.0  0.08741  0.53548  0.95281  1.0000
  C   C158      1.0  0.13288  0.70518  0.72410  1.0000
  H   H153      1.0  0.16744  0.72194  0.73184  1.0000
  H   H154      1.0  0.12704  0.69367  0.67106  1.0000
  H   H155      1.0  0.19891  0.51815  0.71533  1.0000
  C   C159      1.0  0.23394  0.53141  0.76380  1.0000
  C   C160      1.0  0.08402  0.54981  0.95043  1.0000
  H   H156      1.0  0.12316  0.70969  0.71605  1.0000
  H   H157      1.0  0.12617  0.69110  0.72856  1.0000
  H   H158      1.0  0.13870  0.71239  0.74423  1.0000
  C   C161      1.0  0.18476  0.51820  0.67680  1.0000
  Fe  Fe30      1.0  0.06438  0.59954  0.51269  1.0000
  H   H159      1.0  0.14856  0.69793  0.63526  1.0000
  C   C162      1.0  0.05825  0.54249  0.51781  1.0000
  H   H160      1.0  0.09387  0.57774  0.95699  1.0000
  C   C163      1.0  0.15282  0.70343  0.65634  1.0000
  H   H161      1.0  0.18064  0.60089  0.84749  1.0000
  C   C164      1.0  0.07379  0.51813  0.94548  1.0000
  Fe  Fe31      1.0  0.09266  0.63916  0.97831  1.0000
  N   N14       1.0  0.18109  0.62604  0.84150  1.0000
  C   C165      1.0  0.14424  0.62789  0.69160  1.0000
  Fe  Fe32      1.0  0.05361  0.62846  0.50625  1.0000
  H   H162      1.0  0.18000  0.71401  0.64827  1.0000
  H   H163      1.0  0.99817  0.59996  0.56821  1.0000
  C   C166      1.0  0.99666  0.62525  0.52264  1.0000
  H   H164      1.0  0.20940  0.65752  0.80245  1.0000
  H   H165      1.0  0.06476  0.51867  0.92861  1.0000
  C   C167      1.0  0.12933  0.61670  0.70436  1.0000
  S   S60       1.0  0.20086  0.50559  0.77414  1.0000
  H   H166      1.0  0.18382  0.65137  0.83089  1.0000
  H   H167      1.0  0.13523  0.51410  0.86242  1.0000
  H   H168      1.0  0.16670  0.60319  0.69497  1.0000
  C   C168      1.0  0.11572  0.68926  0.98282  1.0000
  H   H169      1.0  0.07934  0.50922  0.93778  1.0000
  C   C169      1.0  0.06975  0.53459  0.51818  1.0000
  S   S61       1.0  0.07708  0.61023  0.97509  1.0000
  C   C170      1.0  0.15768  0.62293  0.68807  1.0000
  C   C171      1.0  0.13990  0.57906  0.72026  1.0000
  C   C172      1.0  0.00341  0.55328  0.53062  1.0000
  S   S62       1.0  0.10217  0.53550  0.51944  1.0000
  H   H170      1.0  0.10764  0.57089  0.52761  1.0000
  H   H171      1.0  0.13098  0.56842  0.70578  1.0000
  H   H172      1.0  0.06483  0.52058  0.51561  1.0000
  C   C173      1.0  0.12470  0.50325  0.87120  1.0000
  H   H173      1.0  0.23186  0.72091  0.77098  1.0000
  H   H174      1.0  0.10563  0.52572  0.96632  1.0000
  N   N15       1.0  0.99985  0.57652  0.55494  1.0000
  C   C174      1.0  0.12818  0.60069  0.71377  1.0000
  S   S63       1.0  0.05041  0.57056  0.51710  1.0000
  C   C175      1.0  0.18731  0.61364  0.83871  1.0000
  C   C176      1.0  0.20986  0.63272  0.81003  1.0000
  H   H175      1.0  0.07132  0.54844  0.94318  1.0000
  N   N16       1.0  0.14152  0.59599  0.71050  1.0000
  H   H176      1.0  0.19190  0.53211  0.67443  1.0000
  H   H177      1.0  0.15462  0.69447  0.97025  1.0000
  C   C177      1.0  0.01038  0.57000  0.54319  1.0000
  C   C178      1.0  0.17042  0.71239  0.66363  1.0000
  C   C179      1.0  0.00751  0.59395  0.56847  1.0000
  C   C180      1.0  0.18900  0.64172  0.82904  1.0000
  H   H178      1.0  0.11661  0.59211  0.72388  1.0000
  H   H179      1.0  0.22777  0.53999  0.75946  1.0000
  C   C181      1.0  0.20350  0.64530  0.81313  1.0000
  H   H180      1.0  0.15442  0.62031  0.84095  1.0000
  H   H181      1.0  0.16698  0.63344  0.87064  1.0000
  C   C182      1.0  0.14083  0.68553  0.96557  1.0000
  H   H182      1.0  0.13673  0.68915  0.94522  1.0000
  H   H183      1.0  0.11204  0.69093  0.96147  1.0000
  H   H184      1.0  0.01891  0.60289  0.55712  1.0000
  S   S64       1.0  0.02913  0.63307  0.50588  1.0000
  H   H185      1.0  0.13950  0.67195  0.96272  1.0000
  C   C183      1.0  0.12773  0.50309  0.66006  1.0000
  C   C184      1.0  0.11485  0.49884  0.61214  1.0000
  C   C185      1.0  0.99967  0.60079  0.50102  1.0000
  C   C186      1.0  0.16825  0.51695  0.63326  1.0000
  C   C187      1.0  0.23547  0.73445  0.76657  1.0000
  N   N17       1.0  0.17185  0.50846  0.65762  1.0000
  H   H186      1.0  0.12821  0.55467  0.98130  1.0000
  H   H187      1.0  0.16538  0.52798  0.64038  1.0000
  H   H188      1.0  0.17528  0.50628  0.86634  1.0000
  H   H189      1.0  0.16355  0.50793  0.91241  1.0000
  H   H190      1.0  0.00759  0.59540  0.49105  1.0000
  C   C188      1.0  0.15785  0.49601  0.89959  1.0000
  C   C189      1.0  0.16436  0.49501  0.87345  1.0000
  Fe  Fe33      1.0  0.44604  0.06554  0.02072  1.0000
  S   S65       1.0  0.44723  0.09258  0.02819  1.0000
  S   S66       1.0  0.42465  0.04064  0.03704  1.0000
  H   H191      1.0  0.39743  0.41724  0.47134  1.0000
  H   H192      1.0  0.30435  0.48769  0.36832  1.0000
  Fe  Fe34      1.0  0.47414  0.10025  0.04736  1.0000
  C   C190      1.0  0.46546  0.19076  0.21948  1.0000
  S   S67       1.0  0.46412  0.07220  0.48257  1.0000
  H   H193      1.0  0.46157  0.06541  0.14287  1.0000
  S   S68       1.0  0.47210  0.07298  0.04201  1.0000
  H   H194      1.0  0.39303  0.39182  0.00544  1.0000
  C   C191      1.0  0.46574  0.07645  0.12844  1.0000
  H   H195      1.0  0.41459  0.99603  0.46705  1.0000
  S   S69       1.0  0.46834  0.11836  0.44633  1.0000
  H   H196      1.0  0.47174  0.07338  0.11008  1.0000
  C   C192      1.0  0.47790  0.34356  0.40477  1.0000
  S   S70       1.0  0.40355  0.46286  0.00157  1.0000
  C   C193      1.0  0.42249  0.08573  0.10185  1.0000
  H   H197      1.0  0.29625  0.48095  0.30803  1.0000
  C   C194      1.0  0.47540  0.37002  0.41986  1.0000
  Fe  Fe35      1.0  0.36082  0.48115  0.05596  1.0000
  H   H198      1.0  0.34771  0.47567  0.41860  1.0000
  H   H199      1.0  0.41689  0.06441  0.07203  1.0000
  H   H200      1.0  0.44176  0.43291  0.00878  1.0000
  Fe  Fe36      1.0  0.38585  0.47503  0.01699  1.0000
  H   H201      1.0  0.44555  0.34022  0.16963  1.0000
  S   S71       1.0  0.35674  0.46647  0.01411  1.0000
  C   C195      1.0  0.44508  0.35219  0.16286  1.0000
  Fe  Fe37      1.0  0.46817  0.10040  0.48241  1.0000
  S   S72       1.0  0.48255  0.17127  0.27175  1.0000
  Fe  Fe38      1.0  0.47037  0.38014  0.05529  1.0000
  S   S73       1.0  0.46954  0.40471  0.07154  1.0000
  C   C196      1.0  0.40606  0.00504  0.04195  1.0000
  Fe  Fe39      1.0  0.44982  0.40080  0.03644  1.0000
  S   S74       1.0  0.42502  0.40366  0.04559  1.0000
  C   C197      1.0  0.34308  0.48632  0.12073  1.0000
  S   S75       1.0  0.44900  0.37495  0.02195  1.0000
  H   H202      1.0  0.47793  0.19211  0.18049  1.0000
  C   C198      1.0  0.41048  0.44776  0.01708  1.0000
  C   C199      1.0  0.45168  0.38252  0.17130  1.0000
  H   H203      1.0  0.47716  0.33083  0.40961  1.0000
  C   C200      1.0  0.42067  0.42174  0.03626  1.0000
  C   C201      1.0  0.43048  0.43378  0.01692  1.0000
  C   C202      1.0  0.48345  0.14605  0.37465  1.0000
  H   H204      1.0  0.38957  0.43682  0.04496  1.0000
  S   S76       1.0  0.38920  0.48763  0.05986  1.0000
  C   C203      1.0  0.45145  0.36692  0.18074  1.0000
  C   C204      1.0  0.31162  0.45543  0.03496  1.0000
  C   C205      1.0  0.47937  0.37616  0.39257  1.0000
  S   S77       1.0  0.47765  0.15759  0.19055  1.0000
  C   C206      1.0  0.28504  0.47920  0.32082  1.0000
  Fe  Fe40      1.0  0.48267  0.08090  0.99983  1.0000
  S   S78       1.0  0.47214  0.38373  0.44563  1.0000
  H   H205      1.0  0.38512  0.49231  0.13290  1.0000
  H   H206      1.0  0.47986  0.38877  0.38762  1.0000
  N   N18       1.0  0.45087  0.07975  0.11923  1.0000
  H   H207      1.0  0.44583  0.39535  0.13674  1.0000
  C   C207      1.0  0.45242  0.19083  0.26456  1.0000
  C   C208      1.0  0.33646  0.47985  0.14682  1.0000
  H   H208      1.0  0.48581  0.38952  0.12293  1.0000
  H   H209      1.0  0.43362  0.38236  0.09307  1.0000
  C   C209      1.0  0.42528  0.44655  0.00717  1.0000
  C   C210      1.0  0.43363  0.09582  0.12378  1.0000
  H   H210      1.0  0.44207  0.05921  0.08798  1.0000
  C   C211      1.0  0.47464  0.19934  0.19645  1.0000
  C   C212      1.0  0.46662  0.21736  0.23829  1.0000
  H   H211      1.0  0.44613  0.17645  0.26101  1.0000
  H   H212      1.0  0.44222  0.19511  0.26981  1.0000
  H   H213      1.0  0.48394  0.33797  0.17367  1.0000
  C   C213      1.0  0.31862  0.48388  0.01423  1.0000
  H   H214      1.0  0.40332  0.00841  0.06256  1.0000
  H   H215      1.0  0.41156  0.08822  0.09470  1.0000
  H   H216      1.0  0.43933  0.36509  0.08271  1.0000
  C   C214      1.0  0.34739  0.48651  0.40731  1.0000
  H   H217      1.0  0.46177  0.19391  0.28286  1.0000
  H   H218      1.0  0.47999  0.24034  0.21453  1.0000
  C   C215      1.0  0.48545  0.12586  0.11661  1.0000
  C   C216      1.0  0.43981  0.06956  0.09813  1.0000
  C   C217      1.0  0.43225  0.36910  0.09831  1.0000
  S   S79       1.0  0.46936  0.41569  0.00559  1.0000
  H   H219      1.0  0.33262  0.46621  0.15085  1.0000
  H   H220      1.0  0.43151  0.10629  0.13384  1.0000
  H   H221      1.0  0.47159  0.34862  0.44659  1.0000
  H   H222      1.0  0.31087  0.47285  0.08130  1.0000
  C   C218      1.0  0.48210  0.34981  0.37759  1.0000
  C   C219      1.0  0.47252  0.13190  0.11501  1.0000
  C   C220      1.0  0.47037  0.14160  0.13774  1.0000
  N   N19       1.0  0.43909  0.36856  0.12669  1.0000
  N   N20       1.0  0.46150  0.19978  0.23996  1.0000
  C   C221      1.0  0.47470  0.35361  0.42582  1.0000
  H   H223      1.0  0.46409  0.12900  0.09636  1.0000
  H   H224      1.0  0.46026  0.14610  0.13627  1.0000
  H   H225      1.0  0.43471  0.34195  0.12151  1.0000
  H   H226      1.0  0.47117  0.14743  0.41289  1.0000
  C   C222      1.0  0.48123  0.14563  0.16222  1.0000
  H   H227      1.0  0.28206  0.46755  0.33367  1.0000
  C   C223      1.0  0.48281  0.36622  0.37165  1.0000
  H   H228      1.0  0.45705  0.39415  0.18483  1.0000
  H   H229      1.0  0.33698  0.47144  0.36869  1.0000
  C   C224      1.0  0.40104  0.43615  0.03723  1.0000
  H   H230      1.0  0.39832  0.41389  0.06150  1.0000
  C   C225      1.0  0.48418  0.11583  0.39684  1.0000
  H   H231      1.0  0.31652  0.45243  0.01526  1.0000
  C   C226      1.0  0.41658  0.01840  0.02470  1.0000
  H   H232      1.0  0.46412  0.22464  0.25511  1.0000
  S   S80       1.0  0.47007  0.35887  0.08462  1.0000
  C   C227      1.0  0.47909  0.34767  0.13407  1.0000
  C   C228      1.0  0.41986  0.01375  0.99803  1.0000
  H   H233      1.0  0.46171  0.17687  0.22093  1.0000
  C   C229      1.0  0.40604  0.42314  0.04657  1.0000
  C   C230      1.0  0.44774  0.09251  0.13245  1.0000
  C   C231      1.0  0.44540  0.38312  0.14404  1.0000
  C   C232      1.0  0.42548  0.07241  0.08908  1.0000
  C   C233      1.0  0.43899  0.35326  0.13569  1.0000
  H   H234      1.0  0.31833  0.45198  0.05259  1.0000
  H   H235      1.0  0.47601  0.08818  0.13921  1.0000
  H   H236      1.0  0.43202  0.45521  0.48196  1.0000
  H   H237      1.0  0.45685  0.36641  0.20148  1.0000
  C   C234      1.0  0.47705  0.12506  0.41255  1.0000
  H   H238      1.0  0.29752  0.44713  0.03536  1.0000
  S   S81       1.0  0.34482  0.47195  0.09466  1.0000
  H   H239      1.0  0.41830  0.36010  0.09614  1.0000
  C   C235      1.0  0.48462  0.34929  0.16264  1.0000
  H   H240      1.0  0.47430  0.33507  0.12331  1.0000
  H   H241      1.0  0.45641  0.10051  0.14939  1.0000
  H   H242      1.0  0.27365  0.47662  0.30644  1.0000
  H   H243      1.0  0.42728  0.02732  0.48227  1.0000
  C   C236      1.0  0.48555  0.37830  0.13375  1.0000
  H   H244      1.0  0.33022  0.48585  0.18814  1.0000
  C   C237      1.0  0.47980  0.21724  0.19448  1.0000
  H   H245      1.0  0.31948  0.47844  0.99392  1.0000
  N   N21       1.0  0.31496  0.47387  0.03742  1.0000
  Fe  Fe41      1.0  0.47027  0.39025  0.99312  1.0000
  H   H246      1.0  0.46916  0.01340  0.46624  1.0000
  C   C238      1.0  0.47671  0.14018  0.40114  1.0000
  C   C239      1.0  0.34131  0.48415  0.37893  1.0000
  C   C240      1.0  0.31375  0.48078  0.06289  1.0000
  C   C241      1.0  0.47572  0.22634  0.21547  1.0000
  H   H247      1.0  0.43271  0.45546  0.99161  1.0000
  H   H248      1.0  0.48302  0.15766  0.36633  1.0000
  C   C242      1.0  0.33502  0.49094  0.16801  1.0000
  C   C243      1.0  0.47927  0.36209  0.11953  1.0000
  H   H249      1.0  0.39220  0.41006  0.98847  1.0000
  C   C244      1.0  0.41244  0.99966  0.48790  1.0000
  Fe  Fe42      1.0  0.36256  0.49237  0.99425  1.0000
  H   H250      1.0  0.48580  0.37117  0.35083  1.0000
  S   S82       1.0  0.48649  0.33667  0.35220  1.0000
  H   H251      1.0  0.48406  0.10390  0.40461  1.0000
  S   S83       1.0  0.48701  0.10869  0.00624  1.0000
  H   H252      1.0  0.48712  0.22409  0.17691  1.0000
  C   C245      1.0  0.41239  0.99609  0.98860  1.0000
  C   C246      1.0  0.46277  0.01101  0.48598  1.0000
  Fe  Fe43      1.0  0.44832  0.06895  0.52061  1.0000
  S   S84       1.0  0.45015  0.09639  0.51806  1.0000
  S   S85       1.0  0.42511  0.04478  0.53488  1.0000
  Fe  Fe44      1.0  0.48671  0.41814  0.53333  1.0000
  C   C247      1.0  0.48306  0.13068  0.61750  1.0000
  Fe  Fe45      1.0  0.47371  0.10483  0.54753  1.0000
  C   C248      1.0  0.48425  0.35393  0.88158  1.0000
  H   H253      1.0  0.46865  0.44468  0.53305  1.0000
  S   S86       1.0  0.45362  0.11279  0.94955  1.0000
  S   S87       1.0  0.47075  0.07734  0.55224  1.0000
  C   C249      1.0  0.45620  0.02176  0.52896  1.0000
  S   S88       1.0  0.48547  0.32126  0.77949  1.0000
  H   H254      1.0  0.45143  0.40778  0.93392  1.0000
  C   C250      1.0  0.46618  0.35977  0.63598  1.0000
  H   H255      1.0  0.48587  0.15715  0.61546  1.0000
  H   H256      1.0  0.38225  0.38875  0.97109  1.0000
  H   H257      1.0  0.37748  0.40683  0.58145  1.0000
  H   H258      1.0  0.47488  0.35505  0.95075  1.0000
  C   C251      1.0  0.48110  0.34888  0.90956  1.0000
  H   H259      1.0  0.45133  0.35211  0.67310  1.0000
  C   C252      1.0  0.43017  0.47978  0.51553  1.0000
  H   H260      1.0  0.34551  0.41771  0.52159  1.0000
  S   S89       1.0  0.34269  0.46904  0.58881  1.0000
  H   H261      1.0  0.36253  0.40217  0.50793  1.0000
  Fe  Fe46      1.0  0.37765  0.46209  0.50996  1.0000
  C   C253      1.0  0.47738  0.19652  0.85341  1.0000
  S   S90       1.0  0.35189  0.46387  0.50815  1.0000
  H   H262      1.0  0.43926  0.00218  0.55540  1.0000
  H   H263      1.0  0.35175  0.47764  0.91828  1.0000
  H   H264      1.0  0.37515  0.39690  0.53342  1.0000
  C   C254      1.0  0.43962  0.40579  0.94422  1.0000
  H   H265      1.0  0.35182  0.38522  0.53238  1.0000
  H   H266      1.0  0.45718  0.03257  0.54255  1.0000
  Fe  Fe47      1.0  0.44821  0.39647  0.53667  1.0000
  S   S91       1.0  0.42600  0.40247  0.55145  1.0000
  H   H267      1.0  0.48522  0.11118  0.67863  1.0000
  S   S92       1.0  0.45059  0.37127  0.52620  1.0000
  H   H268      1.0  0.48000  0.21924  0.83115  1.0000
  C   C255      1.0  0.39730  0.43164  0.50889  1.0000
  H   H269      1.0  0.28263  0.48575  0.67776  1.0000
  C   C256      1.0  0.36961  0.41364  0.57572  1.0000
  C   C257      1.0  0.41681  0.41509  0.53389  1.0000
  C   C258      1.0  0.41250  0.42679  0.54957  1.0000
  C   C259      1.0  0.40307  0.43527  0.53704  1.0000
  H   H270      1.0  0.44718  0.10703  0.64389  1.0000
  H   H271      1.0  0.45644  0.36225  0.62422  1.0000
  H   H272      1.0  0.41154  0.42412  0.95239  1.0000
  H   H273      1.0  0.39961  0.44399  0.54948  1.0000
  H   H274      1.0  0.43844  0.42898  0.92856  1.0000
  H   H275      1.0  0.42647  0.48389  0.53553  1.0000
  C   C260      1.0  0.33331  0.47620  0.64078  1.0000
  Fe  Fe48      1.0  0.47405  0.38168  0.55677  1.0000
  C   C261      1.0  0.44032  0.12685  0.60651  1.0000
  C   C262      1.0  0.42543  0.08193  0.57481  1.0000
  C   C263      1.0  0.43788  0.08250  0.62110  1.0000
  Fe  Fe49      1.0  0.36019  0.47700  0.55137  1.0000
  N   N22       1.0  0.40965  0.40076  0.97129  1.0000
  H   H276      1.0  0.41622  0.42903  0.57167  1.0000
  C   C264      1.0  0.43232  0.41765  0.94121  1.0000
  S   S93       1.0  0.47818  0.12661  0.58064  1.0000
  C   C265      1.0  0.46130  0.46438  0.54916  1.0000
  H   H277      1.0  0.44809  0.13288  0.62616  1.0000
  H   H278      1.0  0.42777  0.02380  0.98436  1.0000
  C   C266      1.0  0.34675  0.48599  0.90810  1.0000
  H   H279      1.0  0.42588  0.10623  0.56164  1.0000
  H   H280      1.0  0.35679  0.44352  0.60263  1.0000
  C   C267      1.0  0.41177  0.41216  0.50541  1.0000
  C   C268      1.0  0.41674  0.38908  0.97438  1.0000
  C   C269      1.0  0.42904  0.09956  0.57862  1.0000
  S   S94       1.0  0.46467  0.41069  0.50187  1.0000
  H   H281      1.0  0.46378  0.18934  0.84734  1.0000
  S   S95       1.0  0.38465  0.47302  0.55387  1.0000
  C   C270      1.0  0.43006  0.07343  0.59608  1.0000
  N   N23       1.0  0.47249  0.29994  0.70614  1.0000
  H   H282      1.0  0.32558  0.46229  0.64128  1.0000
  C   C271      1.0  0.47948  0.37961  0.89340  1.0000
  H   H283      1.0  0.32560  0.48143  0.68143  1.0000
  H   H284      1.0  0.43736  0.38208  0.96316  1.0000
  N   N24       1.0  0.47688  0.08932  0.89789  1.0000
  C   C272      1.0  0.45842  0.07859  0.90129  1.0000
  C   C273      1.0  0.48563  0.13270  0.92723  1.0000
  Fe  Fe50      1.0  0.46907  0.38660  0.49303  1.0000
  C   C274      1.0  0.45034  0.44864  0.50507  1.0000
  C   C275      1.0  0.48589  0.14710  0.62916  1.0000
  H   H285      1.0  0.47880  0.39149  0.88692  1.0000
  C   C276      1.0  0.34279  0.48408  0.87890  1.0000
  C   C277      1.0  0.40190  0.42023  0.49309  1.0000
  H   H286      1.0  0.44559  0.28634  0.71205  1.0000
  H   H287      1.0  0.48165  0.33692  0.91596  1.0000
  C   C278      1.0  0.39343  0.39765  0.98461  1.0000
  C   C279      1.0  0.45107  0.47343  0.54429  1.0000
  C   C280      1.0  0.34329  0.48320  0.61738  1.0000
  C   C281      1.0  0.41713  0.41482  0.95474  1.0000
  C   C282      1.0  0.46760  0.12543  0.92342  1.0000
  C   C283      1.0  0.46036  0.12843  0.89820  1.0000
  C   C284      1.0  0.47094  0.13839  0.87699  1.0000
  C   C285      1.0  0.36812  0.42543  0.59513  1.0000
  C   C286      1.0  0.46333  0.35400  0.66374  1.0000
  H   H288      1.0  0.44643  0.12295  0.89502  1.0000
  H   H289      1.0  0.46513  0.14037  0.85765  1.0000
  C   C287      1.0  0.48146  0.36192  0.62331  1.0000
  C   C288      1.0  0.47728  0.35916  0.92939  1.0000
  C   C289      1.0  0.43174  0.39135  0.96076  1.0000
  C   C290      1.0  0.41678  0.02245  0.52316  1.0000
  S   S96       1.0  0.47157  0.34341  0.71433  1.0000
  H   H290      1.0  0.44804  0.13424  0.58892  1.0000
  H   H291      1.0  0.44168  0.07607  0.63771  1.0000
  H   H292      1.0  0.42802  0.12832  0.60680  1.0000
  S   S97       1.0  0.47164  0.38819  0.94530  1.0000
  H   H293      1.0  0.37474  0.42775  0.61561  1.0000
  N   N25       1.0  0.36157  0.41099  0.54965  1.0000
  C   C291      1.0  0.35170  0.41962  0.54238  1.0000
  C   C292      1.0  0.34973  0.43130  0.56143  1.0000
  C   C293      1.0  0.35805  0.43426  0.58790  1.0000
  H   H294      1.0  0.47244  0.10265  0.86308  1.0000
  H   H295      1.0  0.34194  0.43820  0.55570  1.0000
  S   S98       1.0  0.47032  0.40547  0.56902  1.0000
  H   H296      1.0  0.45904  0.28882  0.74315  1.0000
  S   S99       1.0  0.45663  0.07160  0.97782  1.0000
  N   N26       1.0  0.44054  0.46994  0.52057  1.0000
  H   H297      1.0  0.46179  0.31084  0.67508  1.0000
  H   H298      1.0  0.42769  0.05986  0.59295  1.0000
  C   C294      1.0  0.47588  0.35079  0.67948  1.0000
  C   C295      1.0  0.46085  0.45186  0.52945  1.0000
  C   C296      1.0  0.44100  0.10004  0.62443  1.0000
  H   H299      1.0  0.26072  0.48931  0.70427  1.0000
  Fe  Fe51      1.0  0.48650  0.08183  0.51419  1.0000
  H   H300      1.0  0.41942  0.07496  0.55522  1.0000
  N   N27       1.0  0.43678  0.10839  0.60317  1.0000
  C   C297      1.0  0.46457  0.02498  0.50373  1.0000
  C   C298      1.0  0.45759  0.29532  0.72382  1.0000
  H   H301      1.0  0.45311  0.08562  0.91508  1.0000
  H   H302      1.0  0.34480  0.47422  0.86686  1.0000
  H   H303      1.0  0.45157  0.48325  0.55960  1.0000
  C   C299      1.0  0.48340  0.36939  0.87363  1.0000
  Fe  Fe52      1.0  0.46024  0.09922  0.98636  1.0000
  H   H304      1.0  0.46956  0.46703  0.56804  1.0000
  H   H305      1.0  0.47468  0.24303  0.78432  1.0000
  H   H306      1.0  0.47234  0.03829  0.49789  1.0000
  H   H307      1.0  0.45615  0.30728  0.73033  1.0000
  C   C300      1.0  0.40665  0.00934  0.54113  1.0000
  H   H308      1.0  0.45623  0.06599  0.91084  1.0000
  H   H309      1.0  0.45103  0.07558  0.88080  1.0000
  H   H310      1.0  0.40414  0.01299  0.56171  1.0000
  H   H311      1.0  0.47900  0.17549  0.87634  1.0000
  C   C301      1.0  0.47250  0.30773  0.68128  1.0000
  H   H312      1.0  0.48106  0.10519  0.62705  1.0000
  C   C302      1.0  0.41970  0.01746  0.49649  1.0000
  S   S100      1.0  0.48331  0.16899  0.77887  1.0000
  C   C303      1.0  0.44028  0.45792  0.50086  1.0000
  C   C304      1.0  0.47644  0.37462  0.92142  1.0000
  C   C305      1.0  0.48647  0.31224  0.66385  1.0000
  C   C306      1.0  0.48549  0.12131  0.66487  1.0000
  H   H313      1.0  0.48490  0.07909  0.93342  1.0000
  C   C307      1.0  0.48315  0.11787  0.63558  1.0000
  C   C308      1.0  0.48197  0.10107  0.87698  1.0000
  H   H314      1.0  0.41794  0.47172  0.50335  1.0000
  C   C309      1.0  0.44603  0.00455  0.53605  1.0000
  H   H315      1.0  0.47943  0.39482  0.67831  1.0000
  C   C310      1.0  0.36276  0.39813  0.52994  1.0000
  S   S101      1.0  0.38286  0.43948  0.49338  1.0000
  C   C311      1.0  0.33329  0.48703  0.66362  1.0000
  H   H316      1.0  0.41472  0.40297  0.49320  1.0000
  H   H317      1.0  0.44982  0.43881  0.48974  1.0000
  C   C312      1.0  0.45252  0.99396  0.49373  1.0000
  S   S102      1.0  0.33138  0.49168  0.82823  1.0000
  C   C313      1.0  0.48591  0.18875  0.86963  1.0000
  H   H318      1.0  0.48643  0.27526  0.78130  1.0000
  C   C314      1.0  0.48665  0.21345  0.84431  1.0000
  H   H319      1.0  0.48567  0.37341  0.85221  1.0000
  C   C315      1.0  0.48624  0.29653  0.71441  1.0000
  H   H320      1.0  0.43768  0.49164  0.50378  1.0000
  H   H321      1.0  0.48641  0.29052  0.73423  1.0000
  S   S103      1.0  0.39131  0.48772  0.48951  1.0000
  Fe  Fe53      1.0  0.36640  0.49066  0.49081  1.0000
  S   S104      1.0  0.48574  0.36873  0.58817  1.0000
  H   H322      1.0  0.48646  0.31859  0.64428  1.0000
  H   H323      1.0  0.41092  0.37803  0.98772  1.0000
  C   C316      1.0  0.43869  0.50707  0.99015  1.0000
  Fe  Fe54      1.0  0.38713  0.90359  0.02465  1.0000
  H   H324      1.0  0.39180  0.53651  0.43113  1.0000
  S   S105      1.0  0.40917  0.89691  0.03742  1.0000
  Fe  Fe55      1.0  0.35567  0.90496  0.04964  1.0000
  S   S106      1.0  0.34877  0.91526  0.00950  1.0000
  S   S107      1.0  0.34111  0.90070  0.09046  1.0000
  H   H325      1.0  0.40711  0.82641  0.33673  1.0000
  S   S108      1.0  0.34136  0.87669  0.45831  1.0000
  Fe  Fe56      1.0  0.37750  0.93309  0.00866  1.0000
  C   C317      1.0  0.39885  0.98733  0.03271  1.0000
  S   S109      1.0  0.35970  0.88380  0.02679  1.0000
  S   S110      1.0  0.38364  0.92420  0.05004  1.0000
  Fe  Fe57      1.0  0.44432  0.65304  0.22687  1.0000
  S   S111      1.0  0.46556  0.64469  0.22015  1.0000
  S   S112      1.0  0.41676  0.63376  0.21564  1.0000
  Fe  Fe58      1.0  0.46948  0.69052  0.24459  1.0000
  C   C318      1.0  0.47627  0.89876  0.14966  1.0000
  S   S113      1.0  0.45683  0.67770  0.20313  1.0000
  S   S114      1.0  0.45495  0.66612  0.26880  1.0000
  Fe  Fe59      1.0  0.30773  0.53132  0.27435  1.0000
  S   S115      1.0  0.28355  0.53661  0.28030  1.0000
  Fe  Fe60      1.0  0.34757  0.55220  0.28250  1.0000
  S   S116      1.0  0.35279  0.52926  0.27033  1.0000
  S   S117      1.0  0.36983  0.57730  0.29890  1.0000
  Fe  Fe61      1.0  0.33263  0.52422  0.23536  1.0000
  H   H326      1.0  0.42528  0.50053  0.02861  1.0000
  Fe  Fe62      1.0  0.33067  0.51402  0.29746  1.0000
  H   H327      1.0  0.41980  0.95896  0.03782  1.0000
  S   S118      1.0  0.32868  0.54832  0.24642  1.0000
  S   S119      1.0  0.32662  0.53726  0.31167  1.0000
  H   H328      1.0  0.34598  0.52520  0.36612  1.0000
  S   S120      1.0  0.46269  0.82822  0.20420  1.0000
  H   H329      1.0  0.41375  0.58336  0.26884  1.0000
  S   S121      1.0  0.45005  0.81819  0.26811  1.0000
  Fe  Fe63      1.0  0.46783  0.81299  0.23915  1.0000
  C   C319      1.0  0.38744  0.83558  0.32985  1.0000
  Fe  Fe64      1.0  0.44701  0.83511  0.23471  1.0000
  S   S122      1.0  0.42361  0.83927  0.21988  1.0000
  S   S123      1.0  0.46927  0.85942  0.25122  1.0000
  Fe  Fe65      1.0  0.32260  0.83735  0.22878  1.0000
  S   S124      1.0  0.31359  0.80870  0.23725  1.0000
  S   S125      1.0  0.33051  0.84299  0.18291  1.0000
  Fe  Fe66      1.0  0.32309  0.84605  0.29286  1.0000
  S   S126      1.0  0.31451  0.81817  0.30458  1.0000
  S   S127      1.0  0.33017  0.86911  0.32431  1.0000
  Fe  Fe67      1.0  0.33347  0.81790  0.27301  1.0000
  S   S128      1.0  0.35273  0.80635  0.28112  1.0000
  Fe  Fe68      1.0  0.29521  0.81129  0.26763  1.0000
  S   S129      1.0  0.26590  0.79411  0.27109  1.0000
  S   S130      1.0  0.34324  0.84614  0.26364  1.0000
  S   S131      1.0  0.30287  0.83959  0.25712  1.0000
  S   S132      1.0  0.31046  0.50686  0.26137  1.0000
  H   H330      1.0  0.35633  0.52933  0.41618  1.0000
  H   H331      1.0  0.25867  0.55082  0.28744  1.0000
  C   C320      1.0  0.42222  0.55099  0.02773  1.0000
  H   H332      1.0  0.30316  0.53716  0.38403  1.0000
  H   H333      1.0  0.25737  0.50144  0.26220  1.0000
  C   C321      1.0  0.39170  0.51936  0.12483  1.0000
  H   H334      1.0  0.47822  0.85363  0.15034  1.0000
  H   H335      1.0  0.27084  0.76187  0.26199  1.0000
  H   H336      1.0  0.27614  0.50552  0.31172  1.0000
  H   H337      1.0  0.34982  0.52856  0.13264  1.0000
  C   C322      1.0  0.39493  0.86013  0.29992  1.0000
  C   C323      1.0  0.42387  0.56196  0.46425  1.0000
  C   C324      1.0  0.40461  0.83070  0.23873  1.0000
  C   C325      1.0  0.40127  0.81707  0.25711  1.0000
  C   C326      1.0  0.38536  0.80975  0.27020  1.0000
  C   C327      1.0  0.37278  0.81608  0.26510  1.0000
  C   C328      1.0  0.37630  0.82985  0.24699  1.0000
  C   C329      1.0  0.39217  0.83718  0.23398  1.0000
  H   H338      1.0  0.41076  0.81190  0.26075  1.0000
  H   H339      1.0  0.38271  0.79904  0.28411  1.0000
  H   H340      1.0  0.36667  0.83464  0.24246  1.0000
  H   H341      1.0  0.39465  0.84771  0.21975  1.0000
  C   C330      1.0  0.28852  0.52247  0.34738  1.0000
  C   C331      1.0  0.25160  0.77128  0.27000  1.0000
  H   H342      1.0  0.29800  0.86722  0.35691  1.0000
  C   C332      1.0  0.25729  0.75825  0.26516  1.0000
  H   H343      1.0  0.44328  0.89890  0.04568  1.0000
  C   C333      1.0  0.40383  0.83600  0.32645  1.0000
  H   H344      1.0  0.39575  0.51841  0.10384  1.0000
  C   C334      1.0  0.25143  0.53730  0.28085  1.0000
  C   C335      1.0  0.26042  0.52702  0.27530  1.0000
  C   C336      1.0  0.25077  0.50956  0.26672  1.0000
  H   H345      1.0  0.41315  0.53798  0.42419  1.0000
  C   C337      1.0  0.45823  0.53956  0.01538  1.0000
  C   C338      1.0  0.46965  0.73578  0.25174  1.0000
  C   C339      1.0  0.46717  0.73849  0.22338  1.0000
  H   H346      1.0  0.29588  0.84524  0.39175  1.0000
  C   C340      1.0  0.46736  0.76702  0.23499  1.0000
  S   S133      1.0  0.36008  0.50658  0.45715  1.0000
  C   C341      1.0  0.30524  0.88592  0.01312  1.0000
  H   H347      1.0  0.43316  0.83618  0.31304  1.0000
  C   C342      1.0  0.40440  0.61783  0.23901  1.0000
  C   C343      1.0  0.39006  0.60302  0.22838  1.0000
  C   C344      1.0  0.37937  0.59047  0.24651  1.0000
  C   C345      1.0  0.38273  0.59288  0.27547  1.0000
  C   C346      1.0  0.39691  0.60786  0.28615  1.0000
  C   C347      1.0  0.40789  0.62018  0.26797  1.0000
  H   H348      1.0  0.38717  0.60123  0.20600  1.0000
  H   H349      1.0  0.36843  0.57901  0.23809  1.0000
  H   H350      1.0  0.39953  0.60982  0.30857  1.0000
  H   H351      1.0  0.41876  0.63168  0.27638  1.0000
  C   C348      1.0  0.34042  0.87520  0.42080  1.0000
  C   C349      1.0  0.34402  0.88973  0.40427  1.0000
  C   C350      1.0  0.34120  0.88764  0.37481  1.0000
  C   C351      1.0  0.33511  0.87109  0.36129  1.0000
  C   C352      1.0  0.33207  0.85662  0.37772  1.0000
  C   C353      1.0  0.33444  0.85865  0.40724  1.0000
  H   H352      1.0  0.34850  0.90254  0.41423  1.0000
  H   H353      1.0  0.34362  0.89897  0.36244  1.0000
  H   H354      1.0  0.32741  0.84380  0.36776  1.0000
  H   H355      1.0  0.33157  0.84728  0.41971  1.0000
  C   C354      1.0  0.33893  0.88500  0.11644  1.0000
  C   C355      1.0  0.34288  0.87081  0.11126  1.0000
  C   C356      1.0  0.34013  0.85817  0.13176  1.0000
  C   C357      1.0  0.33364  0.85956  0.15799  1.0000
  C   C358      1.0  0.32975  0.87379  0.16322  1.0000
  C   C359      1.0  0.33224  0.88631  0.14250  1.0000
  H   H356      1.0  0.34791  0.86949  0.09133  1.0000
  H   H357      1.0  0.34301  0.84720  0.12711  1.0000
  H   H358      1.0  0.32471  0.87511  0.18315  1.0000
  H   H359      1.0  0.32905  0.89716  0.14680  1.0000
  H   H360      1.0  0.43915  0.87263  0.11491  1.0000
  H   H361      1.0  0.48452  0.88181  0.42041  1.0000
  C   C360      1.0  0.32165  0.50143  0.01638  1.0000
  C   C361      1.0  0.44287  0.90543  0.02658  1.0000
  C   C362      1.0  0.42743  0.90606  0.01725  1.0000
  C   C363      1.0  0.42027  0.58410  0.33934  1.0000
  C   C364      1.0  0.38082  0.52141  0.17822  1.0000
  C   C365      1.0  0.31671  0.49829  0.06580  1.0000
  H   H362      1.0  0.41144  0.55377  0.11185  1.0000
  H   H363      1.0  0.44272  0.60303  0.36255  1.0000
  H   H364      1.0  0.39148  0.86950  0.28920  1.0000
  H   H365      1.0  0.31510  0.90971  0.05895  1.0000
  H   H366      1.0  0.31462  0.84878  0.04374  1.0000
  C   C366      1.0  0.30781  0.87423  0.99493  1.0000
  H   H367      1.0  0.29916  0.86787  0.29729  1.0000
  C   C367      1.0  0.41117  0.86011  0.29681  1.0000
  C   C368      1.0  0.30466  0.51248  0.37931  1.0000
  H   H368      1.0  0.46559  0.55237  0.02520  1.0000
  Fe  Fe69      1.0  0.47898  0.67005  0.19903  1.0000
  H   H369      1.0  0.39071  0.97731  0.04621  1.0000
  H   H370      1.0  0.43884  0.70226  0.22982  1.0000
  N   N28       1.0  0.43577  0.60197  0.29224  1.0000
  C   C369      1.0  0.47014  0.96435  0.00854  1.0000
  H   H371      1.0  0.28442  0.53240  0.34072  1.0000
  N   N29       1.0  0.40064  0.66055  0.25264  1.0000
  C   C370      1.0  0.40276  0.66396  0.22478  1.0000
  C   C371      1.0  0.41184  0.67195  0.27249  1.0000
  C   C372      1.0  0.41653  0.67897  0.21614  1.0000
  C   C373      1.0  0.42572  0.68713  0.26458  1.0000
  C   C374      1.0  0.42800  0.69064  0.23623  1.0000
  C   C375      1.0  0.38570  0.64512  0.26131  1.0000
  H   H372      1.0  0.39411  0.65476  0.20900  1.0000
  H   H373      1.0  0.41020  0.66930  0.29459  1.0000
  H   H374      1.0  0.41850  0.68135  0.19402  1.0000
  C   C376      1.0  0.38298  0.84772  0.31645  1.0000
  H   H375      1.0  0.27690  0.85611  0.28522  1.0000
  H   H376      1.0  0.38878  0.64008  0.28110  1.0000
  H   H377      1.0  0.37457  0.64838  0.26438  1.0000
  H   H378      1.0  0.38182  0.63431  0.24529  1.0000
  S   S134      1.0  0.47307  0.84861  0.33047  1.0000
  C   C377      1.0  0.28562  0.86172  0.30412  1.0000
  C   C378      1.0  0.43547  0.51051  0.01746  1.0000
  C   C379      1.0  0.47359  0.89087  0.17568  1.0000
  H   H379      1.0  0.28244  0.87201  0.31355  1.0000
  H   H380      1.0  0.44743  0.62583  0.27154  1.0000
  H   H381      1.0  0.44256  0.85944  0.31862  1.0000
  S   S135      1.0  0.41176  0.53727  0.05475  1.0000
  H   H382      1.0  0.25008  0.73057  0.26062  1.0000
  H   H383      1.0  0.46324  0.89056  0.08357  1.0000
  H   H384      1.0  0.38621  0.54780  0.16884  1.0000
  H   H385      1.0  0.43483  0.69606  0.28025  1.0000
  H   H386      1.0  0.48359  0.89576  0.19239  1.0000
  C   C380      1.0  0.43249  0.84837  0.30617  1.0000
  C   C381      1.0  0.46994  0.76437  0.26332  1.0000
  N   N30       1.0  0.41536  0.84804  0.30980  1.0000
  H   H387      1.0  0.47296  0.74700  0.29355  1.0000
  C   C382      1.0  0.44397  0.53671  0.47757  1.0000
  C   C383      1.0  0.34786  0.50396  0.11580  1.0000
  C   C384      1.0  0.39764  0.54972  0.11663  1.0000
  Fe  Fe70      1.0  0.47359  0.84244  0.28339  1.0000
  H   H388      1.0  0.45909  0.58704  0.01669  1.0000
  C   C385      1.0  0.44383  0.60741  0.31814  1.0000
  C   C386      1.0  0.44186  0.97119  0.99473  1.0000
  C   C387      1.0  0.32077  0.50868  0.04238  1.0000
  H   H389      1.0  0.42030  0.86961  0.28357  1.0000
  C   C388      1.0  0.40320  0.53492  0.44013  1.0000
  H   H390      1.0  0.38985  0.54623  0.09647  1.0000
  H   H391      1.0  0.43567  0.84973  0.28372  1.0000
  S   S136      1.0  0.46710  0.56776  0.45948  1.0000
  C   C389      1.0  0.38039  0.50568  0.16812  1.0000
  H   H392      1.0  0.31612  0.50378  0.08622  1.0000
  N   N31       1.0  0.36205  0.81569  0.18064  1.0000
  C   C390      1.0  0.34670  0.80698  0.19311  1.0000
  C   C391      1.0  0.37491  0.81011  0.18322  1.0000
  C   C392      1.0  0.34396  0.79236  0.20895  1.0000
  C   C393      1.0  0.37259  0.79551  0.19886  1.0000
  C   C394      1.0  0.35703  0.78667  0.21191  1.0000
  C   C395      1.0  0.36486  0.83160  0.16578  1.0000
  H   H393      1.0  0.33666  0.81162  0.19136  1.0000
  H   H394      1.0  0.38734  0.81734  0.17423  1.0000
  H   H395      1.0  0.33202  0.78587  0.21972  1.0000
  H   H396      1.0  0.38306  0.79155  0.20180  1.0000
  H   H397      1.0  0.35528  0.77577  0.22506  1.0000
  H   H398      1.0  0.37678  0.83632  0.15373  1.0000
  H   H399      1.0  0.35373  0.82919  0.15089  1.0000
  H   H400      1.0  0.36586  0.84208  0.18106  1.0000
  S   S137      1.0  0.48344  0.61698  0.47849  1.0000
  H   H401      1.0  0.42439  0.94016  0.04252  1.0000
  C   C396      1.0  0.42393  0.94969  0.02711  1.0000
  H   H402      1.0  0.30965  0.86952  0.07499  1.0000
  H   H403      1.0  0.37528  0.49420  0.18074  1.0000
  C   C397      1.0  0.29907  0.52514  0.37160  1.0000
  N   N32       1.0  0.44054  0.95915  0.01434  1.0000
  H   H404      1.0  0.46618  0.72868  0.20778  1.0000
  N   N33       1.0  0.46156  0.53596  0.98881  1.0000
  S   S138      1.0  0.47090  0.71637  0.26373  1.0000
  H   H405      1.0  0.45113  0.98314  0.47982  1.0000
  H   H406      1.0  0.30281  0.89316  0.08228  1.0000
  C   C398      1.0  0.45783  0.91340  0.01141  1.0000
  C   C399      1.0  0.44714  0.57567  0.01192  1.0000
  H   H407      1.0  0.32334  0.52234  0.04439  1.0000
  N   N34       1.0  0.28934  0.49480  0.33878  1.0000
  H   H408      1.0  0.43390  0.85812  0.16072  1.0000
  C   C400      1.0  0.27471  0.81836  0.33597  1.0000
  C   C401      1.0  0.45443  0.95571  0.02143  1.0000
  H   H409      1.0  0.27049  0.82699  0.29564  1.0000
  H   H410      1.0  0.26854  0.80465  0.32955  1.0000
  H   H411      1.0  0.48066  0.90941  0.09861  1.0000
  C   C402      1.0  0.45658  0.55328  0.48556  1.0000
  C   C403      1.0  0.34635  0.51438  0.37740  1.0000
  C   C404      1.0  0.30364  0.89696  0.06000  1.0000
  C   C405      1.0  0.33987  0.50860  0.16308  1.0000
  C   C406      1.0  0.44580  0.86959  0.15769  1.0000
  H   H412      1.0  0.40340  0.53595  0.99535  1.0000
  C   C407      1.0  0.35282  0.50279  0.42105  1.0000
  C   C408      1.0  0.41571  0.54681  0.99999  1.0000
  H   H413      1.0  0.37593  0.52220  0.19864  1.0000
  C   C409      1.0  0.47955  0.86785  0.38022  1.0000
  C   C410      1.0  0.35223  0.51668  0.40585  1.0000
  H   H414      1.0  0.39635  0.56108  0.12640  1.0000
  C   C411      1.0  0.43625  0.59856  0.34207  1.0000
  C   C412      1.0  0.34606  0.51494  0.13670  1.0000
  S   S139      1.0  0.46631  0.78650  0.22293  1.0000
  C   C413      1.0  0.44524  0.52686  0.03017  1.0000
  C   C414      1.0  0.41223  0.57853  0.31280  1.0000
  C   C415      1.0  0.28183  0.82342  0.36314  1.0000
  C   C416      1.0  0.43773  0.56567  0.03375  1.0000
  C   C417      1.0  0.44395  0.61175  0.26771  1.0000
  H   H415      1.0  0.46653  0.85892  0.38488  1.0000
  S   S140      1.0  0.33953  0.52367  0.18921  1.0000
  C   C418      1.0  0.29098  0.85348  0.35113  1.0000
  H   H416      1.0  0.44268  0.56913  0.05521  1.0000
  Fe  Fe71      1.0  0.47724  0.65927  0.26129  1.0000
  C   C419      1.0  0.38656  0.53585  0.16111  1.0000
  Fe  Fe72      1.0  0.39220  0.51156  0.03728  1.0000
  H   H417      1.0  0.31361  0.85189  0.99200  1.0000
  H   H418      1.0  0.44181  0.53257  0.45568  1.0000
  H   H419      1.0  0.45601  0.61025  0.26376  1.0000
  C   C420      1.0  0.30884  0.87078  0.05247  1.0000
  H   H420      1.0  0.31319  0.51454  0.39775  1.0000
  N   N35       1.0  0.28389  0.84841  0.32456  1.0000
  H   H421      1.0  0.37018  0.84729  0.31848  1.0000
  S   S141      1.0  0.36427  0.50599  0.03607  1.0000
  N   N36       1.0  0.39186  0.53467  0.13474  1.0000
  H   H422      1.0  0.44256  0.52981  0.05117  1.0000
  C   C421      1.0  0.46681  0.90050  0.10100  1.0000
  H   H423      1.0  0.47544  0.86056  0.10054  1.0000
  H   H424      1.0  0.46978  0.91311  0.01898  1.0000
  H   H425      1.0  0.28127  0.81367  0.37802  1.0000
  C   C422      1.0  0.46603  0.75396  0.21514  1.0000
  H   H426      1.0  0.48242  0.84324  0.45588  1.0000
  H   H427      1.0  0.46408  0.75580  0.19315  1.0000
  C   C423      1.0  0.34074  0.49804  0.36374  1.0000
  H   H428      1.0  0.47104  0.77421  0.27893  1.0000
  N   N37       1.0  0.46403  0.89211  0.12814  1.0000
  H   H429      1.0  0.39960  0.56755  0.31047  1.0000
  C   C424      1.0  0.38589  0.50462  0.14128  1.0000
  C   C425      1.0  0.45828  0.87617  0.17961  1.0000
  N   N38       1.0  0.30574  0.88408  0.04149  1.0000
  H   H430      1.0  0.37805  0.82563  0.34219  1.0000
  H   H431      1.0  0.41405  0.57728  0.35773  1.0000
  H   H432      1.0  0.35291  0.50917  0.09587  1.0000
  C   C426      1.0  0.47103  0.74887  0.27156  1.0000
  C   C427      1.0  0.27587  0.83109  0.31682  1.0000
  H   H433      1.0  0.45612  0.86975  0.19950  1.0000
  C   C428      1.0  0.40179  0.98273  0.00578  1.0000
  C   C429      1.0  0.28994  0.84109  0.37087  1.0000
  H   H434      1.0  0.45327  0.94584  0.03643  1.0000
  C   C430      1.0  0.42031  0.58756  0.28929  1.0000
  N   N39       1.0  0.41005  0.54606  0.46550  1.0000
  C   C431      1.0  0.44888  0.87782  0.13195  1.0000
  H   H435      1.0  0.43033  0.56623  0.44479  1.0000
  Fe  Fe73      1.0  0.48523  0.85153  0.22250  1.0000
  C   C432      1.0  0.31110  0.86072  0.00594  1.0000
  C   C433      1.0  0.24543  0.74044  0.26439  1.0000
  H   H436      1.0  0.45612  0.61878  0.32043  1.0000
  H   H437      1.0  0.43526  0.60753  0.24853  1.0000
  C   C434      1.0  0.31165  0.85897  0.03490  1.0000
  H   H438      1.0  0.39897  0.52096  0.44510  1.0000
  C   C435      1.0  0.48611  0.86620  0.35419  1.0000
  H   H439      1.0  0.29174  0.89851  0.05378  1.0000
  C   C436      1.0  0.48648  0.86918  0.11354  1.0000
  S   S142      1.0  0.39112  0.49992  0.99451  1.0000
  C   C437      1.0  0.29961  0.49729  0.36257  1.0000
  S   S143      1.0  0.48502  0.64268  0.29155  1.0000
  S   S144      1.0  0.33196  0.49407  0.32844  1.0000
  H   H440      1.0  0.45892  0.90802  0.09860  1.0000
  H   H441      1.0  0.48095  0.96114  0.01346  1.0000
  H   H442      1.0  0.32496  0.50939  0.99799  1.0000
  H   H443      1.0  0.41393  0.94230  0.01055  1.0000
  C   C438      1.0  0.28388  0.50720  0.33098  1.0000
  H   H444      1.0  0.30323  0.89671  0.00442  1.0000
  C   C439      1.0  0.42692  0.91439  0.99243  1.0000
  S   S145      1.0  0.39258  0.96070  0.99222  1.0000
  S   S146      1.0  0.38629  0.91661  0.48822  1.0000
  H   H445      1.0  0.44210  0.58475  0.48757  1.0000
  H   H446      1.0  0.48662  0.63770  0.15692  1.0000
  H   H447      1.0  0.43075  0.97375  0.98902  1.0000
  C   C440      1.0  0.47159  0.97657  0.98840  1.0000
  H   H448      1.0  0.43950  0.84329  0.85938  1.0000
  Fe  Fe74      1.0  0.38946  0.90778  0.53122  1.0000
  H   H449      1.0  0.25673  0.50110  0.77991  1.0000
  S   S147      1.0  0.41003  0.90010  0.54795  1.0000
  Fe  Fe75      1.0  0.35750  0.90951  0.55247  1.0000
  S   S148      1.0  0.35140  0.91900  0.51104  1.0000
  S   S149      1.0  0.34251  0.90493  0.59268  1.0000
  H   H450      1.0  0.44711  0.60719  0.91649  1.0000
  S   S150      1.0  0.33908  0.87379  0.95284  1.0000
  Fe  Fe76      1.0  0.38014  0.93679  0.51121  1.0000
  H   H451      1.0  0.31932  0.90782  0.55027  1.0000
  S   S151      1.0  0.36202  0.88807  0.53195  1.0000
  S   S152      1.0  0.38545  0.92893  0.55404  1.0000
  Fe  Fe77      1.0  0.44275  0.65362  0.73691  1.0000
  S   S153      1.0  0.46117  0.64224  0.74961  1.0000
  S   S154      1.0  0.41423  0.63662  0.72748  1.0000
  Fe  Fe78      1.0  0.47147  0.69093  0.73445  1.0000
  H   H452      1.0  0.47931  0.85577  0.58739  1.0000
  S   S155      1.0  0.45872  0.66902  0.70193  1.0000
  S   S156      1.0  0.45382  0.67617  0.76806  1.0000
  Fe  Fe79      1.0  0.30716  0.52858  0.76934  1.0000
  S   S157      1.0  0.28348  0.53514  0.76342  1.0000
  Fe  Fe80      1.0  0.34677  0.54837  0.78216  1.0000
  S   S158      1.0  0.35116  0.52478  0.77172  1.0000
  S   S159      1.0  0.37100  0.57116  0.80004  1.0000
  Fe  Fe81      1.0  0.33299  0.52028  0.73432  1.0000
  C   C441      1.0  0.44650  0.61571  0.87418  1.0000
  Fe  Fe82      1.0  0.32785  0.51033  0.79681  1.0000
  Fe  Fe83      1.0  0.35810  0.89854  0.49029  1.0000
  S   S160      1.0  0.32981  0.54494  0.74354  1.0000
  S   S161      1.0  0.32419  0.53421  0.80911  1.0000
  H   H453      1.0  0.36068  0.52597  0.63908  1.0000
  S   S162      1.0  0.46812  0.82210  0.70730  1.0000
  C   C442      1.0  0.38199  0.53422  0.91501  1.0000
  S   S163      1.0  0.45873  0.82530  0.77315  1.0000
  Fe  Fe84      1.0  0.47579  0.81551  0.74986  1.0000
  S   S164      1.0  0.47209  0.78835  0.76511  1.0000
  Fe  Fe85      1.0  0.45290  0.83352  0.73120  1.0000
  S   S165      1.0  0.42738  0.83106  0.71177  1.0000
  H   H454      1.0  0.28974  0.53636  0.70608  1.0000
  Fe  Fe86      1.0  0.32426  0.83691  0.72451  1.0000
  S   S166      1.0  0.32385  0.81081  0.73536  1.0000
  S   S167      1.0  0.33010  0.84353  0.67811  1.0000
  Fe  Fe87      1.0  0.32164  0.84541  0.78728  1.0000
  S   S168      1.0  0.32059  0.81983  0.80091  1.0000
  S   S169      1.0  0.32643  0.86802  0.81883  1.0000
  Fe  Fe88      1.0  0.34207  0.82506  0.77156  1.0000
  S   S170      1.0  0.36619  0.82350  0.79019  1.0000
  Fe  Fe89      1.0  0.30198  0.80741  0.76358  1.0000
  S   S171      1.0  0.28085  0.77917  0.76788  1.0000
  S   S172      1.0  0.34395  0.85111  0.75915  1.0000
  S   S173      1.0  0.30150  0.83305  0.75131  1.0000
  S   S174      1.0  0.42240  0.51820  0.55096  1.0000
  Fe  Fe90      1.0  0.39659  0.49875  0.53347  1.0000
  S   S175      1.0  0.45369  0.58215  0.95661  1.0000
  C   C443      1.0  0.43621  0.53112  0.52592  1.0000
  C   C444      1.0  0.44936  0.54740  0.53410  1.0000
  C   C445      1.0  0.45946  0.55855  0.51389  1.0000
  C   C446      1.0  0.31357  0.84989  0.54589  1.0000
  C   C447      1.0  0.31584  0.87445  0.51862  1.0000
  N   N40       1.0  0.28427  0.51029  0.69284  1.0000
  H   H455      1.0  0.45133  0.55164  0.55594  1.0000
  H   H456      1.0  0.46901  0.57141  0.52015  1.0000
  H   H457      1.0  0.33488  0.51868  0.92235  1.0000
  C   C448      1.0  0.29315  0.52804  0.69248  1.0000
  C   C449      1.0  0.41065  0.82944  0.73388  1.0000
  C   C450      1.0  0.41243  0.82831  0.76291  1.0000
  C   C451      1.0  0.39870  0.82648  0.77993  1.0000
  C   C452      1.0  0.38316  0.82591  0.76811  1.0000
  C   C453      1.0  0.38143  0.82716  0.73910  1.0000
  C   C454      1.0  0.39512  0.82884  0.72204  1.0000
  H   H458      1.0  0.42435  0.82881  0.77224  1.0000
  H   H459      1.0  0.40008  0.82551  0.80234  1.0000
  H   H460      1.0  0.36947  0.82665  0.72981  1.0000
  H   H461      1.0  0.39361  0.82960  0.69960  1.0000
  H   H462      1.0  0.44798  0.86628  0.61435  1.0000
  C   C455      1.0  0.25828  0.76442  0.76375  1.0000
  C   C456      1.0  0.30701  0.53572  0.67500  1.0000
  C   C457      1.0  0.31772  0.85890  0.52103  1.0000
  H   H463      1.0  0.42757  0.96438  0.50757  1.0000
  C   C458      1.0  0.25307  0.74663  0.76930  1.0000
  N   N41       1.0  0.46580  0.87730  0.64939  1.0000
  C   C459      1.0  0.25053  0.50962  0.77528  1.0000
  C   C460      1.0  0.26055  0.52672  0.76746  1.0000
  C   C461      1.0  0.25205  0.53750  0.76164  1.0000
  H   H464      1.0  0.37779  0.54205  0.82386  1.0000
  H   H465      1.0  0.25958  0.55075  0.75558  1.0000
  H   H466      1.0  0.37566  0.51538  0.88104  1.0000
  C   C462      1.0  0.46795  0.73842  0.75837  1.0000
  C   C463      1.0  0.46694  0.75391  0.76760  1.0000
  C   C464      1.0  0.47354  0.76913  0.75186  1.0000
  H   H467      1.0  0.46294  0.72695  0.77088  1.0000
  C   C465      1.0  0.28912  0.49981  0.67661  1.0000
  C   C466      1.0  0.42518  0.55674  0.97814  1.0000
  C   C467      1.0  0.40262  0.61828  0.74765  1.0000
  C   C468      1.0  0.38579  0.60667  0.73845  1.0000
  C   C469      1.0  0.37615  0.59192  0.75387  1.0000
  C   C470      1.0  0.38315  0.58887  0.77902  1.0000
  C   C471      1.0  0.40003  0.60043  0.78816  1.0000
  C   C472      1.0  0.40982  0.61498  0.77240  1.0000
  H   H468      1.0  0.38007  0.60917  0.71943  1.0000
  H   H469      1.0  0.36314  0.58318  0.74672  1.0000
  H   H470      1.0  0.40552  0.59819  0.80761  1.0000
  H   H471      1.0  0.42275  0.62385  0.77971  1.0000
  C   C473      1.0  0.33578  0.87268  0.91552  1.0000
  C   C474      1.0  0.34187  0.88748  0.89917  1.0000
  C   C475      1.0  0.33886  0.88579  0.86971  1.0000
  C   C476      1.0  0.33012  0.86931  0.85605  1.0000
  C   C477      1.0  0.32430  0.85451  0.87238  1.0000
  C   C478      1.0  0.32690  0.85622  0.90188  1.0000
  H   H472      1.0  0.34864  0.90025  0.90920  1.0000
  H   H473      1.0  0.34331  0.89736  0.85740  1.0000
  H   H474      1.0  0.31741  0.84175  0.86233  1.0000
  H   H475      1.0  0.32207  0.84464  0.91418  1.0000
  C   C479      1.0  0.33905  0.88776  0.61627  1.0000
  C   C480      1.0  0.34184  0.87316  0.60877  1.0000
  C   C481      1.0  0.33845  0.85959  0.62768  1.0000
  C   C482      1.0  0.33291  0.86067  0.65479  1.0000
  C   C483      1.0  0.33030  0.87536  0.66242  1.0000
  C   C484      1.0  0.33312  0.88869  0.64312  1.0000
  H   H476      1.0  0.34638  0.87218  0.58826  1.0000
  H   H477      1.0  0.34050  0.84828  0.62149  1.0000
  H   H478      1.0  0.32595  0.87638  0.68310  1.0000
  H   H479      1.0  0.33083  0.89987  0.64919  1.0000
  N   N42       1.0  0.44417  0.99094  0.51836  1.0000
  H   H480      1.0  0.41467  0.99278  0.96764  1.0000
  H   H481      1.0  0.44141  0.92891  0.95816  1.0000
  C   C485      1.0  0.44421  0.90965  0.53847  1.0000
  C   C486      1.0  0.42996  0.91360  0.53452  1.0000
  C   C487      1.0  0.35321  0.50122  0.61710  1.0000
  H   H482      1.0  0.43536  0.64255  0.65415  1.0000
  C   C488      1.0  0.40879  0.55073  0.51495  1.0000
  H   H483      1.0  0.44291  0.89826  0.54983  1.0000
  C   C489      1.0  0.34384  0.49841  0.92406  1.0000
  H   H484      1.0  0.36095  0.50685  0.59934  1.0000
  N   N43       1.0  0.36310  0.85482  0.85800  1.0000
  C   C490      1.0  0.36852  0.86654  0.88024  1.0000
  C   C491      1.0  0.35661  0.83731  0.86227  1.0000
  C   C492      1.0  0.36717  0.86078  0.90772  1.0000
  C   C493      1.0  0.35493  0.83109  0.88947  1.0000
  C   C494      1.0  0.36018  0.84294  0.91231  1.0000
  C   C495      1.0  0.36430  0.86087  0.82930  1.0000
  H   H485      1.0  0.37332  0.88039  0.87687  1.0000
  H   H486      1.0  0.35242  0.82807  0.84451  1.0000
  H   H487      1.0  0.37078  0.87007  0.92535  1.0000
  H   H488      1.0  0.34936  0.81718  0.89270  1.0000
  H   H489      1.0  0.35855  0.83835  0.93355  1.0000
  H   H490      1.0  0.37493  0.85921  0.81876  1.0000
  H   H491      1.0  0.35199  0.85311  0.81731  1.0000
  H   H492      1.0  0.36619  0.87466  0.82850  1.0000
  C   C496      1.0  0.30275  0.50707  0.65859  1.0000
  N   N44       1.0  0.42647  0.77895  0.74284  1.0000
  C   C497      1.0  0.43365  0.76854  0.73233  1.0000
  C   C498      1.0  0.42135  0.78867  0.72531  1.0000
  C   C499      1.0  0.43676  0.76840  0.70381  1.0000
  C   C500      1.0  0.42410  0.78873  0.69661  1.0000
  C   C501      1.0  0.43201  0.77864  0.68587  1.0000
  C   C502      1.0  0.42402  0.77933  0.77301  1.0000
  H   H493      1.0  0.43748  0.76065  0.74621  1.0000
  H   H494      1.0  0.41530  0.79665  0.73348  1.0000
  H   H495      1.0  0.44306  0.76058  0.69585  1.0000
  C   C503      1.0  0.48347  0.90483  0.61499  1.0000
  H   H496      1.0  0.43453  0.77883  0.66376  1.0000
  H   H497      1.0  0.42100  0.79038  0.77939  1.0000
  H   H498      1.0  0.41329  0.76696  0.77889  1.0000
  H   H499      1.0  0.43613  0.78107  0.78492  1.0000
  N   N45       1.0  0.38086  0.89776  0.63774  1.0000
  C   C504      1.0  0.37577  0.88647  0.65930  1.0000
  C   C505      1.0  0.38708  0.89354  0.61414  1.0000
  C   C506      1.0  0.37634  0.87023  0.65717  1.0000
  C   C507      1.0  0.38784  0.87743  0.61129  1.0000
  C   C508      1.0  0.38234  0.86568  0.63292  1.0000
  C   C509      1.0  0.38028  0.91477  0.64039  1.0000
  H   H500      1.0  0.37062  0.88968  0.67791  1.0000
  H   H501      1.0  0.39131  0.90255  0.59714  1.0000
  H   H502      1.0  0.37154  0.86101  0.67382  1.0000
  H   H503      1.0  0.39252  0.87410  0.59224  1.0000
  H   H504      1.0  0.38250  0.85298  0.63081  1.0000
  H   H505      1.0  0.37792  0.91927  0.61956  1.0000
  H   H506      1.0  0.36943  0.91401  0.65335  1.0000
  H   H507      1.0  0.39266  0.92455  0.65004  1.0000
  N   N46       1.0  0.42828  0.61833  0.67440  1.0000
  C   C510      1.0  0.41551  0.60544  0.68805  1.0000
  C   C511      1.0  0.44493  0.62002  0.67659  1.0000
  C   C512      1.0  0.45953  0.87721  0.62257  1.0000
  C   C513      1.0  0.44929  0.60908  0.69366  1.0000
  H   H508      1.0  0.40311  0.54588  0.53479  1.0000
  C   C514      1.0  0.42393  0.62994  0.65649  1.0000
  C   C515      1.0  0.31172  0.52515  0.65782  1.0000
  H   H509      1.0  0.45500  0.63003  0.66540  1.0000
  N   N47       1.0  0.47658  0.61104  0.86847  1.0000
  H   H510      1.0  0.46106  0.75411  0.78721  1.0000
  C   C516      1.0  0.40228  0.54058  0.49028  1.0000
  H   H511      1.0  0.47058  0.89862  0.94390  1.0000
  H   H512      1.0  0.41388  0.63314  0.66602  1.0000
  H   H513      1.0  0.48674  0.55662  0.98806  1.0000
  C   C517      1.0  0.30601  0.87217  0.56491  1.0000
  C   C518      1.0  0.46979  0.61648  0.84623  1.0000
  C   C519      1.0  0.45330  0.60979  0.89654  1.0000
  H   H514      1.0  0.42866  0.57454  0.53309  1.0000
  H   H515      1.0  0.39185  0.98165  0.54675  1.0000
  H   H516      1.0  0.36955  0.51975  0.83441  1.0000
  H   H517      1.0  0.29608  0.89632  0.54623  1.0000
  S   S176      1.0  0.48630  0.87146  0.81298  1.0000
  H   H518      1.0  0.48097  0.65795  0.58852  1.0000
  H   H519      1.0  0.26284  0.51066  0.71401  1.0000
  S   S177      1.0  0.39378  0.96428  0.49367  1.0000
  C   C520      1.0  0.37650  0.55521  0.87546  1.0000
  C   C521      1.0  0.48069  0.89087  0.65939  1.0000
  Fe  Fe91      1.0  0.47358  0.66567  0.77905  1.0000
  C   C522      1.0  0.45740  0.98012  0.98152  1.0000
  C   C523      1.0  0.34313  0.50508  0.66318  1.0000
  H   H520      1.0  0.32271  0.85410  0.50385  1.0000
  C   C524      1.0  0.45730  0.92191  0.98679  1.0000
  C   C525      1.0  0.48463  0.65261  0.63177  1.0000
  C   C526      1.0  0.46163  0.93479  0.51197  1.0000
  N   N48       1.0  0.45793  0.86635  0.88008  1.0000
  C   C527      1.0  0.42309  0.56679  0.51399  1.0000
  Fe  Fe92      1.0  0.35483  0.89502  0.98644  1.0000
  H   H521      1.0  0.45229  0.86023  0.83627  1.0000
  H   H522      1.0  0.48207  0.70052  0.80790  1.0000
  H   H523      1.0  0.43097  0.49442  0.98007  1.0000
  C   C528      1.0  0.33722  0.50904  0.91030  1.0000
  H   H524      1.0  0.47049  0.55895  0.96544  1.0000
  H   H525      1.0  0.46262  0.61077  0.69568  1.0000
  C   C529      1.0  0.48105  0.76855  0.72652  1.0000
  H   H526      1.0  0.46570  0.85623  0.67288  1.0000
  C   C530      1.0  0.35302  0.51205  0.63973  1.0000
  H   H527      1.0  0.45419  0.51733  0.95469  1.0000
  H   H528      1.0  0.47292  0.65646  0.88506  1.0000
  H   H529      1.0  0.41913  0.62363  0.63547  1.0000
  H   H530      1.0  0.44985  0.62411  0.83150  1.0000
  H   H531      1.0  0.45527  0.90332  0.90223  1.0000
  H   H532      1.0  0.48242  0.84799  0.63662  1.0000
  H   H533      1.0  0.43969  0.58791  0.72210  1.0000
  C   C531      1.0  0.46634  0.86363  0.90313  1.0000
  Fe  Fe93      1.0  0.48098  0.59803  0.97289  1.0000
  S   S178      1.0  0.38272  0.91327  0.98309  1.0000
  C   C532      1.0  0.43382  0.97297  0.52639  1.0000
  H   H534      1.0  0.35582  0.53090  0.83452  1.0000
  C   C533      1.0  0.47103  0.87516  0.92642  1.0000
  H   H535      1.0  0.42037  0.55320  0.95664  1.0000
  H   H536      1.0  0.40931  0.58467  0.71723  1.0000
  H   H537      1.0  0.44864  0.95000  0.49641  1.0000
  H   H538      1.0  0.38357  0.52566  0.93046  1.0000
  S   S179      1.0  0.47452  0.86011  0.73622  1.0000
  H   H539      1.0  0.46371  0.89057  0.58336  1.0000
  C   C534      1.0  0.39964  0.99151  0.53270  1.0000
  C   C535      1.0  0.46006  0.92022  0.52712  1.0000
  S   S180      1.0  0.47667  0.66369  0.82673  1.0000
  H   H540      1.0  0.26278  0.74222  0.77580  1.0000
  H   H541      1.0  0.38725  0.55538  0.94482  1.0000
  H   H542      1.0  0.32845  0.51561  0.87088  1.0000
  C   C536      1.0  0.37748  0.52846  0.88703  1.0000
  C   C537      1.0  0.45832  0.89211  0.90260  1.0000
  H   H543      1.0  0.42038  0.79683  0.68298  1.0000
  C   C538      1.0  0.46840  0.60746  0.89324  1.0000
  C   C539      1.0  0.44108  0.57095  0.98409  1.0000
  N   N49       1.0  0.30994  0.88083  0.54036  1.0000
  H   H544      1.0  0.47101  0.91705  0.52994  1.0000
  S   S181      1.0  0.34298  0.51973  0.69035  1.0000
  C   C540      1.0  0.45182  0.52006  0.97597  1.0000
  C   C541      1.0  0.43162  0.92829  0.51969  1.0000
  C   C542      1.0  0.45382  0.88032  0.87964  1.0000
  H   H545      1.0  0.31525  0.83798  0.54823  1.0000
  H   H546      1.0  0.38238  0.57432  0.90931  1.0000
  C   C543      1.0  0.30760  0.85650  0.56796  1.0000
  C   C544      1.0  0.43644  0.59629  0.70842  1.0000
  S   S182      1.0  0.47605  0.93282  0.96858  1.0000
  H   H547      1.0  0.43501  0.61796  0.87659  1.0000
  C   C545      1.0  0.38386  0.55084  0.92311  1.0000
  H   H548      1.0  0.47996  0.66169  0.64007  1.0000
  C   C546      1.0  0.46828  0.89095  0.60497  1.0000
  C   C547      1.0  0.45473  0.61901  0.84879  1.0000
  H   H549      1.0  0.42307  0.97214  0.53965  1.0000
  H   H550      1.0  0.48604  0.89056  0.68025  1.0000
  H   H551      1.0  0.30211  0.87764  0.58260  1.0000
  S   S183      1.0  0.30947  0.50356  0.75810  1.0000
  H   H552      1.0  0.27541  0.50152  0.73304  1.0000
  H   H553      1.0  0.40231  0.60412  0.68632  1.0000
  H   H554      1.0  0.32287  0.53087  0.64496  1.0000
  Fe  Fe94      1.0  0.48186  0.85137  0.77694  1.0000
  H   H555      1.0  0.46188  0.84791  0.85369  1.0000
  C   C548      1.0  0.47522  0.54951  0.97380  1.0000
  S   S184      1.0  0.34806  0.50122  0.96111  1.0000
  C   C549      1.0  0.46695  0.88947  0.92610  1.0000
  H   H556      1.0  0.47368  0.60305  0.91083  1.0000
  H   H557      1.0  0.47975  0.54401  0.95623  1.0000
  H   H558      1.0  0.44718  0.88249  0.86135  1.0000
  H   H559      1.0  0.31937  0.88147  0.49933  1.0000
  S   S185      1.0  0.37283  0.50372  0.53413  1.0000
  C   C550      1.0  0.45254  0.85377  0.85629  1.0000
  S   S186      1.0  0.47909  0.71938  0.72177  1.0000
  H   H560      1.0  0.45348  0.86716  0.68719  1.0000
  H   H561      1.0  0.24908  0.78335  0.75100  1.0000
  H   H562      1.0  0.37411  0.56337  0.86008  1.0000
  N   N50       1.0  0.37478  0.53893  0.86772  1.0000
  H   H563      1.0  0.30894  0.90143  0.51588  1.0000
  C   C551      1.0  0.41942  0.59440  0.70558  1.0000
  C   C552      1.0  0.47583  0.73796  0.73334  1.0000
  Fe  Fe95      1.0  0.47802  0.65900  0.71629  1.0000
  C   C553      1.0  0.38113  0.56144  0.90323  1.0000
  C   C554      1.0  0.30848  0.89740  0.53799  1.0000
  C   C555      1.0  0.33360  0.50737  0.88104  1.0000
  C   C556      1.0  0.45701  0.86259  0.66747  1.0000
  H   H564      1.0  0.44492  0.85253  0.65735  1.0000
  C   C557      1.0  0.33622  0.49476  0.86512  1.0000
  H   H565      1.0  0.31436  0.54976  0.67542  1.0000
  H   H566      1.0  0.30479  0.84988  0.58771  1.0000
  H   H567      1.0  0.30684  0.49879  0.64611  1.0000
  H   H568      1.0  0.42068  0.93142  0.51671  1.0000
  C   C558      1.0  0.48228  0.75313  0.71749  1.0000
  C   C559      1.0  0.44745  0.93887  0.50842  1.0000
  H   H569      1.0  0.44211  0.96784  0.53789  1.0000
  C   C560      1.0  0.27010  0.50249  0.71189  1.0000
  C   C561      1.0  0.48526  0.65046  0.60245  1.0000
  H   H570      1.0  0.46989  0.85276  0.90334  1.0000
  C   C562      1.0  0.24544  0.76979  0.75534  1.0000
  H   H571      1.0  0.39122  0.52809  0.49112  1.0000
  H   H572      1.0  0.47636  0.61958  0.82667  1.0000
  C   C563      1.0  0.40235  0.98654  0.50586  1.0000
  C   C564      1.0  0.36931  0.53259  0.83874  1.0000
  H   H573      1.0  0.47817  0.87323  0.94429  1.0000
  C   C565      1.0  0.43378  0.52568  0.49771  1.0000
  C   C566      1.0  0.44183  0.92230  0.97718  1.0000
  C   C567      1.0  0.48468  0.65559  0.87930  1.0000
  H   H574      1.0  0.48364  0.98309  0.97791  1.0000
  H   H575      1.0  0.41510  0.91475  0.98487  1.0000
  H   H576      1.0  0.42405  0.51304  0.49128  1.0000
  S   S187      1.0  0.48119  0.94803  0.49732  1.0000
  H   H577      1.0  0.45835  0.98958  0.96585  1.0000
  H   H578      1.0  0.30779  0.87591  0.97242  1.0000
  H   H579      1.0  0.48620  0.78005  0.71409  1.0000
  C   C568      1.0  0.43059  0.57256  0.48845  1.0000
  H   H580      1.0  0.56374  0.24002  0.24484  1.0000
  C   C569      1.0  0.55864  0.11416  0.05597  1.0000
  Fe  Fe96      1.0  0.59627  0.11160  0.99854  1.0000
  H   H581      1.0  0.52113  0.06388  0.07152  1.0000
  Fe  Fe97      1.0  0.62230  0.10679  0.03763  1.0000
  C   C570      1.0  0.63676  0.05537  0.46279  1.0000
  S   S188      1.0  0.63808  0.11394  0.07971  1.0000
  H   H582      1.0  0.61605  0.09209  0.41682  1.0000
  Fe  Fe98      1.0  0.65021  0.49336  0.20993  1.0000
  H   H583      1.0  0.66243  0.07378  0.45319  1.0000
  S   S189      1.0  0.64872  0.11877  0.44303  1.0000
  S   S190      1.0  0.59320  0.09395  0.03442  1.0000
  H   H584      1.0  0.72390  0.48405  0.17688  1.0000
  Fe  Fe99      1.0  0.65420  0.17384  0.22914  1.0000
  S   S191      1.0  0.65388  0.19958  0.24197  1.0000
  S   S192      1.0  0.64315  0.16560  0.18356  1.0000
  Fe  Fe100     1.0  0.66392  0.16832  0.29032  1.0000
  S   S193      1.0  0.66447  0.19360  0.30573  1.0000
  S   S194      1.0  0.66975  0.15106  0.32176  1.0000
  Fe  Fe101     1.0  0.63993  0.18575  0.27938  1.0000
  S   S195      1.0  0.61642  0.18501  0.30085  1.0000
  Fe  Fe102     1.0  0.67883  0.20553  0.26706  1.0000
  S   S196      1.0  0.69987  0.23392  0.27333  1.0000
  S   S197      1.0  0.63871  0.15981  0.26565  1.0000
  S   S198      1.0  0.67999  0.18048  0.25268  1.0000
  Fe  Fe103     1.0  0.59545  0.07525  0.00225  1.0000
  S   S199      1.0  0.52203  0.19304  0.29885  1.0000
  H   H585      1.0  0.59495  0.43894  0.20067  1.0000
  C   C571      1.0  0.55040  0.99423  0.99963  1.0000
  S   S200      1.0  0.51248  0.19788  0.23264  1.0000
  Fe  Fe104     1.0  0.53092  0.18975  0.25637  1.0000
  S   S201      1.0  0.55836  0.20285  0.24228  1.0000
  Fe  Fe105     1.0  0.50237  0.19947  0.27465  1.0000
  C   C572      1.0  0.52295  0.09913  0.05863  1.0000
  S   S202      1.0  0.51364  0.16112  0.25192  1.0000
  S   S203      1.0  0.66168  0.47378  0.21023  1.0000
  S   S204      1.0  0.65470  0.46986  0.27805  1.0000
  H   H586      1.0  0.54180  0.27405  0.30389  1.0000
  Fe  Fe106     1.0  0.63958  0.45830  0.23755  1.0000
  S   S205      1.0  0.62267  0.42957  0.22829  1.0000
  H   H587      1.0  0.50560  0.12995  0.45053  1.0000
  S   S206      1.0  0.52409  0.33853  0.30959  1.0000
  H   H588      1.0  0.71790  0.46377  0.30419  1.0000
  S   S207      1.0  0.52754  0.34985  0.24394  1.0000
  Fe  Fe107     1.0  0.51440  0.32473  0.26748  1.0000
  S   S208      1.0  0.51816  0.30064  0.25148  1.0000
  Fe  Fe108     1.0  0.53485  0.36350  0.28626  1.0000
  S   S209      1.0  0.55831  0.38774  0.30217  1.0000
  S   S210      1.0  0.51062  0.36751  0.28847  1.0000
  C   C573      1.0  0.53649  0.24328  0.32494  1.0000
  S   S211      1.0  0.51304  0.44176  0.04998  1.0000
  H   H589      1.0  0.49522  0.39238  0.17330  1.0000
  H   H590      1.0  0.52484  0.48316  0.04643  1.0000
  C   C574      1.0  0.55903  0.24765  0.25771  1.0000
  C   C575      1.0  0.52456  0.44944  0.01977  1.0000
  C   C576      1.0  0.54263  0.45729  0.02172  1.0000
  H   H591      1.0  0.60973  0.03948  0.46849  1.0000
  H   H592      1.0  0.52947  0.22884  0.32323  1.0000
  H   H593      1.0  0.52658  0.24809  0.32982  1.0000
  H   H594      1.0  0.54945  0.45781  0.04147  1.0000
  C   C577      1.0  0.64268  0.07803  0.42938  1.0000
  H   H595      1.0  0.54971  0.22826  0.28878  1.0000
  C   C578      1.0  0.51686  0.39836  0.43721  1.0000
  C   C579      1.0  0.55097  0.24100  0.28261  1.0000
  C   C580      1.0  0.71903  0.47519  0.23759  1.0000
  H   H596      1.0  0.66939  0.08412  0.00165  1.0000
  C   C581      1.0  0.57628  0.39896  0.28156  1.0000
  C   C582      1.0  0.57887  0.39154  0.25680  1.0000
  C   C583      1.0  0.59332  0.40094  0.24095  1.0000
  C   C584      1.0  0.60509  0.41793  0.24941  1.0000
  C   C585      1.0  0.60240  0.42542  0.27401  1.0000
  C   C586      1.0  0.58813  0.41590  0.29013  1.0000
  H   H597      1.0  0.56985  0.37849  0.25003  1.0000
  H   H598      1.0  0.59535  0.39504  0.22199  1.0000
  H   H599      1.0  0.61136  0.43851  0.28066  1.0000
  H   H600      1.0  0.58617  0.42171  0.30921  1.0000
  C   C587      1.0  0.50228  0.24373  0.27866  1.0000
  C   C588      1.0  0.51096  0.24972  0.25398  1.0000
  C   C589      1.0  0.51538  0.26702  0.24583  1.0000
  C   C590      1.0  0.51141  0.27869  0.26232  1.0000
  N   N51       1.0  0.53143  0.08885  0.05385  1.0000
  H   H601      1.0  0.51429  0.24105  0.24115  1.0000
  H   H602      1.0  0.52209  0.27149  0.22671  1.0000
  S   S212      1.0  0.49451  0.36769  0.21415  1.0000
  C   C591      1.0  0.51857  0.13102  0.45489  1.0000
  C   C592      1.0  0.60075  0.19064  0.28454  1.0000
  C   C593      1.0  0.58483  0.18590  0.29709  1.0000
  C   C594      1.0  0.57174  0.18960  0.28434  1.0000
  C   C595      1.0  0.57462  0.19835  0.25915  1.0000
  C   C596      1.0  0.59060  0.20328  0.24672  1.0000
  C   C597      1.0  0.60360  0.19930  0.25926  1.0000
  H   H603      1.0  0.58258  0.17921  0.31669  1.0000
  H   H604      1.0  0.55948  0.18577  0.29409  1.0000
  H   H605      1.0  0.59290  0.21006  0.22723  1.0000
  H   H606      1.0  0.61585  0.20302  0.24949  1.0000
  C   C598      1.0  0.65306  0.12802  0.40913  1.0000
  C   C599      1.0  0.66756  0.12805  0.39627  1.0000
  C   C600      1.0  0.67201  0.13486  0.36962  1.0000
  C   C601      1.0  0.66225  0.14212  0.35505  1.0000
  C   C602      1.0  0.64764  0.14226  0.36773  1.0000
  C   C603      1.0  0.64298  0.13510  0.39464  1.0000
  H   H607      1.0  0.67552  0.12272  0.40702  1.0000
  H   H608      1.0  0.68326  0.13459  0.36027  1.0000
  H   H609      1.0  0.63991  0.14778  0.35679  1.0000
  H   H610      1.0  0.63173  0.13520  0.40420  1.0000
  C   C604      1.0  0.63896  0.12811  0.10859  1.0000
  C   C605      1.0  0.64890  0.12865  0.13310  1.0000
  C   C606      1.0  0.65026  0.13986  0.15629  1.0000
  C   C607      1.0  0.64180  0.15086  0.15524  1.0000
  C   C608      1.0  0.63190  0.15034  0.13068  1.0000
  C   C609      1.0  0.63044  0.13906  0.10758  1.0000
  H   H611      1.0  0.65556  0.12028  0.13428  1.0000
  H   H612      1.0  0.65792  0.14003  0.17490  1.0000
  H   H613      1.0  0.62533  0.15879  0.12947  1.0000
  H   H614      1.0  0.62281  0.13893  0.08895  1.0000
  C   C610      1.0  0.52168  0.06988  0.05089  1.0000
  H   H615      1.0  0.51823  0.37178  0.35031  1.0000
  H   H616      1.0  0.55684  0.01551  0.46694  1.0000
  C   C611      1.0  0.61357  0.05931  0.43820  1.0000
  H   H617      1.0  0.60752  0.07359  0.39229  1.0000
  C   C612      1.0  0.61137  0.48735  0.11101  1.0000
  H   H618      1.0  0.73254  0.49287  0.32811  1.0000
  H   H619      1.0  0.73008  0.45855  0.22065  1.0000
  H   H620      1.0  0.66483  0.15074  0.01418  1.0000
  H   H621      1.0  0.72736  0.22813  0.24492  1.0000
  C   C613      1.0  0.54682  0.26663  0.29122  1.0000
  H   H622      1.0  0.51800  0.36002  0.41909  1.0000
  C   C614      1.0  0.66840  0.12359  0.99530  1.0000
  H   H623      1.0  0.68483  0.17439  0.38501  1.0000
  C   C615      1.0  0.58340  0.02094  0.01287  1.0000
  H   H624      1.0  0.57258  0.11990  0.05414  1.0000
  C   C616      1.0  0.72229  0.49090  0.25185  1.0000
  C   C617      1.0  0.72224  0.24734  0.26790  1.0000
  H   H625      1.0  0.59702  0.44428  0.35315  1.0000
  S   S213      1.0  0.62461  0.08694  0.00733  1.0000
  C   C618      1.0  0.66971  0.14516  0.03150  1.0000
  H   H626      1.0  0.70092  0.49068  0.14817  1.0000
  C   C619      1.0  0.73185  0.46965  0.30799  1.0000
  C   C620      1.0  0.73279  0.24134  0.25354  1.0000
  Fe  Fe109     1.0  0.62974  0.10960  0.47865  1.0000
  S   S214      1.0  0.60087  0.09601  0.47280  1.0000
  C   C621      1.0  0.69907  0.21267  0.35349  1.0000
  C   C622      1.0  0.49063  0.13684  0.35899  1.0000
  C   C623      1.0  0.51585  0.44825  0.99390  1.0000
  C   C624      1.0  0.60643  0.45785  0.34951  1.0000
  C   C625      1.0  0.52521  0.39806  0.38951  1.0000
  S   S215      1.0  0.49935  0.14341  0.32522  1.0000
  C   C626      1.0  0.61910  0.05022  0.45741  1.0000
  H   H627      1.0  0.52521  0.12529  0.06500  1.0000
  H   H628      1.0  0.65311  0.49282  0.40751  1.0000
  C   C627      1.0  0.62855  0.48604  0.42597  1.0000
  H   H629      1.0  0.60223  0.47785  0.43791  1.0000
  N   N52       1.0  0.52185  0.11655  0.45389  1.0000
  C   C628      1.0  0.64866  0.06940  0.44877  1.0000
  C   C629      1.0  0.55006  0.12477  0.06012  1.0000
  C   C630      1.0  0.51592  0.38162  0.43997  1.0000
  H   H630      1.0  0.56483  0.13522  0.47070  1.0000
  S   S216      1.0  0.48881  0.32679  0.26832  1.0000
  H   H631      1.0  0.64118  0.04865  0.47814  1.0000
  H   H632      1.0  0.49501  0.09913  0.45003  1.0000
  H   H633      1.0  0.54674  0.43563  0.48273  1.0000
  C   C631      1.0  0.57997  0.00326  0.01667  1.0000
  H   H634      1.0  0.66968  0.17960  0.36443  1.0000
  H   H635      1.0  0.56596  0.47039  0.99975  1.0000
  N   N53       1.0  0.57067  0.16041  0.22481  1.0000
  C   C632      1.0  0.57762  0.15432  0.24596  1.0000
  C   C633      1.0  0.57992  0.16736  0.20173  1.0000
  C   C634      1.0  0.59436  0.15536  0.24454  1.0000
  C   C635      1.0  0.59669  0.16856  0.19961  1.0000
  C   C636      1.0  0.60391  0.16253  0.22119  1.0000
  C   C637      1.0  0.55290  0.15869  0.22630  1.0000
  H   H636      1.0  0.57044  0.14906  0.26448  1.0000
  H   H637      1.0  0.57443  0.17222  0.18500  1.0000
  H   H638      1.0  0.60007  0.15112  0.26182  1.0000
  H   H639      1.0  0.60420  0.17423  0.18153  1.0000
  H   H640      1.0  0.61695  0.16359  0.21989  1.0000
  H   H641      1.0  0.54975  0.16003  0.24835  1.0000
  H   H642      1.0  0.55112  0.16916  0.21473  1.0000
  H   H643      1.0  0.54363  0.14582  0.21737  1.0000
  N   N54       1.0  0.66968  0.12843  0.02307  1.0000
  C   C638      1.0  0.68237  0.18528  0.37634  1.0000
  C   C639      1.0  0.63921  0.48535  0.40498  1.0000
  H   H644      1.0  0.58968  0.46114  0.39353  1.0000
  H   H645      1.0  0.59922  0.47589  0.10853  1.0000
  H   H646      1.0  0.52197  0.41956  0.40944  1.0000
  N   N55       1.0  0.61418  0.46714  0.37619  1.0000
  C   C640      1.0  0.53185  0.14742  0.46191  1.0000
  C   C641      1.0  0.57032  0.02541  0.00250  1.0000
  H   H647      1.0  0.61753  0.48068  0.15234  1.0000
  N   N56       1.0  0.52407  0.38157  0.39230  1.0000
  H   H648      1.0  0.68157  0.19331  0.39434  1.0000
  C   C642      1.0  0.50267  0.27265  0.28693  1.0000
  C   C643      1.0  0.71666  0.19745  0.32365  1.0000
  H   H649      1.0  0.54583  0.47722  0.07648  1.0000
  C   C644      1.0  0.67131  0.10183  0.03590  1.0000
  C   C645      1.0  0.66979  0.09669  0.00767  1.0000
  S   S217      1.0  0.49145  0.39339  0.02515  1.0000
  C   C646      1.0  0.55485  0.27371  0.26648  1.0000
  C   C647      1.0  0.56090  0.26409  0.24958  1.0000
  H   H650      1.0  0.55596  0.28640  0.26021  1.0000
  H   H651      1.0  0.56699  0.26934  0.23020  1.0000
  C   C648      1.0  0.52731  0.37267  0.36811  1.0000
  Fe  Fe110     1.0  0.67605  0.48701  0.25057  1.0000
  H   H652      1.0  0.52849  0.40442  0.36965  1.0000
  H   H653      1.0  0.51154  0.37479  0.45921  1.0000
  H   H654      1.0  0.55901  0.16158  0.47337  1.0000
  C   C649      1.0  0.53829  0.11801  0.45895  1.0000
  C   C650      1.0  0.72010  0.21485  0.31958  1.0000
  H   H655      1.0  0.55582  0.08798  0.04912  1.0000
  C   C651      1.0  0.51954  0.37333  0.41714  1.0000
  H   H656      1.0  0.59613  0.03111  0.01814  1.0000
  H   H657      1.0  0.52780  0.06427  0.03588  1.0000
  C   C652      1.0  0.71134  0.22257  0.33469  1.0000
  H   H658      1.0  0.72307  0.19119  0.31150  1.0000
  H   H659      1.0  0.61633  0.45726  0.33551  1.0000
  S   S218      1.0  0.57361  0.04746  0.99742  1.0000
  N   N57       1.0  0.56978  0.41764  0.20240  1.0000
  C   C653      1.0  0.56771  0.42276  0.22880  1.0000
  C   C654      1.0  0.55700  0.40327  0.18923  1.0000
  C   C655      1.0  0.55257  0.41333  0.24276  1.0000
  C   C656      1.0  0.54164  0.39362  0.20252  1.0000
  C   C657      1.0  0.53949  0.39869  0.22949  1.0000
  C   C658      1.0  0.58586  0.42727  0.18813  1.0000
  H   H660      1.0  0.57797  0.43390  0.23954  1.0000
  H   H661      1.0  0.55868  0.39914  0.16839  1.0000
  H   H662      1.0  0.55120  0.41701  0.26407  1.0000
  H   H663      1.0  0.53146  0.38218  0.19217  1.0000
  H   H664      1.0  0.52776  0.39117  0.24017  1.0000
  H   H665      1.0  0.59272  0.41883  0.18486  1.0000
  H   H666      1.0  0.58308  0.43173  0.16758  1.0000
  H   H667      1.0  0.71354  0.23593  0.33092  1.0000
  S   S219      1.0  0.62734  0.47699  0.23455  1.0000
  H   H668      1.0  0.65202  0.08913  0.41894  1.0000
  H   H669      1.0  0.50830  0.06627  0.04221  1.0000
  C   C659      1.0  0.60363  0.46769  0.39674  1.0000
  N   N58       1.0  0.54472  0.25036  0.29875  1.0000
  H   H670      1.0  0.50900  0.09343  0.05979  1.0000
  H   H671      1.0  0.52909  0.15879  0.46296  1.0000
  H   H672      1.0  0.70584  0.46628  0.23162  1.0000
  C   C660      1.0  0.61920  0.08255  0.40481  1.0000
  H   H673      1.0  0.54637  0.24699  0.34249  1.0000
  H   H674      1.0  0.50916  0.08912  0.45864  1.0000
  H   H675      1.0  0.49947  0.28138  0.29987  1.0000
  Fe  Fe111     1.0  0.50254  0.35252  0.24696  1.0000
  C   C661      1.0  0.63178  0.47583  0.38003  1.0000
  H   H676      1.0  0.54092  0.10655  0.45815  1.0000
  H   H677      1.0  0.50191  0.44238  0.99232  1.0000
  S   S220      1.0  0.62514  0.12596  0.00372  1.0000
  C   C662      1.0  0.54907  0.09610  0.05297  1.0000
  S   S221      1.0  0.57978  0.12602  0.99149  1.0000
  H   H678      1.0  0.70173  0.17441  0.34570  1.0000
  Fe  Fe112     1.0  0.49931  0.34197  0.30962  1.0000
  C   C663      1.0  0.67146  0.11794  0.04323  1.0000
  C   C664      1.0  0.72969  0.26464  0.27884  1.0000
  H   H679      1.0  0.72175  0.26945  0.29017  1.0000
  S   S222      1.0  0.49617  0.22199  0.29003  1.0000
  N   N59       1.0  0.62531  0.07290  0.42422  1.0000
  H   H680      1.0  0.54080  0.37986  0.36147  1.0000
  C   C665      1.0  0.70452  0.18802  0.34298  1.0000
  C   C666      1.0  0.55198  0.46438  0.99805  1.0000
  H   H681      1.0  0.67206  0.09329  0.05208  1.0000
  H   H682      1.0  0.49131  0.25087  0.31402  1.0000
  H   H683      1.0  0.50832  0.09649  0.42347  1.0000
  H   H684      1.0  0.51326  0.40458  0.45432  1.0000
  C   C667      1.0  0.61064  0.47711  0.42193  1.0000
  H   H685      1.0  0.64014  0.47606  0.36329  1.0000
  H   H686      1.0  0.50271  0.14266  0.18231  1.0000
  C   C668      1.0  0.53209  0.11723  0.06168  1.0000
  H   H687      1.0  0.72923  0.22226  0.30426  1.0000
  H   H688      1.0  0.52513  0.35907  0.37258  1.0000
  H   H689      1.0  0.67250  0.12178  0.06526  1.0000
  H   H690      1.0  0.59979  0.05555  0.43484  1.0000
  C   C669      1.0  0.55263  0.46294  0.48651  1.0000
  Fe  Fe113     1.0  0.50298  0.16477  0.29327  1.0000
  Fe  Fe114     1.0  0.48900  0.41757  0.03930  1.0000
  C   C670      1.0  0.52160  0.40670  0.41189  1.0000
  C   C671      1.0  0.73284  0.47085  0.23138  1.0000
  Fe  Fe115     1.0  0.49444  0.16930  0.23090  1.0000
  C   C672      1.0  0.55383  0.01189  0.99587  1.0000
  C   C673      1.0  0.50790  0.09948  0.44606  1.0000
  H   H691      1.0  0.73550  0.44888  0.28681  1.0000
  C   C674      1.0  0.49809  0.25530  0.29493  1.0000
  C   C675      1.0  0.49428  0.13975  0.16366  1.0000
  C   C676      1.0  0.49094  0.12171  0.37040  1.0000
  H   H692      1.0  0.66107  0.14343  0.04924  1.0000
  N   N60       1.0  0.69593  0.19567  0.35765  1.0000
  H   H693      1.0  0.62925  0.08996  0.38991  1.0000
  C   C677      1.0  0.56391  0.01279  0.48400  1.0000
  S   S223      1.0  0.48824  0.11261  0.08951  1.0000
  H   H694      1.0  0.55732  0.13881  0.06179  1.0000
  H   H695      1.0  0.69175  0.21855  0.36415  1.0000
  C   C678      1.0  0.54859  0.14898  0.46763  1.0000
  H   H696      1.0  0.68301  0.15460  0.03824  1.0000
  C   C679      1.0  0.55188  0.13421  0.46601  1.0000
  H   H697      1.0  0.59980  0.46480  0.33808  1.0000
  H   H698      1.0  0.59018  0.00004  0.02491  1.0000
  C   C680      1.0  0.49024  0.36536  0.17714  1.0000
  H   H699      1.0  0.50638  0.12534  0.14264  1.0000
  C   C681      1.0  0.49093  0.37988  0.16235  1.0000
  H   H700      1.0  0.49626  0.11432  0.35846  1.0000
  C   C682      1.0  0.53754  0.49355  0.05169  1.0000
  C   C683      1.0  0.49631  0.12990  0.14107  1.0000
  C   C684      1.0  0.62175  0.49002  0.13592  1.0000
  C   C685      1.0  0.54938  0.49017  0.06852  1.0000
  Fe  Fe116     1.0  0.64365  0.48969  0.27390  1.0000
  S   S224      1.0  0.57315  0.46969  0.47293  1.0000
  H   H701      1.0  0.54838  0.13076  0.98934  1.0000
  H   H702      1.0  0.54985  0.40564  0.70793  1.0000
  C   C686      1.0  0.55807  0.11110  0.98691  1.0000
  H   H703      1.0  0.53252  0.04243  0.52670  1.0000
  H   H704      1.0  0.53562  0.47684  0.57499  1.0000
  Fe  Fe117     1.0  0.62825  0.10477  0.54310  1.0000
  Fe  Fe118     1.0  0.49940  0.16410  0.74579  1.0000
  S   S225      1.0  0.64595  0.11003  0.58277  1.0000
  C   C687      1.0  0.61443  0.45420  0.81051  1.0000
  H   H705      1.0  0.62217  0.44715  0.80381  1.0000
  H   H706      1.0  0.53535  0.41830  0.88532  1.0000
  S   S226      1.0  0.64097  0.11027  0.93389  1.0000
  S   S227      1.0  0.59917  0.09056  0.54129  1.0000
  C   C688      1.0  0.52775  0.38452  0.88050  1.0000
  Fe  Fe119     1.0  0.66503  0.16580  0.73546  1.0000
  S   S228      1.0  0.65889  0.18770  0.72110  1.0000
  S   S229      1.0  0.67055  0.14840  0.70378  1.0000
  Fe  Fe120     1.0  0.66287  0.17408  0.79846  1.0000
  S   S230      1.0  0.65633  0.19641  0.78715  1.0000
  S   S231      1.0  0.66317  0.17193  0.84647  1.0000
  Fe  Fe121     1.0  0.63859  0.17842  0.75340  1.0000
  S   S232      1.0  0.60986  0.16946  0.74388  1.0000
  Fe  Fe122     1.0  0.67760  0.20386  0.75628  1.0000
  S   S233      1.0  0.69564  0.23312  0.75217  1.0000
  S   S234      1.0  0.64389  0.15567  0.76619  1.0000
  S   S235      1.0  0.68508  0.18242  0.76910  1.0000
  Fe  Fe123     1.0  0.50361  0.16944  0.81092  1.0000
  S   S236      1.0  0.51945  0.19836  0.80732  1.0000
  C   C689      1.0  0.50057  0.30887  0.67215  1.0000
  H   H707      1.0  0.72697  0.22667  0.76022  1.0000
  S   S237      1.0  0.51490  0.19271  0.73829  1.0000
  Fe  Fe124     1.0  0.53292  0.19153  0.77296  1.0000
  S   S238      1.0  0.56195  0.20680  0.77204  1.0000
  Fe  Fe125     1.0  0.50037  0.19782  0.77336  1.0000
  H   H708      1.0  0.60143  0.47303  0.89392  1.0000
  S   S239      1.0  0.51863  0.16286  0.77844  1.0000
  S   S240      1.0  0.66326  0.46780  0.71628  1.0000
  C   C690      1.0  0.50654  0.09846  0.91375  1.0000
  C   C691      1.0  0.53178  0.47003  0.51053  1.0000
  Fe  Fe126     1.0  0.64195  0.45693  0.74669  1.0000
  S   S241      1.0  0.62720  0.42799  0.75405  1.0000
  H   H709      1.0  0.63008  0.47869  0.91620  1.0000
  S   S242      1.0  0.52499  0.34476  0.80613  1.0000
  Fe  Fe127     1.0  0.67849  0.48711  0.75069  1.0000
  S   S243      1.0  0.51689  0.34402  0.73820  1.0000
  Fe  Fe128     1.0  0.51233  0.32400  0.77175  1.0000
  H   H710      1.0  0.68841  0.15437  0.60382  1.0000
  Fe  Fe129     1.0  0.52707  0.36428  0.77334  1.0000
  S   S244      1.0  0.54579  0.39258  0.76810  1.0000
  S   S245      1.0  0.50106  0.36369  0.78180  1.0000
  C   C692      1.0  0.66173  0.15519  0.57345  1.0000
  S   S246      1.0  0.50492  0.44647  0.53802  1.0000
  H   H711      1.0  0.52804  0.15206  0.68064  1.0000
  C   C693      1.0  0.49619  0.14299  0.90632  1.0000
  H   H712      1.0  0.69978  0.16822  0.65063  1.0000
  C   C694      1.0  0.48850  0.15063  0.65842  1.0000
  C   C695      1.0  0.55771  0.19123  0.70189  1.0000
  S   S247      1.0  0.65008  0.48990  0.65729  1.0000
  H   H713      1.0  0.55223  0.12668  0.53399  1.0000
  H   H714      1.0  0.64988  0.17381  0.60410  1.0000
  H   H715      1.0  0.51193  0.38698  0.97147  1.0000
  C   C696      1.0  0.49682  0.39067  0.70799  1.0000
  C   C697      1.0  0.63457  0.46386  0.85173  1.0000
  C   C698      1.0  0.48810  0.13767  0.67656  1.0000
  H   H716      1.0  0.53296  0.06747  0.98024  1.0000
  H   H717      1.0  0.70372  0.49318  0.65119  1.0000
  Fe  Fe130     1.0  0.49091  0.34256  0.74810  1.0000
  C   C699      1.0  0.56834  0.40175  0.76348  1.0000
  C   C700      1.0  0.57810  0.39207  0.76591  1.0000
  C   C701      1.0  0.59612  0.40022  0.76270  1.0000
  C   C702      1.0  0.60445  0.41802  0.75681  1.0000
  C   C703      1.0  0.59458  0.42755  0.75387  1.0000
  C   C704      1.0  0.57666  0.41949  0.75741  1.0000
  H   H718      1.0  0.57184  0.37840  0.77059  1.0000
  H   H719      1.0  0.60366  0.39274  0.76494  1.0000
  H   H720      1.0  0.60077  0.44119  0.74909  1.0000
  H   H721      1.0  0.56920  0.42708  0.75546  1.0000
  N   N61       1.0  0.71645  0.23967  0.82406  1.0000
  C   C705      1.0  0.51494  0.25101  0.76402  1.0000
  C   C706      1.0  0.52150  0.26931  0.76192  1.0000
  C   C707      1.0  0.51134  0.27832  0.76799  1.0000
  S   S248      1.0  0.55508  0.47398  0.94362  1.0000
  H   H722      1.0  0.52300  0.24440  0.75921  1.0000
  H   H723      1.0  0.53459  0.27657  0.75548  1.0000
  H   H724      1.0  0.58901  0.00264  0.54475  1.0000
  H   H725      1.0  0.71461  0.26998  0.74488  1.0000
  C   C708      1.0  0.59727  0.17956  0.75717  1.0000
  C   C709      1.0  0.57930  0.16977  0.75768  1.0000
  C   C710      1.0  0.56840  0.17784  0.76383  1.0000
  C   C711      1.0  0.57540  0.19583  0.76923  1.0000
  C   C712      1.0  0.59344  0.20552  0.76984  1.0000
  C   C713      1.0  0.60439  0.19740  0.76398  1.0000
  H   H726      1.0  0.57374  0.15597  0.75233  1.0000
  H   H727      1.0  0.55456  0.17027  0.76326  1.0000
  H   H728      1.0  0.59892  0.21946  0.77398  1.0000
  H   H729      1.0  0.61821  0.20506  0.76343  1.0000
  C   C714      1.0  0.64618  0.12730  0.90945  1.0000
  C   C715      1.0  0.65015  0.12442  0.88199  1.0000
  C   C716      1.0  0.65484  0.13769  0.86217  1.0000
  C   C717      1.0  0.65612  0.15422  0.86981  1.0000
  C   C718      1.0  0.65218  0.15710  0.89728  1.0000
  C   C719      1.0  0.64703  0.14370  0.91687  1.0000
  H   H730      1.0  0.64969  0.11185  0.87602  1.0000
  H   H731      1.0  0.65801  0.13528  0.84127  1.0000
  H   H732      1.0  0.65318  0.16984  0.90352  1.0000
  H   H733      1.0  0.64411  0.14620  0.93787  1.0000
  C   C720      1.0  0.65046  0.11987  0.61732  1.0000
  C   C721      1.0  0.64148  0.12871  0.62948  1.0000
  C   C722      1.0  0.64694  0.13721  0.65640  1.0000
  C   C723      1.0  0.66134  0.13684  0.67125  1.0000
  C   C724      1.0  0.66984  0.12766  0.65913  1.0000
  C   C725      1.0  0.66451  0.11934  0.63262  1.0000
  H   H734      1.0  0.63049  0.12913  0.61812  1.0000
  H   H735      1.0  0.64015  0.14416  0.66550  1.0000
  H   H736      1.0  0.68088  0.12714  0.67022  1.0000
  H   H737      1.0  0.67151  0.11253  0.62376  1.0000
  S   S249      1.0  0.49238  0.39532  0.52282  1.0000
  H   H738      1.0  0.51970  0.42633  0.50828  1.0000
  C   C726      1.0  0.55913  0.99538  0.49154  1.0000
  S   S250      1.0  0.62930  0.47409  0.73315  1.0000
  C   C727      1.0  0.52677  0.08469  0.51288  1.0000
  C   C728      1.0  0.53134  0.10148  0.52411  1.0000
  C   C729      1.0  0.51185  0.11028  0.89222  1.0000
  H   H739      1.0  0.71056  0.47218  0.72164  1.0000
  H   H740      1.0  0.56030  0.44052  0.54447  1.0000
  H   H741      1.0  0.51572  0.37126  0.93008  1.0000
  H   H742      1.0  0.51160  0.31250  0.65905  1.0000
  C   C730      1.0  0.54103  0.39381  0.69549  1.0000
  H   H743      1.0  0.52625  0.22159  0.87145  1.0000
  Fe  Fe131     1.0  0.60164  0.07604  0.50299  1.0000
  H   H744      1.0  0.66699  0.13185  0.97916  1.0000
  Fe  Fe132     1.0  0.60065  0.11127  0.51141  1.0000
  C   C731      1.0  0.52867  0.42067  0.92760  1.0000
  C   C732      1.0  0.71844  0.24680  0.75246  1.0000
  S   S251      1.0  0.50161  0.07163  0.98302  1.0000
  N   N62       1.0  0.52413  0.39417  0.69061  1.0000
  C   C733      1.0  0.49797  0.24131  0.77194  1.0000
  C   C734      1.0  0.51976  0.39875  0.66515  1.0000
  H   H745      1.0  0.53243  0.43461  0.92681  1.0000
  S   S252      1.0  0.50506  0.06964  0.50915  1.0000
  H   H746      1.0  0.49145  0.13065  0.94650  1.0000
  C   C735      1.0  0.51299  0.39036  0.71199  1.0000
  S   S253      1.0  0.62951  0.12648  0.51544  1.0000
  H   H747      1.0  0.52848  0.40166  0.64807  1.0000
  C   C736      1.0  0.49128  0.35323  0.66699  1.0000
  C   C737      1.0  0.49216  0.39511  0.68201  1.0000
  C   C738      1.0  0.56154  0.10897  0.51594  1.0000
  H   H748      1.0  0.59137  0.46002  0.53895  1.0000
  H   H749      1.0  0.51011  0.14866  0.90974  1.0000
  C   C739      1.0  0.58940  0.48244  0.55727  1.0000
  H   H750      1.0  0.73576  0.23037  0.83208  1.0000
  H   H751      1.0  0.50533  0.24611  0.83396  1.0000
  H   H752      1.0  0.66417  0.16511  0.55726  1.0000
  H   H753      1.0  0.66750  0.14621  0.56697  1.0000
  C   C740      1.0  0.66733  0.18092  0.64039  1.0000
  C   C741      1.0  0.62676  0.47327  0.89490  1.0000
  C   C742      1.0  0.72306  0.47932  0.73228  1.0000
  C   C743      1.0  0.61067  0.47011  0.88236  1.0000
  S   S254      1.0  0.63080  0.08866  0.50652  1.0000
  C   C744      1.0  0.52321  0.08706  0.98364  1.0000
  C   C745      1.0  0.54872  0.11364  0.52553  1.0000
  S   S255      1.0  0.50321  0.15833  0.85500  1.0000
  N   N63       1.0  0.52573  0.39385  0.90527  1.0000
  C   C746      1.0  0.73310  0.24166  0.82875  1.0000
  C   C747      1.0  0.54632  0.00245  0.56003  1.0000
  H   H754      1.0  0.68599  0.18491  0.67450  1.0000
  C   C748      1.0  0.72671  0.27048  0.81776  1.0000
  Fe  Fe133     1.0  0.64645  0.49262  0.76754  1.0000
  H   H755      1.0  0.54711  0.39317  0.67560  1.0000
  C   C749      1.0  0.57758  0.02668  0.49846  1.0000
  C   C750      1.0  0.58197  0.00542  0.52770  1.0000
  N   N64       1.0  0.50395  0.22236  0.85109  1.0000
  H   H756      1.0  0.66094  0.18780  0.65109  1.0000
  C   C751      1.0  0.63884  0.47020  0.87950  1.0000
  C   C752      1.0  0.52711  0.43994  0.50451  1.0000
  H   H757      1.0  0.55470  0.00074  0.57613  1.0000
  C   C753      1.0  0.48898  0.14580  0.88095  1.0000
  C   C754      1.0  0.66111  0.17293  0.61392  1.0000
  H   H758      1.0  0.61705  0.46532  0.79657  1.0000
  S   S256      1.0  0.48889  0.21809  0.77502  1.0000
  H   H759      1.0  0.51835  0.00863  0.49984  1.0000
  C   C755      1.0  0.53960  0.07998  0.50358  1.0000
  S   S257      1.0  0.49017  0.14087  0.71385  1.0000
  C   C756      1.0  0.52205  0.45240  0.51543  1.0000
  H   H760      1.0  0.60060  0.20166  0.69780  1.0000
  H   H761      1.0  0.51986  0.23793  0.82004  1.0000
  C   C757      1.0  0.57553  0.20160  0.70215  1.0000
  H   H762      1.0  0.50573  0.36003  0.62937  1.0000
  H   H763      1.0  0.51142  0.29840  0.70445  1.0000
  C   C758      1.0  0.54329  0.46366  0.97238  1.0000
  H   H764      1.0  0.54163  0.38922  0.87597  1.0000
  H   H765      1.0  0.52960  0.15727  0.71773  1.0000
  C   C759      1.0  0.53258  0.16290  0.69667  1.0000
  N   N65       1.0  0.53948  0.02119  0.52956  1.0000
  C   C760      1.0  0.52615  0.00700  0.51697  1.0000
  C   C761      1.0  0.54943  0.01911  0.55100  1.0000
  C   C762      1.0  0.52204  0.41185  0.95194  1.0000
  H   H766      1.0  0.54359  0.01514  0.98782  1.0000
  H   H767      1.0  0.51599  0.09736  0.92842  1.0000
  C   C763      1.0  0.50047  0.30095  0.69757  1.0000
  H   H768      1.0  0.50109  0.35088  0.67878  1.0000
  H   H769      1.0  0.55113  0.48733  0.60385  1.0000
  Fe  Fe134     1.0  0.62509  0.10548  0.97319  1.0000
  H   H770      1.0  0.52239  0.37020  0.88332  1.0000
  N   N66       1.0  0.61257  0.14104  0.86126  1.0000
  C   C764      1.0  0.60901  0.15167  0.87933  1.0000
  C   C765      1.0  0.61043  0.12480  0.86908  1.0000
  C   C766      1.0  0.60347  0.14623  0.90622  1.0000
  C   C767      1.0  0.60495  0.11897  0.89583  1.0000
  C   C768      1.0  0.60147  0.12979  0.91449  1.0000
  C   C769      1.0  0.61798  0.14681  0.83296  1.0000
  H   H771      1.0  0.61062  0.16450  0.87306  1.0000
  H   H772      1.0  0.61338  0.11641  0.85488  1.0000
  H   H773      1.0  0.60083  0.15472  0.92068  1.0000
  H   H774      1.0  0.60387  0.10633  0.90231  1.0000
  H   H775      1.0  0.59735  0.12551  0.93541  1.0000
  H   H776      1.0  0.62655  0.14102  0.82500  1.0000
  H   H777      1.0  0.60651  0.14312  0.81828  1.0000
  H   H778      1.0  0.62566  0.16119  0.83283  1.0000
  H   H779      1.0  0.59456  0.46199  0.84456  1.0000
  C   C770      1.0  0.58668  0.02290  0.52030  1.0000
  C   C771      1.0  0.56206  0.16613  0.68976  1.0000
  H   H780      1.0  0.52154  0.10509  0.53183  1.0000
  C   C772      1.0  0.57996  0.17610  0.68999  1.0000
  C   C773      1.0  0.58670  0.19395  0.69625  1.0000
  H   H781      1.0  0.51847  0.45493  0.95037  1.0000
  C   C774      1.0  0.73097  0.24047  0.75761  1.0000
  H   H782      1.0  0.55695  0.15217  0.68576  1.0000
  H   H783      1.0  0.64719  0.48940  0.59727  1.0000
  H   H784      1.0  0.58863  0.16992  0.68672  1.0000
  H   H785      1.0  0.58066  0.21529  0.70849  1.0000
  N   N67       1.0  0.61865  0.46055  0.83974  1.0000
  N   N68       1.0  0.55118  0.17376  0.69542  1.0000
  N   N69       1.0  0.56102  0.47824  0.57024  1.0000
  S   S258      1.0  0.52034  0.30147  0.76404  1.0000
  C   C775      1.0  0.60688  0.46389  0.85448  1.0000
  H   H786      1.0  0.64412  0.46176  0.83973  1.0000
  C   C776      1.0  0.49443  0.26864  0.77630  1.0000
  H   H787      1.0  0.60061  0.44488  0.80751  1.0000
  N   N70       1.0  0.66873  0.16363  0.60098  1.0000
  H   H788      1.0  0.68953  0.22245  0.82544  1.0000
  H   H789      1.0  0.52490  0.17051  0.69264  1.0000
  C   C777      1.0  0.70228  0.22213  0.82289  1.0000
  S   S259      1.0  0.60244  0.49152  0.97561  1.0000
  C   C778      1.0  0.68270  0.16221  0.61359  1.0000
  C   C779      1.0  0.51741  0.39400  0.95281  1.0000
  C   C780      1.0  0.54501  0.11695  0.98732  1.0000
  S   S260      1.0  0.58303  0.12457  0.51577  1.0000
  C   C781      1.0  0.49389  0.35845  0.63895  1.0000
  H   H790      1.0  0.51647  0.38679  0.73219  1.0000
  C   C782      1.0  0.54694  0.47526  0.49579  1.0000
  Fe  Fe135     1.0  0.49823  0.34298  0.81244  1.0000
  C   C783      1.0  0.71316  0.25379  0.81832  1.0000
  C   C784      1.0  0.51379  0.23951  0.83948  1.0000
  H   H791      1.0  0.70184  0.21576  0.80221  1.0000
  S   S261      1.0  0.65803  0.47472  0.78231  1.0000
  C   C785      1.0  0.68148  0.17943  0.65347  1.0000
  H   H792      1.0  0.51034  0.19170  0.88832  1.0000
  H   H793      1.0  0.49995  0.40214  0.63985  1.0000
  H   H794      1.0  0.54922  0.19715  0.70793  1.0000
  H   H795      1.0  0.55553  0.04867  0.52860  1.0000
  C   C786      1.0  0.68929  0.17009  0.63999  1.0000
  C   C787      1.0  0.72409  0.26486  0.74896  1.0000
  C   C788      1.0  0.55366  0.09325  0.98431  1.0000
  C   C789      1.0  0.51950  0.38517  0.92924  1.0000
  C   C790      1.0  0.54285  0.03867  0.52007  1.0000
  H   H796      1.0  0.51762  0.10953  0.98646  1.0000
  H   H797      1.0  0.70008  0.25208  0.81288  1.0000
  H   H798      1.0  0.54352  0.03904  0.49687  1.0000
  H   H799      1.0  0.52775  0.47970  0.51847  1.0000
  C   C791      1.0  0.56552  0.45408  0.55153  1.0000
  C   C792      1.0  0.54244  0.44521  0.49008  1.0000
  H   H800      1.0  0.70401  0.21400  0.83971  1.0000
  H   H801      1.0  0.55424  0.48885  0.49173  1.0000
  H   H802      1.0  0.56022  0.03029  0.56062  1.0000
  S   S262      1.0  0.49171  0.11008  0.51181  1.0000
  H   H803      1.0  0.60289  0.49107  0.55497  1.0000
  H   H804      1.0  0.59725  0.03339  0.53162  1.0000
  C   C793      1.0  0.51242  0.21481  0.86695  1.0000
  S   S263      1.0  0.59633  0.09240  0.96609  1.0000
  H   H805      1.0  0.72411  0.28153  0.81218  1.0000
  H   H806      1.0  0.64757  0.14704  0.57415  1.0000
  Fe  Fe136     1.0  0.65157  0.48653  0.70498  1.0000
  H   H807      1.0  0.52062  0.38651  0.86198  1.0000
  C   C794      1.0  0.53036  0.41139  0.90427  1.0000
  C   C795      1.0  0.50352  0.19793  0.87653  1.0000
  C   C796      1.0  0.52522  0.45537  0.97016  1.0000
  H   H808      1.0  0.53970  0.38220  0.70754  1.0000
  H   H809      1.0  0.73573  0.46659  0.70836  1.0000
  H   H810      1.0  0.49042  0.16326  0.66694  1.0000
  C   C797      1.0  0.50370  0.39924  0.66043  1.0000
  C   C798      1.0  0.52758  0.10492  0.98597  1.0000
  C   C799      1.0  0.55699  0.09206  0.50529  1.0000
  C   C800      1.0  0.49952  0.11157  0.87361  1.0000
  C   C801      1.0  0.58293  0.46500  0.54842  1.0000
  H   H811      1.0  0.50346  0.12112  0.85731  1.0000
  H   H812      1.0  0.52041  0.41881  0.97007  1.0000
  H   H813      1.0  0.52548  0.11861  0.89020  1.0000
  C   C802      1.0  0.53626  0.08127  0.98223  1.0000
  H   H814      1.0  0.52406  0.24821  0.85471  1.0000
  H   H815      1.0  0.68255  0.48421  0.66583  1.0000
  C   C803      1.0  0.55470  0.46093  0.56274  1.0000
  H   H816      1.0  0.56682  0.08839  0.49780  1.0000
  H   H817      1.0  0.54110  0.45241  0.56457  1.0000
  H   H818      1.0  0.53607  0.06711  0.49448  1.0000
  C   C804      1.0  0.48889  0.08810  0.91641  1.0000
  C   C805      1.0  0.48781  0.25030  0.77809  1.0000
  C   C806      1.0  0.72495  0.49170  0.75344  1.0000
  H   H819      1.0  0.66709  0.10375  0.96517  1.0000
  S   S264      1.0  0.48970  0.34070  0.85794  1.0000
  H   H820      1.0  0.56359  0.08855  0.98426  1.0000
  H   H821      1.0  0.65158  0.47311  0.88879  1.0000
  C   C807      1.0  0.57824  0.48885  0.56851  1.0000
  C   C808      1.0  0.54942  0.48549  0.58070  1.0000
  C   C809      1.0  0.66848  0.10768  0.98720  1.0000
  H   H822      1.0  0.48776  0.38691  0.72468  1.0000
  S   S265      1.0  0.58233  0.04838  0.48852  1.0000
  C   C810      1.0  0.59011  0.56735  0.40629  1.0000
  H   H823      1.0  0.68541  0.52577  0.19246  1.0000
  H   H824      1.0  0.67990  0.50336  0.15461  1.0000
  H   H825      1.0  0.58396  0.59872  0.44328  1.0000
  C   C811      1.0  0.60517  0.59154  0.45010  1.0000
  Fe  Fe137     1.0  0.51723  0.91738  0.46437  1.0000
  S   S266      1.0  0.52101  0.90755  0.42105  1.0000
  Fe  Fe138     1.0  0.50901  0.90888  0.03282  1.0000
  H   H826      1.0  0.65971  0.51787  0.33974  1.0000
  S   S267      1.0  0.52211  0.94556  0.47104  1.0000
  S   S268      1.0  0.51037  0.93609  0.03021  1.0000
  C   C812      1.0  0.53344  0.64786  0.14693  1.0000
  H   H827      1.0  0.57043  0.57709  0.40404  1.0000
  C   C813      1.0  0.49500  0.85073  0.44758  1.0000
  H   H828      1.0  0.48796  0.83701  0.40723  1.0000
  H   H829      1.0  0.53342  0.63519  0.14322  1.0000
  H   H830      1.0  0.48842  0.90991  0.14658  1.0000
  C   C814      1.0  0.69469  0.52033  0.18922  1.0000
  H   H831      1.0  0.54847  0.98490  0.48036  1.0000
  Fe  Fe139     1.0  0.48834  0.59307  0.47556  1.0000
  C   C815      1.0  0.48973  0.88085  0.40047  1.0000
  H   H832      1.0  0.62404  0.58101  0.45273  1.0000
  S   S269      1.0  0.50646  0.62607  0.06665  1.0000
  C   C816      1.0  0.72142  0.51853  0.20219  1.0000
  S   S270      1.0  0.66580  0.50772  0.24905  1.0000
  H   H833      1.0  0.53764  0.98408  0.99451  1.0000
  C   C817      1.0  0.53782  0.67576  0.13092  1.0000
  H   H834      1.0  0.60315  0.54426  0.40268  1.0000
  S   S271      1.0  0.59242  0.51726  0.44768  1.0000
  H   H835      1.0  0.50292  0.79688  0.24632  1.0000
  H   H836      1.0  0.62037  0.55452  0.42833  1.0000
  Fe  Fe140     1.0  0.50622  0.62102  0.01896  1.0000
  S   S272      1.0  0.65095  0.50924  0.17089  1.0000
  Fe  Fe141     1.0  0.50753  0.62942  0.45436  1.0000
  H   H837      1.0  0.57068  0.92793  0.98874  1.0000
  H   H838      1.0  0.49284  0.61947  0.12159  1.0000
  S   S273      1.0  0.51145  0.60488  0.44899  1.0000
  Fe  Fe142     1.0  0.60314  0.50681  0.01517  1.0000
  S   S274      1.0  0.57837  0.50881  0.00272  1.0000
  C   C818      1.0  0.50125  0.64713  0.38611  1.0000
  C   C819      1.0  0.49952  0.80445  0.18410  1.0000
  H   H839      1.0  0.59768  0.52735  0.07104  1.0000
  S   S275      1.0  0.64086  0.53372  0.42808  1.0000
  C   C820      1.0  0.51936  0.83958  0.19619  1.0000
  C   C821      1.0  0.52324  0.87369  0.45275  1.0000
  H   H840      1.0  0.51635  0.85476  0.38748  1.0000
  C   C822      1.0  0.50034  0.65482  0.08247  1.0000
  C   C823      1.0  0.49234  0.65934  0.12995  1.0000
  C   C824      1.0  0.49898  0.88424  0.10193  1.0000
  N   N71       1.0  0.51006  0.80957  0.20791  1.0000
  H   H841      1.0  0.55822  0.66317  0.09901  1.0000
  H   H842      1.0  0.53776  0.66003  0.08188  1.0000
  C   C825      1.0  0.52801  0.65147  0.17260  1.0000
  C   C826      1.0  0.52749  0.66754  0.17723  1.0000
  H   H843      1.0  0.53293  0.88464  0.46479  1.0000
  C   C827      1.0  0.49722  0.66532  0.10284  1.0000
  C   C828      1.0  0.69161  0.50774  0.16800  1.0000
  S   S276      1.0  0.70545  0.49701  0.26114  1.0000
  S   S277      1.0  0.50464  0.87203  0.19506  1.0000
  H   H844      1.0  0.63654  0.52344  0.07647  1.0000
  H   H845      1.0  0.62205  0.56345  0.39401  1.0000
  S   S278      1.0  0.55986  0.96765  0.01535  1.0000
  C   C829      1.0  0.64871  0.51677  0.35147  1.0000
  C   C830      1.0  0.65123  0.52535  0.37799  1.0000
  C   C831      1.0  0.63708  0.52368  0.39394  1.0000
  C   C832      1.0  0.62034  0.51377  0.38264  1.0000
  S   S279      1.0  0.49121  0.67418  0.15601  1.0000
  C   C833      1.0  0.53253  0.67982  0.15637  1.0000
  H   H846      1.0  0.50415  0.78317  0.21832  1.0000
  S   S280      1.0  0.49563  0.88890  0.06645  1.0000
  C   C834      1.0  0.50869  0.83448  0.17187  1.0000
  C   C835      1.0  0.61657  0.49932  0.08927  1.0000
  C   C836      1.0  0.56596  0.50339  0.07425  1.0000
  C   C837      1.0  0.63233  0.51408  0.09286  1.0000
  S   S281      1.0  0.49396  0.89994  0.99142  1.0000
  C   C838      1.0  0.55886  0.52322  0.04787  1.0000
  H   H847      1.0  0.49784  0.62064  0.38032  1.0000
  H   H848      1.0  0.71188  0.53513  0.22360  1.0000
  C   C839      1.0  0.52676  0.87034  0.42547  1.0000
  Fe  Fe143     1.0  0.62041  0.52770  0.46085  1.0000
  C   C840      1.0  0.49380  0.63217  0.11605  1.0000
  C   C841      1.0  0.49203  0.63058  0.34163  1.0000
  C   C842      1.0  0.49808  0.84704  0.42019  1.0000
  C   C843      1.0  0.61299  0.55713  0.41077  1.0000
  C   C844      1.0  0.51030  0.79662  0.22773  1.0000
  C   C845      1.0  0.49103  0.64484  0.32815  1.0000
  H   H849      1.0  0.52377  0.79931  0.23462  1.0000
  H   H850      1.0  0.53320  0.51295  0.02808  1.0000
  H   H851      1.0  0.66424  0.53307  0.38641  1.0000
  H   H852      1.0  0.57525  0.50047  0.08667  1.0000
  C   C846      1.0  0.56345  0.98978  0.01020  1.0000
  C   C847      1.0  0.61782  0.50543  0.35600  1.0000
  S   S282      1.0  0.59146  0.55887  0.98988  1.0000
  C   C848      1.0  0.58817  0.53315  0.06921  1.0000
  S   S283      1.0  0.49268  0.68439  0.23955  1.0000
  S   S284      1.0  0.50878  0.64970  0.42204  1.0000
  N   N72       1.0  0.53811  0.65990  0.12642  1.0000
  H   H853      1.0  0.58877  0.54043  0.08902  1.0000
  C   C849      1.0  0.63745  0.50484  0.13960  1.0000
  S   S285      1.0  0.53439  0.91597  0.01201  1.0000
  C   C850      1.0  0.63195  0.50663  0.34040  1.0000
  H   H854      1.0  0.56255  0.53604  0.03930  1.0000
  H   H855      1.0  0.52376  0.64172  0.18851  1.0000
  C   C851      1.0  0.50016  0.66135  0.37264  1.0000
  C   C852      1.0  0.50677  0.89226  0.39515  1.0000
  C   C853      1.0  0.58249  0.57838  0.41421  1.0000
  C   C854      1.0  0.54224  0.51021  0.04141  1.0000
  H   H856      1.0  0.53891  0.87871  0.41661  1.0000
  C   C855      1.0  0.50300  0.87787  0.34862  1.0000
  C   C856      1.0  0.51325  0.89069  0.36902  1.0000
  N   N73       1.0  0.57060  0.51957  0.06355  1.0000
  H   H857      1.0  0.50831  0.87681  0.32882  1.0000
  H   H858      1.0  0.52641  0.89939  0.36462  1.0000
  C   C857      1.0  0.57345  0.57933  0.99101  1.0000
  C   C858      1.0  0.51317  0.89523  0.11907  1.0000
  C   C859      1.0  0.51477  0.89120  0.14735  1.0000
  C   C860      1.0  0.50219  0.87623  0.15900  1.0000
  C   C861      1.0  0.56548  0.56352  0.47959  1.0000
  C   C862      1.0  0.51983  0.82689  0.21416  1.0000
  H   H859      1.0  0.52291  0.90686  0.11056  1.0000
  H   H860      1.0  0.52582  0.89983  0.16034  1.0000
  H   H861      1.0  0.52781  0.83099  0.23341  1.0000
  H   H862      1.0  0.53146  0.69205  0.15940  1.0000
  H   H863      1.0  0.54115  0.68515  0.11447  1.0000
  S   S286      1.0  0.61961  0.53261  0.99665  1.0000
  H   H864      1.0  0.63414  0.49399  0.44492  1.0000
  C   C863      1.0  0.54395  0.65612  0.09969  1.0000
  C   C864      1.0  0.49897  0.63826  0.08910  1.0000
  H   H865      1.0  0.58594  0.58997  0.99602  1.0000
  H   H866      1.0  0.73681  0.50270  0.15676  1.0000
  Fe  Fe144     1.0  0.53484  0.94282  0.00697  1.0000
  H   H867      1.0  0.52688  0.85335  0.20139  1.0000
  H   H868      1.0  0.65470  0.52838  0.12046  1.0000
  H   H869      1.0  0.50449  0.65984  0.06202  1.0000
  S   S287      1.0  0.52932  0.62474  0.99294  1.0000
  C   C865      1.0  0.64262  0.51683  0.11789  1.0000
  H   H870      1.0  0.54015  0.64192  0.09629  1.0000
  H   H871      1.0  0.73288  0.52269  0.21600  1.0000
  H   H872      1.0  0.61086  0.60059  0.46781  1.0000
  S   S288      1.0  0.49395  0.59201  0.00992  1.0000
  H   H873      1.0  0.60931  0.51240  0.39447  1.0000
  C   C866      1.0  0.49694  0.63164  0.37042  1.0000
  C   C867      1.0  0.61244  0.58030  0.44164  1.0000
  C   C868      1.0  0.55100  0.56470  0.46646  1.0000
  H   H874      1.0  0.59229  0.54240  0.05177  1.0000
  C   C869      1.0  0.48803  0.86519  0.14182  1.0000
  S   S289      1.0  0.57177  0.54716  0.46713  1.0000
  H   H875      1.0  0.50351  0.67342  0.38447  1.0000
  C   C870      1.0  0.49026  0.64250  0.13620  1.0000
  C   C871      1.0  0.70964  0.52573  0.20652  1.0000
  H   H876      1.0  0.49428  0.67129  0.33403  1.0000
  H   H877      1.0  0.52261  0.67028  0.19653  1.0000
  H   H878      1.0  0.53515  0.57899  0.46319  1.0000
  C   C872      1.0  0.54629  0.57829  0.47363  1.0000
  C   C873      1.0  0.59012  0.59056  0.43623  1.0000
  H   H879      1.0  0.60480  0.49774  0.34762  1.0000
  N   N74       1.0  0.60484  0.56834  0.42009  1.0000
  H   H880      1.0  0.58392  0.55770  0.38951  1.0000
  C   C874      1.0  0.49492  0.66018  0.34397  1.0000
  H   H881      1.0  0.50800  0.84425  0.15806  1.0000
  C   C875      1.0  0.51407  0.85696  0.40910  1.0000
  C   C876      1.0  0.49864  0.81681  0.16577  1.0000
  H   H882      1.0  0.49892  0.67832  0.09772  1.0000
  Fe  Fe145     1.0  0.58872  0.49838  0.48158  1.0000
  N   N75       1.0  0.50753  0.86388  0.46348  1.0000
  H   H883      1.0  0.55976  0.59583  0.99216  1.0000
  H   H884      1.0  0.54341  0.55507  0.45042  1.0000
  S   S290      1.0  0.49171  0.83624  0.25614  1.0000
  C   C877      1.0  0.55860  0.58272  0.98885  1.0000
  H   H885      1.0  0.48918  0.61867  0.32967  1.0000
  H   H886      1.0  0.49128  0.79076  0.17963  1.0000
  H   H887      1.0  0.48998  0.81272  0.14728  1.0000
  N   N76       1.0  0.71820  0.50602  0.18154  1.0000
  C   C878      1.0  0.70353  0.50062  0.16450  1.0000
  H   H888      1.0  0.58035  0.95074  0.99694  1.0000
  Fe  Fe146     1.0  0.59026  0.53522  0.48127  1.0000
  C   C879      1.0  0.73059  0.49851  0.17703  1.0000
  S   S291      1.0  0.62768  0.49409  0.30846  1.0000
  S   S292      1.0  0.60256  0.49535  0.05871  1.0000
  C   C880      1.0  0.53131  0.67320  0.55771  1.0000
  H   H889      1.0  0.55223  0.49824  0.57112  1.0000
  H   H890      1.0  0.52162  0.67008  0.53989  1.0000
  C   C881      1.0  0.51305  0.74643  0.76601  1.0000
  C   C882      1.0  0.56997  0.95998  0.95044  1.0000
  Fe  Fe147     1.0  0.51909  0.90875  0.97044  1.0000
  S   S293      1.0  0.52217  0.89089  0.93665  1.0000
  Fe  Fe148     1.0  0.51038  0.90934  0.52713  1.0000
  C   C883      1.0  0.49657  0.63166  0.63876  1.0000
  S   S294      1.0  0.52181  0.93594  0.96394  1.0000
  S   S295      1.0  0.51462  0.93681  0.53826  1.0000
  C   C884      1.0  0.56231  0.64612  0.54235  1.0000
  C   C885      1.0  0.56123  0.96282  0.92713  1.0000
  C   C886      1.0  0.55617  0.59112  0.49379  1.0000
  C   C887      1.0  0.62825  0.51771  0.59466  1.0000
  S   S296      1.0  0.49943  0.84148  0.75584  1.0000
  C   C888      1.0  0.62776  0.52033  0.62377  1.0000
  C   C889      1.0  0.50852  0.72996  0.77709  1.0000
  H   H891      1.0  0.55890  0.68346  0.52658  1.0000
  H   H892      1.0  0.51247  0.97886  0.51489  1.0000
  N   N77       1.0  0.56870  0.94364  0.95558  1.0000
  C   C890      1.0  0.49739  0.89151  0.86183  1.0000
  H   H893      1.0  0.52866  0.54151  0.97330  1.0000
  C   C891      1.0  0.48971  0.90486  0.64240  1.0000
  S   S297      1.0  0.66794  0.50661  0.73816  1.0000
  H   H894      1.0  0.54449  0.95086  0.89063  1.0000
  C   C892      1.0  0.49788  0.73828  0.81731  1.0000
  H   H895      1.0  0.61077  0.51292  0.88631  1.0000
  S   S298      1.0  0.61892  0.54721  0.49253  1.0000
  H   H896      1.0  0.53909  0.68752  0.55955  1.0000
  S   S299      1.0  0.70752  0.49688  0.76319  1.0000
  Fe  Fe149     1.0  0.50045  0.62371  0.51816  1.0000
  S   S300      1.0  0.55156  0.60932  0.50198  1.0000
  Fe  Fe150     1.0  0.51318  0.62809  0.95632  1.0000
  S   S301      1.0  0.52264  0.64505  0.91804  1.0000
  S   S302      1.0  0.50325  0.59839  0.51710  1.0000
  S   S303      1.0  0.50170  0.59961  0.94451  1.0000
  Fe  Fe151     1.0  0.61292  0.52564  0.52386  1.0000
  S   S304      1.0  0.58421  0.51510  0.51425  1.0000
  C   C893      1.0  0.49236  0.60842  0.86557  1.0000
  Fe  Fe152     1.0  0.61688  0.51733  0.95588  1.0000
  S   S305      1.0  0.59334  0.52053  0.94019  1.0000
  S   S306      1.0  0.63924  0.52070  0.92804  1.0000
  C   C894      1.0  0.63525  0.50641  0.58532  1.0000
  H   H897      1.0  0.62248  0.52909  0.63132  1.0000
  H   H898      1.0  0.50506  0.90720  0.90041  1.0000
  C   C895      1.0  0.65077  0.56536  0.94722  1.0000
  C   C896      1.0  0.56631  0.66231  0.53077  1.0000
  H   H899      1.0  0.59807  0.56724  0.93044  1.0000
  H   H900      1.0  0.59088  0.94175  0.97351  1.0000
  C   C897      1.0  0.55057  0.93237  0.91374  1.0000
  H   H901      1.0  0.66006  0.50960  0.83824  1.0000
  C   C898      1.0  0.57519  0.57615  0.50019  1.0000
  C   C899      1.0  0.50221  0.75488  0.80679  1.0000
  H   H902      1.0  0.48844  0.75301  0.69813  1.0000
  H   H903      1.0  0.49920  0.76438  0.81813  1.0000
  C   C900      1.0  0.54115  0.55214  0.97831  1.0000
  H   H904      1.0  0.52534  0.90336  0.59964  1.0000
  H   H905      1.0  0.58342  0.50251  0.57514  1.0000
  S   S307      1.0  0.61689  0.50746  0.49309  1.0000
  H   H906      1.0  0.59496  0.55461  0.88206  1.0000
  C   C901      1.0  0.57817  0.94088  0.97982  1.0000
  C   C902      1.0  0.64928  0.51026  0.84863  1.0000
  C   C903      1.0  0.65071  0.51442  0.87763  1.0000
  C   C904      1.0  0.63683  0.51533  0.89151  1.0000
  H   H907      1.0  0.51039  0.72012  0.76469  1.0000
  C   C905      1.0  0.60823  0.56422  0.92220  1.0000
  H   H908      1.0  0.68104  0.52077  0.65217  1.0000
  C   C906      1.0  0.54805  0.63884  0.55901  1.0000
  H   H909      1.0  0.50187  0.91524  0.65005  1.0000
  H   H910      1.0  0.53089  0.97493  0.55309  1.0000
  Fe  Fe153     1.0  0.57914  0.49564  0.96223  1.0000
  C   C907      1.0  0.51592  0.89132  0.60755  1.0000
  H   H911      1.0  0.68636  0.49720  0.63540  1.0000
  N   N78       1.0  0.69727  0.51119  0.67421  1.0000
  S   S308      1.0  0.56179  0.96985  0.52506  1.0000
  H   H912      1.0  0.49987  0.85582  0.50475  1.0000
  H   H913      1.0  0.49160  0.73507  0.83710  1.0000
  C   C908      1.0  0.50985  0.75894  0.78097  1.0000
  H   H914      1.0  0.49072  0.91519  0.60113  1.0000
  H   H915      1.0  0.50103  0.62432  0.65271  1.0000
  S   S309      1.0  0.62025  0.52908  0.57107  1.0000
  C   C909      1.0  0.50494  0.89594  0.88927  1.0000
  C   C910      1.0  0.56805  0.99155  0.51360  1.0000
  C   C911      1.0  0.55605  0.67113  0.53633  1.0000
  S   S310      1.0  0.63183  0.50316  0.79620  1.0000
  S   S311      1.0  0.49208  0.68180  0.74704  1.0000
  C   C912      1.0  0.54231  0.56912  0.98248  1.0000
  C   C913      1.0  0.50971  0.65016  0.89280  1.0000
  C   C914      1.0  0.51521  0.65372  0.86519  1.0000
  C   C915      1.0  0.50527  0.65771  0.84455  1.0000
  C   C916      1.0  0.61940  0.55280  0.88519  1.0000
  H   H916      1.0  0.52720  0.65326  0.85970  1.0000
  H   H917      1.0  0.50961  0.66022  0.82340  1.0000
  C   C917      1.0  0.51774  0.88677  0.63546  1.0000
  C   C918      1.0  0.70839  0.51348  0.69682  1.0000
  H   H918      1.0  0.61805  0.54690  0.86438  1.0000
  H   H919      1.0  0.48901  0.59446  0.86095  1.0000
  N   N79       1.0  0.63568  0.56293  0.92900  1.0000
  Fe  Fe154     1.0  0.49943  0.93524  0.49841  1.0000
  H   H920      1.0  0.57700  0.66774  0.51697  1.0000
  C   C919      1.0  0.62294  0.56693  0.93905  1.0000
  N   N80       1.0  0.50124  0.72615  0.80261  1.0000
  Fe  Fe155     1.0  0.52629  0.61176  0.49066  1.0000
  C   C920      1.0  0.51230  0.88579  0.90215  1.0000
  H   H921      1.0  0.52861  0.89542  0.64875  1.0000
  H   H922      1.0  0.68854  0.54622  0.68438  1.0000
  C   C921      1.0  0.64114  0.50055  0.63392  1.0000
  C   C922      1.0  0.50444  0.86677  0.85971  1.0000
  C   C923      1.0  0.51211  0.87128  0.88710  1.0000
  H   H923      1.0  0.62395  0.57203  0.96035  1.0000
  H   H924      1.0  0.50430  0.85550  0.84855  1.0000
  H   H925      1.0  0.51788  0.86340  0.89672  1.0000
  C   C924      1.0  0.50200  0.88025  0.59000  1.0000
  C   C925      1.0  0.63411  0.50746  0.83303  1.0000
  C   C926      1.0  0.55933  0.92996  0.93742  1.0000
  C   C927      1.0  0.69230  0.49571  0.65570  1.0000
  H   H926      1.0  0.49787  0.70908  0.83671  1.0000
  C   C928      1.0  0.63399  0.55580  0.90254  1.0000
  C   C929      1.0  0.49699  0.62936  0.60943  1.0000
  H   H927      1.0  0.58641  0.57552  0.51040  1.0000
  C   C930      1.0  0.49702  0.87688  0.84686  1.0000
  C   C931      1.0  0.62157  0.51229  0.87598  1.0000
  H   H928      1.0  0.51266  0.77152  0.77205  1.0000
  C   C932      1.0  0.63408  0.51177  0.64329  1.0000
  H   H929      1.0  0.50162  0.62024  0.60116  1.0000
  H   H930      1.0  0.66261  0.51684  0.88938  1.0000
  C   C933      1.0  0.55600  0.54877  0.98034  1.0000
  C   C934      1.0  0.69444  0.53727  0.68781  1.0000
  C   C935      1.0  0.49004  0.86454  0.60078  1.0000
  N   N81       1.0  0.54231  0.66408  0.55323  1.0000
  Fe  Fe156     1.0  0.53732  0.94580  0.51026  1.0000
  H   H931      1.0  0.60856  0.50655  0.83499  1.0000
  C   C936      1.0  0.55147  0.94890  0.90867  1.0000
  H   H932      1.0  0.56992  0.63896  0.53773  1.0000
  C   C937      1.0  0.50556  0.87126  0.64644  1.0000
  C   C938      1.0  0.48996  0.65878  0.85155  1.0000
  H   H933      1.0  0.64804  0.55336  0.95903  1.0000
  H   H934      1.0  0.55834  0.91699  0.94136  1.0000
  C   C939      1.0  0.60647  0.55710  0.89511  1.0000
  Fe  Fe157     1.0  0.51598  0.59583  0.98235  1.0000
  H   H935      1.0  0.52415  0.66912  0.57727  1.0000
  H   H936      1.0  0.51819  0.74913  0.74528  1.0000
  H   H937      1.0  0.50361  0.70198  0.80493  1.0000
  C   C940      1.0  0.64168  0.49797  0.60482  1.0000
  H   H938      1.0  0.63599  0.50441  0.56309  1.0000
  C   C941      1.0  0.49171  0.86012  0.62880  1.0000
  S   S312      1.0  0.49141  0.62661  0.98314  1.0000
  H   H939      1.0  0.52685  0.64214  0.57669  1.0000
  H   H940      1.0  0.57842  0.59978  0.52262  1.0000
  C   C942      1.0  0.49148  0.63889  0.59100  1.0000
  H   H941      1.0  0.55484  0.53566  0.97688  1.0000
  S   S313      1.0  0.53448  0.91818  0.50206  1.0000
  H   H942      1.0  0.54444  0.62591  0.56706  1.0000
  H   H943      1.0  0.57751  0.97089  0.96470  1.0000
  H   H944      1.0  0.64382  0.55207  0.89490  1.0000
  S   S314      1.0  0.50819  0.86667  0.68228  1.0000
  H   H945      1.0  0.72160  0.52943  0.73344  1.0000
  H   H946      1.0  0.63361  0.51398  0.66554  1.0000
  H   H947      1.0  0.65407  0.57651  0.96237  1.0000
  H   H948      1.0  0.54290  0.92136  0.89973  1.0000
  C   C943      1.0  0.62033  0.50862  0.84688  1.0000
  C   C944      1.0  0.53293  0.98792  0.54704  1.0000
  H   H949      1.0  0.51512  0.87810  0.50304  1.0000
  C   C945      1.0  0.53813  0.64806  0.56428  1.0000
  H   H950      1.0  0.50033  0.61642  0.84871  1.0000
  C   C946      1.0  0.71300  0.52788  0.71527  1.0000
  H   H951      1.0  0.71355  0.50401  0.70103  1.0000
  H   H952      1.0  0.66232  0.56796  0.93479  1.0000
  C   C947      1.0  0.57065  0.58994  0.50701  1.0000
  H   H953      1.0  0.49310  0.87185  0.49117  1.0000
  H   H954      1.0  0.50069  0.61264  0.88518  1.0000
  C   C948      1.0  0.69023  0.52280  0.66965  1.0000
  H   H955      1.0  0.56190  0.97572  0.92367  1.0000
  S   S315      1.0  0.52297  0.57239  0.97966  1.0000
  H   H956      1.0  0.70909  0.55078  0.72534  1.0000
  S   S316      1.0  0.49268  0.63751  0.55370  1.0000
  S   S317      1.0  0.49859  0.88538  0.55477  1.0000
  C   C949      1.0  0.70593  0.53981  0.71075  1.0000
  C   C950      1.0  0.49430  0.65102  0.89966  1.0000
  Fe  Fe158     1.0  0.59450  0.53359  0.98219  1.0000
  C   C951      1.0  0.49044  0.64332  0.65021  1.0000
  S   S318      1.0  0.49040  0.64576  0.68753  1.0000
  S   S319      1.0  0.52454  0.63770  0.49415  1.0000
  H   H957      1.0  0.48997  0.64854  0.92083  1.0000
  C   C952      1.0  0.52271  0.99016  0.52545  1.0000
  Fe  Fe159     1.0  0.49031  0.84863  0.71452  1.0000
  H   H958      1.0  0.49172  0.89945  0.85213  1.0000
  Fe  Fe160     1.0  0.49754  0.92744  0.98742  1.0000
  C   C953      1.0  0.49596  0.70863  0.81352  1.0000
  C   C954      1.0  0.50375  0.86758  0.49191  1.0000
  C   C955      1.0  0.57228  0.56237  0.98672  1.0000
  S   S320      1.0  0.49311  0.90714  0.48875  1.0000
  H   H959      1.0  0.95412  0.42681  0.06786  1.0000
  S   S321      1.0  0.90531  0.36749  0.00828  1.0000
  S   S322      1.0  0.86930  0.35260  0.45176  1.0000
  Fe  Fe161     1.0  0.89102  0.40387  0.02411  1.0000
  S   S323      1.0  0.91271  0.40185  0.04905  1.0000
  S   S324      1.0  0.88153  0.42398  0.03496  1.0000
  Fe  Fe162     1.0  0.92138  0.39671  0.00720  1.0000
  H   H960      1.0  0.93193  0.39851  0.39265  1.0000
  Fe  Fe163     1.0  0.89495  0.37320  0.04855  1.0000
  S   S325      1.0  0.89002  0.35685  0.08781  1.0000
  H   H961      1.0  0.75286  0.28886  0.28456  1.0000
  S   S326      1.0  0.87283  0.37583  0.02613  1.0000
  H   H962      1.0  0.84456  0.33701  0.00297  1.0000
  S   S327      1.0  0.81165  0.47850  0.20661  1.0000
  S   S328      1.0  0.80473  0.47019  0.27304  1.0000
  Fe  Fe164     1.0  0.82165  0.46686  0.24082  1.0000
  S   S329      1.0  0.82858  0.44458  0.22975  1.0000
  H   H963      1.0  0.95397  0.44793  0.03263  1.0000
  H   H964      1.0  0.85791  0.47454  0.43488  1.0000
  Fe  Fe165     1.0  0.82546  0.34056  0.22253  1.0000
  S   S330      1.0  0.79666  0.33025  0.22691  1.0000
  S   S331      1.0  0.83329  0.34934  0.17766  1.0000
  Fe  Fe166     1.0  0.83165  0.34205  0.28784  1.0000
  S   S332      1.0  0.80317  0.33178  0.29559  1.0000
  S   S333      1.0  0.85414  0.35623  0.32043  1.0000
  Fe  Fe167     1.0  0.79905  0.31254  0.25958  1.0000
  S   S334      1.0  0.78014  0.28335  0.25523  1.0000
  Fe  Fe168     1.0  0.80271  0.34998  0.26209  1.0000
  S   S335      1.0  0.78840  0.36694  0.26800  1.0000
  S   S336      1.0  0.82791  0.32167  0.25348  1.0000
  S   S337      1.0  0.83109  0.36131  0.25618  1.0000
  C   C956      1.0  0.81590  0.42280  0.23819  1.0000
  C   C957      1.0  0.80145  0.41814  0.25458  1.0000
  C   C958      1.0  0.79268  0.40080  0.26289  1.0000
  C   C959      1.0  0.79840  0.38814  0.25502  1.0000
  C   C960      1.0  0.81247  0.39274  0.23786  1.0000
  C   C961      1.0  0.82117  0.40999  0.22948  1.0000
  H   H965      1.0  0.79723  0.42793  0.26123  1.0000
  H   H966      1.0  0.78166  0.39728  0.27591  1.0000
  H   H967      1.0  0.81674  0.38304  0.23104  1.0000
  H   H968      1.0  0.83225  0.41346  0.21661  1.0000
  H   H969      1.0  0.93629  0.46477  0.99917  1.0000
  C   C962      1.0  0.84351  0.33366  0.02489  1.0000
  H   H970      1.0  0.73853  0.27927  0.21569  1.0000
  H   H971      1.0  0.75837  0.24764  0.23892  1.0000
  C   C963      1.0  0.75786  0.26979  0.26100  1.0000
  C   C964      1.0  0.91086  0.35597  0.43277  1.0000
  N   N82       1.0  0.75253  0.30587  0.20457  1.0000
  H   H972      1.0  0.75329  0.33536  0.25394  1.0000
  H   H973      1.0  0.91992  0.46363  0.46211  1.0000
  H   H974      1.0  0.98217  0.42774  0.08619  1.0000
  C   C965      1.0  0.87120  0.48442  0.43131  1.0000
  C   C966      1.0  0.86375  0.35491  0.41615  1.0000
  C   C967      1.0  0.87320  0.36980  0.40122  1.0000
  C   C968      1.0  0.86976  0.37011  0.37212  1.0000
  C   C969      1.0  0.85654  0.35576  0.35764  1.0000
  C   C970      1.0  0.84667  0.34115  0.37281  1.0000
  C   C971      1.0  0.85037  0.34068  0.40177  1.0000
  H   H975      1.0  0.88355  0.38084  0.41189  1.0000
  H   H976      1.0  0.87754  0.38147  0.36064  1.0000
  H   H977      1.0  0.83658  0.32994  0.36202  1.0000
  H   H978      1.0  0.84301  0.32904  0.41297  1.0000
  C   C972      1.0  0.87522  0.35610  0.11387  1.0000
  C   C973      1.0  0.86390  0.36406  0.11027  1.0000
  C   C974      1.0  0.85138  0.36198  0.13019  1.0000
  C   C975      1.0  0.85014  0.35221  0.15430  1.0000
  C   C976      1.0  0.86165  0.34450  0.15817  1.0000
  C   C977      1.0  0.87401  0.34634  0.13798  1.0000
  H   H979      1.0  0.86459  0.37159  0.09190  1.0000
  H   H980      1.0  0.84259  0.36803  0.12690  1.0000
  H   H981      1.0  0.86086  0.33688  0.17647  1.0000
  H   H982      1.0  0.88264  0.34009  0.14103  1.0000
  H   H983      1.0  0.91583  0.43564  0.01409  1.0000
  C   C978      1.0  0.90997  0.46779  0.45574  1.0000
  C   C979      1.0  0.89767  0.44478  0.02986  1.0000
  C   C980      1.0  0.92082  0.47765  0.01327  1.0000
  H   H984      1.0  0.86640  0.45336  0.45162  1.0000
  C   C981      1.0  0.96617  0.44865  0.04139  1.0000
  C   C982      1.0  0.90594  0.47577  0.02688  1.0000
  C   C983      1.0  0.89434  0.45932  0.03514  1.0000
  H   H985      1.0  0.88521  0.34415  0.37420  1.0000
  H   H986      1.0  0.80266  0.39397  0.31994  1.0000
  C   C984      1.0  0.75013  0.48210  0.23922  1.0000
  H   H987      1.0  0.88253  0.45780  0.04478  1.0000
  H   H988      1.0  0.85987  0.46486  0.11705  1.0000
  H   H989      1.0  0.88122  0.33289  0.03407  1.0000
  C   C985      1.0  0.98197  0.43726  0.07143  1.0000
  C   C986      1.0  0.91455  0.48466  0.44664  1.0000
  C   C987      1.0  0.75973  0.46949  0.30204  1.0000
  N   N83       1.0  0.85410  0.46910  0.15891  1.0000
  H   H990      1.0  0.86552  0.31292  0.01703  1.0000
  H   H991      1.0  0.76624  0.35537  0.21538  1.0000
  S   S338      1.0  0.76683  0.47532  0.23208  1.0000
  C   C988      1.0  0.85350  0.32394  0.06518  1.0000
  C   C989      1.0  0.83072  0.33560  0.04021  1.0000
  H   H992      1.0  0.76734  0.46327  0.29323  1.0000
  C   C990      1.0  0.89217  0.34090  0.39170  1.0000
  H   H993      1.0  0.89824  0.33266  0.38322  1.0000
  H   H994      1.0  0.79219  0.48481  0.32282  1.0000
  H   H995      1.0  0.76031  0.28522  0.20516  1.0000
  H   H996      1.0  0.85150  0.47642  0.20078  1.0000
  N   N84       1.0  0.82866  0.39814  0.31279  1.0000
  C   C991      1.0  0.83972  0.39030  0.31170  1.0000
  C   C992      1.0  0.83270  0.41383  0.30067  1.0000
  C   C993      1.0  0.85492  0.39777  0.29707  1.0000
  C   C994      1.0  0.84774  0.42164  0.28572  1.0000
  C   C995      1.0  0.85881  0.41343  0.28370  1.0000
  C   C996      1.0  0.81272  0.38991  0.32799  1.0000
  H   H997      1.0  0.83662  0.37796  0.32161  1.0000
  H   H998      1.0  0.82404  0.42018  0.30175  1.0000
  H   H999      1.0  0.86334  0.39114  0.29556  1.0000
  H   H1000     1.0  0.85046  0.43371  0.27509  1.0000
  H   H1001     1.0  0.87029  0.41910  0.27159  1.0000
  H   H1002     1.0  0.80707  0.37548  0.32484  1.0000
  H   H1003     1.0  0.81544  0.39333  0.35070  1.0000
  C   C997      1.0  0.92608  0.38658  0.40404  1.0000
  C   C998      1.0  0.83779  0.45334  0.15854  1.0000
  C   C999      1.0  0.84073  0.32551  0.08103  1.0000
  C   C1000     1.0  0.82944  0.33161  0.06852  1.0000
  N   N85       1.0  0.90540  0.35666  0.40572  1.0000
  C   C1001     1.0  0.75042  0.25248  0.25017  1.0000
  C   C1002     1.0  0.76465  0.33478  0.18665  1.0000
  H   H1004     1.0  0.81995  0.33352  0.08095  1.0000
  N   N86       1.0  0.85493  0.32828  0.03762  1.0000
  S   S339      1.0  0.84448  0.49184  0.25371  1.0000
  C   C1003     1.0  0.92474  0.46332  0.00963  1.0000
  H   H1005     1.0  0.88891  0.44352  0.46551  1.0000
  H   H1006     1.0  0.92859  0.37000  0.46741  1.0000
  H   H1007     1.0  0.76245  0.31185  0.16380  1.0000
  H   H1008     1.0  0.96493  0.39753  0.02946  1.0000
  H   H1009     1.0  0.90308  0.48688  0.03038  1.0000
  H   H1010     1.0  0.90863  0.37218  0.36976  1.0000
  H   H1011     1.0  0.77085  0.34353  0.17002  1.0000
  C   C1004     1.0  0.91292  0.37166  0.39125  1.0000
  C   C1005     1.0  0.75009  0.31232  0.22967  1.0000
  C   C1006     1.0  0.86408  0.47306  0.13598  1.0000
  H   H1012     1.0  0.74317  0.28236  0.17943  1.0000
  H   H1013     1.0  0.83278  0.44851  0.13683  1.0000
  H   H1014     1.0  0.82212  0.34049  0.03026  1.0000
  N   N87       1.0  0.88449  0.47864  0.44021  1.0000
  C   C1007     1.0  0.97492  0.40811  0.01917  1.0000
  C   C1008     1.0  0.74170  0.46128  0.29831  1.0000
  C   C1009     1.0  0.91315  0.44684  0.01798  1.0000
  H   H1015     1.0  0.86276  0.31999  0.07542  1.0000
  C   C1010     1.0  0.87989  0.46218  0.44976  1.0000
  Fe  Fe169     1.0  0.79626  0.48410  0.24000  1.0000
  H   H1016     1.0  0.84338  0.49190  0.09740  1.0000
  C   C1011     1.0  0.93174  0.38597  0.43160  1.0000
  H   H1017     1.0  0.74473  0.30371  0.24680  1.0000
  C   C1012     1.0  0.85944  0.47955  0.18266  1.0000
  C   C1013     1.0  0.75987  0.31686  0.18329  1.0000
  C   C1014     1.0  0.86867  0.32682  0.02174  1.0000
  C   C1015     1.0  0.89255  0.45648  0.45751  1.0000
  H   H1018     1.0  0.88221  0.33326  0.40656  1.0000
  H   H1019     1.0  0.84016  0.32280  0.10321  1.0000
  H   H1020     1.0  0.94199  0.39740  0.44188  1.0000
  C   C1016     1.0  0.97028  0.41773  0.99965  1.0000
  C   C1017     1.0  0.96625  0.43675  0.06119  1.0000
  H   H1021     1.0  0.90487  0.34412  0.44430  1.0000
  C   C1018     1.0  0.75478  0.33017  0.23379  1.0000
  C   C1019     1.0  0.92415  0.37057  0.44603  1.0000
  C   C1020     1.0  0.74009  0.48603  0.32140  1.0000
  C   C1021     1.0  0.74734  0.27575  0.27555  1.0000
  C   C1022     1.0  0.76208  0.34143  0.21210  1.0000
  C   C1023     1.0  0.90156  0.48984  0.43863  1.0000
  H   H1022     1.0  0.83968  0.44293  0.17007  1.0000
  S   S340      1.0  0.90640  0.40062  0.48048  1.0000
  C   C1024     1.0  0.74842  0.28729  0.20100  1.0000
  H   H1023     1.0  0.82767  0.45603  0.16897  1.0000
  H   H1024     1.0  0.87210  0.48726  0.40862  1.0000
  H   H1025     1.0  0.87047  0.33370  0.00161  1.0000
  C   C1025     1.0  0.98188  0.46083  0.03188  1.0000
  C   C1026     1.0  0.87962  0.48814  0.13618  1.0000
  Fe  Fe170     1.0  0.88685  0.37295  0.48481  1.0000
  S   S341      1.0  0.94836  0.41396  0.99172  1.0000
  H   H1026     1.0  0.85931  0.44247  0.00609  1.0000
  H   H1027     1.0  0.98166  0.46970  0.01595  1.0000
  H   H1028     1.0  0.88706  0.49170  0.11747  1.0000
  N   N88       1.0  0.76771  0.48551  0.31535  1.0000
  H   H1029     1.0  0.85531  0.42216  0.98910  1.0000
  N   N89       1.0  0.87453  0.44477  0.97099  1.0000
  H   H1030     1.0  0.87125  0.33082  0.53891  1.0000
  S   S342      1.0  0.86304  0.35345  0.95449  1.0000
  Fe  Fe171     1.0  0.89488  0.40615  0.51904  1.0000
  S   S343      1.0  0.91316  0.40228  0.55039  1.0000
  H   H1031     1.0  0.78960  0.41907  0.68040  1.0000
  Fe  Fe172     1.0  0.92352  0.39474  0.51194  1.0000
  S   S344      1.0  0.95149  0.39978  0.50241  1.0000
  Fe  Fe173     1.0  0.89278  0.37451  0.55000  1.0000
  S   S345      1.0  0.88348  0.35636  0.58718  1.0000
  S   S346      1.0  0.87404  0.37905  0.52105  1.0000
  H   H1032     1.0  0.83111  0.39583  0.83754  1.0000
  C   C1027     1.0  0.82982  0.44370  0.82336  1.0000
  S   S347      1.0  0.81369  0.48195  0.70277  1.0000
  S   S348      1.0  0.80638  0.46910  0.76727  1.0000
  Fe  Fe174     1.0  0.82142  0.46587  0.73205  1.0000
  S   S349      1.0  0.82296  0.44167  0.71479  1.0000
  H   H1033     1.0  0.77328  0.42432  0.66288  1.0000
  C   C1028     1.0  0.76065  0.43578  0.74271  1.0000
  Fe  Fe175     1.0  0.82088  0.34279  0.72534  1.0000
  S   S350      1.0  0.79191  0.33248  0.72920  1.0000
  S   S351      1.0  0.83414  0.35635  0.68554  1.0000
  Fe  Fe176     1.0  0.82723  0.34241  0.79044  1.0000
  S   S352      1.0  0.79885  0.33210  0.79824  1.0000
  S   S353      1.0  0.85091  0.35477  0.82114  1.0000
  Fe  Fe177     1.0  0.79446  0.31388  0.76058  1.0000
  S   S354      1.0  0.77697  0.28429  0.76270  1.0000
  Fe  Fe178     1.0  0.79825  0.35112  0.76633  1.0000
  S   S355      1.0  0.78672  0.37016  0.77563  1.0000
  S   S356      1.0  0.82341  0.32315  0.75452  1.0000
  S   S357      1.0  0.82664  0.36246  0.76081  1.0000
  C   C1029     1.0  0.81266  0.42196  0.73202  1.0000
  C   C1030     1.0  0.80269  0.42069  0.75521  1.0000
  C   C1031     1.0  0.79456  0.40467  0.76833  1.0000
  C   C1032     1.0  0.79656  0.38996  0.75850  1.0000
  C   C1033     1.0  0.80660  0.39130  0.73543  1.0000
  C   C1034     1.0  0.81456  0.40724  0.72215  1.0000
  H   H1034     1.0  0.80119  0.43199  0.76301  1.0000
  H   H1035     1.0  0.78685  0.40370  0.78627  1.0000
  H   H1036     1.0  0.80804  0.37998  0.72749  1.0000
  H   H1037     1.0  0.82221  0.40812  0.70416  1.0000
  C   C1035     1.0  0.89619  0.47100  0.95324  1.0000
  H   H1038     1.0  0.88278  0.36721  0.68698  1.0000
  C   C1036     1.0  0.82828  0.34702  0.52549  1.0000
  C   C1037     1.0  0.89484  0.46129  0.52958  1.0000
  C   C1038     1.0  0.75438  0.27019  0.75701  1.0000
  H   H1039     1.0  0.84739  0.43655  0.97249  1.0000
  Fe  Fe179     1.0  0.80011  0.48710  0.73936  1.0000
  H   H1040     1.0  0.90230  0.48888  0.53126  1.0000
  H   H1041     1.0  0.75824  0.24699  0.76412  1.0000
  C   C1039     1.0  0.97345  0.43437  0.51838  1.0000
  H   H1042     1.0  0.82657  0.45238  0.83650  1.0000
  C   C1040     1.0  0.85962  0.35477  0.91759  1.0000
  C   C1041     1.0  0.84378  0.34323  0.90434  1.0000
  C   C1042     1.0  0.84069  0.34331  0.87506  1.0000
  C   C1043     1.0  0.85353  0.35479  0.85848  1.0000
  C   C1044     1.0  0.86933  0.36640  0.87175  1.0000
  C   C1045     1.0  0.87232  0.36651  0.90108  1.0000
  H   H1043     1.0  0.83386  0.33404  0.91678  1.0000
  H   H1044     1.0  0.82851  0.33423  0.86529  1.0000
  H   H1045     1.0  0.87943  0.37528  0.85923  1.0000
  H   H1046     1.0  0.88461  0.37537  0.91080  1.0000
  C   C1046     1.0  0.86964  0.35652  0.61425  1.0000
  C   C1047     1.0  0.86383  0.36961  0.61701  1.0000
  C   C1048     1.0  0.85280  0.36913  0.63868  1.0000
  C   C1049     1.0  0.84728  0.35554  0.65778  1.0000
  C   C1050     1.0  0.85280  0.34225  0.65467  1.0000
  C   C1051     1.0  0.86400  0.34283  0.63320  1.0000
  H   H1047     1.0  0.86793  0.38019  0.60259  1.0000
  H   H1048     1.0  0.84859  0.37947  0.64074  1.0000
  H   H1049     1.0  0.84859  0.33163  0.66902  1.0000
  H   H1050     1.0  0.86830  0.33256  0.63121  1.0000
  C   C1052     1.0  0.97187  0.41844  0.50690  1.0000
  C   C1053     1.0  0.76986  0.43807  0.71832  1.0000
  C   C1054     1.0  0.90025  0.44804  0.52526  1.0000
  C   C1055     1.0  0.83798  0.42147  0.78984  1.0000
  S   S358      1.0  0.90445  0.36641  0.51387  1.0000
  H   H1051     1.0  0.76938  0.39837  0.71062  1.0000
  H   H1052     1.0  0.85376  0.31290  0.52010  1.0000
  C   C1056     1.0  0.74875  0.25207  0.75981  1.0000
  C   C1057     1.0  0.76683  0.40890  0.71936  1.0000
  C   C1058     1.0  0.90659  0.47876  0.52799  1.0000
  N   N90       1.0  0.84764  0.33348  0.53374  1.0000
  C   C1059     1.0  0.84363  0.43897  0.78296  1.0000
  N   N91       1.0  0.87308  0.36938  0.72674  1.0000
  C   C1060     1.0  0.87933  0.36168  0.70743  1.0000
  C   C1061     1.0  0.86900  0.36254  0.75265  1.0000
  C   C1062     1.0  0.88088  0.34627  0.71342  1.0000
  C   C1063     1.0  0.87047  0.34721  0.75941  1.0000
  C   C1064     1.0  0.87632  0.33896  0.73956  1.0000
  C   C1065     1.0  0.87135  0.38543  0.72016  1.0000
  H   H1053     1.0  0.86443  0.36885  0.76824  1.0000
  H   H1054     1.0  0.86695  0.34171  0.77989  1.0000
  H   H1055     1.0  0.87730  0.32694  0.74447  1.0000
  H   H1056     1.0  0.96203  0.43568  0.52486  1.0000
  H   H1057     1.0  0.87067  0.38701  0.69713  1.0000
  H   H1058     1.0  0.85903  0.38492  0.72795  1.0000
  C   C1066     1.0  0.91764  0.45226  0.52066  1.0000
  H   H1059     1.0  0.75830  0.44645  0.75155  1.0000
  C   C1067     1.0  0.74188  0.27646  0.75124  1.0000
  S   S359      1.0  0.77143  0.48051  0.72777  1.0000
  H   H1060     1.0  0.76020  0.25964  0.83071  1.0000
  H   H1061     1.0  0.91831  0.46881  0.93656  1.0000
  C   C1068     1.0  0.82434  0.42612  0.82962  1.0000
  C   C1069     1.0  0.87417  0.48180  0.60062  1.0000
  C   C1070     1.0  0.86242  0.47556  0.62189  1.0000
  C   C1071     1.0  0.84363  0.33171  0.56133  1.0000
  N   N92       1.0  0.86646  0.48314  0.64825  1.0000
  C   C1072     1.0  0.88049  0.46217  0.96607  1.0000
  C   C1073     1.0  0.78245  0.42739  0.68135  1.0000
  H   H1062     1.0  0.79234  0.44109  0.68038  1.0000
  C   C1074     1.0  0.88376  0.43571  0.96315  1.0000
  H   H1063     1.0  0.84808  0.48237  0.88214  1.0000
  H   H1064     1.0  0.84372  0.46369  0.79476  1.0000
  H   H1065     1.0  0.88244  0.39688  0.72983  1.0000
  H   H1066     1.0  0.82312  0.38877  0.80199  1.0000
  C   C1075     1.0  0.75759  0.40616  0.74381  1.0000
  C   C1076     1.0  0.83951  0.45011  0.79988  1.0000
  H   H1067     1.0  0.88541  0.33997  0.69774  1.0000
  S   S360      1.0  0.83924  0.49041  0.82717  1.0000
  C   C1077     1.0  0.98353  0.43133  0.98633  1.0000
  C   C1078     1.0  0.89952  0.44414  0.95030  1.0000
  H   H1068     1.0  0.85592  0.48688  0.68635  1.0000
  H   H1069     1.0  0.87930  0.42203  0.96776  1.0000
  H   H1070     1.0  0.80903  0.39128  0.82632  1.0000
  H   H1071     1.0  0.90710  0.43704  0.94508  1.0000
  H   H1072     1.0  0.85075  0.44378  0.76421  1.0000
  S   S361      1.0  0.84623  0.48784  0.74699  1.0000
  Fe  Fe180     1.0  0.83105  0.49252  0.78116  1.0000
  S   S362      1.0  0.88465  0.42645  0.52296  1.0000
  C   C1079     1.0  0.83979  0.34059  0.51568  1.0000
  C   C1080     1.0  0.92372  0.48302  0.52163  1.0000
  N   N93       1.0  0.77306  0.42480  0.70722  1.0000
  C   C1081     1.0  0.90579  0.46193  0.94548  1.0000
  H   H1073     1.0  0.81677  0.42121  0.84788  1.0000
  H   H1074     1.0  0.92188  0.44203  0.51750  1.0000
  C   C1082     1.0  0.83221  0.33802  0.57187  1.0000
  H   H1075     1.0  0.88143  0.45803  0.53344  1.0000
  H   H1076     1.0  0.81599  0.35108  0.56189  1.0000
  H   H1077     1.0  0.87334  0.46941  0.97278  1.0000
  H   H1078     1.0  0.75442  0.28534  0.82072  1.0000
  C   C1083     1.0  0.92942  0.46982  0.51894  1.0000
  H   H1079     1.0  0.84094  0.41282  0.77626  1.0000
  H   H1080     1.0  0.86553  0.33337  0.50354  1.0000
  H   H1081     1.0  0.84986  0.46494  0.61699  1.0000
  H   H1082     1.0  0.75306  0.39366  0.75374  1.0000
  C   C1084     1.0  0.82271  0.39695  0.82012  1.0000
  C   C1085     1.0  0.75454  0.41974  0.75556  1.0000
  N   N94       1.0  0.82835  0.41524  0.81282  1.0000
  H   H1083     1.0  0.77451  0.45057  0.70841  1.0000
  C   C1086     1.0  0.82461  0.34585  0.55384  1.0000
  C   C1087     1.0  0.86010  0.32726  0.52351  1.0000
  H   H1084     1.0  0.74587  0.29029  0.74892  1.0000
  C   C1088     1.0  0.75384  0.48515  0.73846  1.0000
  C   C1089     1.0  0.74696  0.25815  0.82815  1.0000
  H   H1085     1.0  0.84045  0.47230  0.66138  1.0000
  H   H1086     1.0  0.82962  0.33720  0.59404  1.0000
  H   H1087     1.0  0.87071  0.47628  0.57944  1.0000
  H   H1088     1.0  0.84977  0.32596  0.57559  1.0000
  H   H1089     1.0  0.98014  0.43874  0.97095  1.0000
  H   H1090     1.0  0.84280  0.34181  0.49370  1.0000
  Fe  Fe181     1.0  0.88397  0.37221  0.98573  1.0000
  S   S363      1.0  0.90042  0.40083  0.98213  1.0000
  H   H1091     1.0  0.74746  0.41787  0.77458  1.0000
  H   H1092     1.0  0.82253  0.35316  0.51127  1.0000
  C   C1090     1.0  0.74371  0.27262  0.82259  1.0000
  H   H1093     1.0  0.94274  0.47310  0.51431  1.0000
  H   H1094     1.0  0.90121  0.48494  0.95028  1.0000
  H   H1095     1.0  0.85502  0.46537  0.68045  1.0000
  C   C1091     1.0  0.85827  0.43603  0.98521  1.0000
  C   C1092     1.0  0.85389  0.47653  0.67017  1.0000
  H   H1096     1.0  0.98600  0.40493  0.48967  1.0000
  C   C1093     1.0  0.98699  0.41714  0.49863  1.0000
  C   C1094     1.0  0.73740  0.47614  0.72483  1.0000
  Fe  Fe182     1.0  0.92976  0.55251  0.01625  1.0000
  H   H1097     1.0  0.76659  0.50680  0.25919  1.0000
  S   S364      1.0  0.95369  0.57720  0.03004  1.0000
  S   S365      1.0  0.89167  0.50801  0.99456  1.0000
  H   H1098     1.0  0.95761  0.52869  0.03239  1.0000
  H   H1099     1.0  0.86835  0.51423  0.32526  1.0000
  S   S366      1.0  0.89606  0.53071  0.42018  1.0000
  Fe  Fe183     1.0  0.89459  0.52435  0.03424  1.0000
  S   S367      1.0  0.87278  0.51125  0.06500  1.0000
  C   C1095     1.0  0.85185  0.50301  0.11040  1.0000
  S   S368      1.0  0.92235  0.52910  0.04310  1.0000
  C   C1096     1.0  0.92196  0.57644  0.44076  1.0000
  S   S369      1.0  0.85336  0.52215  0.19071  1.0000
  H   H1100     1.0  0.95073  0.61231  0.47696  1.0000
  C   C1097     1.0  0.88497  0.49906  0.16013  1.0000
  H   H1101     1.0  0.89313  0.52497  0.36033  1.0000
  S   S370      1.0  0.81775  0.51047  0.25191  1.0000
  C   C1098     1.0  0.93331  0.57374  0.42308  1.0000
  C   C1099     1.0  0.84668  0.51197  0.38442  1.0000
  S   S371      1.0  0.90202  0.54918  0.01016  1.0000
  Fe  Fe184     1.0  0.91996  0.51493  0.00221  1.0000
  C   C1100     1.0  0.86610  0.51516  0.34724  1.0000
  C   C1101     1.0  0.88016  0.52130  0.36727  1.0000
  C   C1102     1.0  0.87763  0.52282  0.39601  1.0000
  C   C1103     1.0  0.86073  0.51798  0.40448  1.0000
  C   C1104     1.0  0.97161  0.53567  0.03349  1.0000
  H   H1102     1.0  0.74235  0.51448  0.27037  1.0000
  H   H1103     1.0  0.83373  0.50854  0.39125  1.0000
  C   C1105     1.0  0.92828  0.59044  0.46014  1.0000
  C   C1106     1.0  0.86730  0.51518  0.09950  1.0000
  H   H1104     1.0  0.97841  0.61943  0.42701  1.0000
  C   C1107     1.0  0.84921  0.51055  0.35562  1.0000
  C   C1108     1.0  0.85804  0.51928  0.15519  1.0000
  C   C1109     1.0  0.87333  0.53162  0.14411  1.0000
  C   C1110     1.0  0.87801  0.52955  0.11660  1.0000
  Fe  Fe185     1.0  0.90197  0.53320  0.46800  1.0000
  C   C1111     1.0  0.94592  0.60167  0.46141  1.0000
  H   H1105     1.0  0.88174  0.54281  0.15703  1.0000
  H   H1106     1.0  0.88988  0.53909  0.10866  1.0000
  C   C1112     1.0  0.97498  0.58225  0.01915  1.0000
  C   C1113     1.0  0.95091  0.58515  0.42505  1.0000
  N   N95       1.0  0.95701  0.59884  0.44416  1.0000
  H   H1107     1.0  0.76450  0.50681  0.33451  1.0000
  H   H1108     1.0  0.90831  0.56757  0.43960  1.0000
  H   H1109     1.0  0.79150  0.50459  0.33442  1.0000
  C   C1114     1.0  0.87489  0.49472  0.18360  1.0000
  H   H1110     1.0  0.85847  0.51912  0.42639  1.0000
  C   C1115     1.0  0.84729  0.50495  0.13803  1.0000
  H   H1111     1.0  0.98704  0.60349  0.04952  1.0000
  H   H1112     1.0  0.95967  0.58295  0.41127  1.0000
  C   C1116     1.0  0.75342  0.49795  0.25308  1.0000
  S   S372      1.0  0.83089  0.50323  0.33126  1.0000
  H   H1113     1.0  0.83543  0.49541  0.14599  1.0000
  Fe  Fe186     1.0  0.83371  0.50373  0.22059  1.0000
  H   H1114     1.0  0.97930  0.61923  0.46473  1.0000
  Fe  Fe187     1.0  0.82699  0.49631  0.28381  1.0000
  H   H1115     1.0  0.92845  0.56275  0.40815  1.0000
  H   H1116     1.0  0.93070  0.59281  0.01221  1.0000
  S   S373      1.0  0.93047  0.54139  0.47793  1.0000
  C   C1117     1.0  0.73960  0.50226  0.25937  1.0000
  H   H1117     1.0  0.90522  0.50296  0.43143  1.0000
  C   C1118     1.0  0.97802  0.57290  0.99725  1.0000
  S   S374      1.0  0.93344  0.49739  0.99813  1.0000
  H   H1118     1.0  0.97212  0.55455  0.06469  1.0000
  C   C1119     1.0  0.97544  0.61084  0.44527  1.0000
  H   H1119     1.0  0.89658  0.51118  0.16014  1.0000
  C   C1120     1.0  0.97978  0.55009  0.05179  1.0000
  H   H1120     1.0  0.98357  0.60349  0.44521  1.0000
  H   H1121     1.0  0.87858  0.50345  0.20196  1.0000
  H   H1122     1.0  0.79173  0.50017  0.29741  1.0000
  H   H1123     1.0  0.92808  0.49376  0.44630  1.0000
  C   C1121     1.0  0.98150  0.53041  0.01629  1.0000
  H   H1124     1.0  0.97514  0.51924  0.00193  1.0000
  H   H1125     1.0  0.87311  0.49652  0.44319  1.0000
  C   C1122     1.0  0.78665  0.49421  0.31762  1.0000
  C   C1123     1.0  0.92588  0.59471  0.99117  1.0000
  H   H1126     1.0  0.91966  0.59240  0.47454  1.0000
  H   H1127     1.0  0.74094  0.50257  0.19395  1.0000
  C   C1124     1.0  0.75816  0.49386  0.32481  1.0000
  H   H1128     1.0  0.91159  0.58709  0.99020  1.0000
  H   H1129     1.0  0.92884  0.60871  0.98905  1.0000
  Fe  Fe188     1.0  0.92831  0.55806  0.51275  1.0000
  H   H1130     1.0  0.97992  0.53015  0.52057  1.0000
  S   S375      1.0  0.94893  0.58559  0.52239  1.0000
  C   C1125     1.0  0.98173  0.59031  0.50408  1.0000
  H   H1131     1.0  0.96106  0.54204  0.54231  1.0000
  Fe  Fe189     1.0  0.90054  0.53286  0.97113  1.0000
  S   S376      1.0  0.89085  0.53769  0.92783  1.0000
  Fe  Fe190     1.0  0.89395  0.52957  0.53144  1.0000
  S   S377      1.0  0.87083  0.51749  0.55984  1.0000
  H   H1132     1.0  0.91030  0.57299  0.94707  1.0000
  S   S378      1.0  0.92178  0.53760  0.54535  1.0000
  S   S379      1.0  0.93742  0.50455  0.51410  1.0000
  S   S380      1.0  0.85862  0.52263  0.69111  1.0000
  H   H1133     1.0  0.74308  0.51034  0.78344  1.0000
  C   C1126     1.0  0.93210  0.57239  0.92693  1.0000
  C   C1127     1.0  0.95175  0.59526  0.96995  1.0000
  S   S381      1.0  0.82401  0.51102  0.75492  1.0000
  H   H1134     1.0  0.88538  0.50284  0.67514  1.0000
  H   H1135     1.0  0.97398  0.57175  0.56431  1.0000
  C   C1128     1.0  0.97910  0.61482  0.52625  1.0000
  Fe  Fe191     1.0  0.92226  0.52056  0.50949  1.0000
  H   H1136     1.0  0.97396  0.59460  0.95061  1.0000
  C   C1129     1.0  0.86697  0.50617  0.90227  1.0000
  C   C1130     1.0  0.87672  0.52413  0.89991  1.0000
  H   H1137     1.0  0.86285  0.52796  0.83292  1.0000
  C   C1131     1.0  0.88231  0.49658  0.65440  1.0000
  H   H1138     1.0  0.88250  0.54566  0.87242  1.0000
  N   N96       1.0  0.93411  0.58903  0.96919  1.0000
  H   H1139     1.0  0.95623  0.57400  0.91201  1.0000
  C   C1132     1.0  0.86747  0.51993  0.59615  1.0000
  C   C1133     1.0  0.85404  0.50385  0.85453  1.0000
  C   C1134     1.0  0.84856  0.50955  0.63595  1.0000
  C   C1135     1.0  0.86131  0.52167  0.65423  1.0000
  C   C1136     1.0  0.87703  0.53308  0.64310  1.0000
  C   C1137     1.0  0.88014  0.53218  0.61434  1.0000
  C   C1138     1.0  0.87512  0.53180  0.87460  1.0000
  S   S382      1.0  0.92878  0.53840  0.97586  1.0000
  H   H1140     1.0  0.88695  0.54261  0.65691  1.0000
  H   H1141     1.0  0.89235  0.54097  0.60629  1.0000
  C   C1139     1.0  0.97143  0.59734  0.51707  1.0000
  C   C1140     1.0  0.86395  0.52177  0.85206  1.0000
  Fe  Fe192     1.0  0.83772  0.50440  0.71950  1.0000
  H   H1142     1.0  0.84164  0.49934  0.59333  1.0000
  C   C1141     1.0  0.92430  0.57790  0.94786  1.0000
  C   C1142     1.0  0.89441  0.50307  0.63366  1.0000
  C   C1143     1.0  0.85570  0.49617  0.87981  1.0000
  C   C1144     1.0  0.95999  0.58998  0.94942  1.0000
  H   H1143     1.0  0.97137  0.62048  0.53618  1.0000
  C   C1145     1.0  0.75569  0.49745  0.75974  1.0000
  C   C1146     1.0  0.98237  0.56659  0.55511  1.0000
  C   C1147     1.0  0.98557  0.54316  0.53029  1.0000
  C   C1148     1.0  0.97496  0.54982  0.54260  1.0000
  C   C1149     1.0  0.95006  0.57840  0.92786  1.0000
  H   H1144     1.0  0.92418  0.56327  0.91040  1.0000
  C   C1150     1.0  0.74138  0.50073  0.76704  1.0000
  H   H1145     1.0  0.76817  0.50454  0.77047  1.0000
  S   S383      1.0  0.90020  0.55166  0.50119  1.0000
  C   C1151     1.0  0.85162  0.50875  0.60717  1.0000
  H   H1146     1.0  0.83631  0.50086  0.64397  1.0000
  H   H1147     1.0  0.97594  0.57687  0.49653  1.0000
  H   H1148     1.0  0.86791  0.50004  0.92154  1.0000
  S   S384      1.0  0.89407  0.51084  0.49714  1.0000
  H   H1149     1.0  0.96728  0.56220  0.98666  1.0000
  H   H1150     1.0  0.90666  0.51419  0.63831  1.0000
  H   H1151     1.0  0.89920  0.50101  0.58999  1.0000
  C   C1152     1.0  0.89023  0.49569  0.60657  1.0000
  H   H1152     1.0  0.95952  0.60397  0.98701  1.0000
