data_image0
_chemical_formula_structural       FeS2CFeS2HSC2H3C2HCFeHC4HCHCH3C7HSH2FeCSH5NHNHC2H3C2H4C2HSCFeS3CHC2FeS2FeS2FeSFeS3FeS2FeS2FeSFeS3FeSFeS2FeSFeS3FeSFeS2FeSFeS3HS2CNFeCHFeCSH4C2HC2HC3FeH2C2HNHCH4C6H4C6H4C6H4C6H4C6H4C6H4NC6H7C4NCHCH5C2HSH3CHCNH2CHCHCHC2HCNCHNCHCHSHNCHCHC2HCHCH2CH2C2H2C2H2CHCHCH2C2HNCH2C2HCNH2CHCSCHC2H3C3HCH5C2HC5H2CH3SC2HCH5C2HCHCHCH2FeS2FeS2FeS2FeS2C2FeSFeCS2HC3H3C4HC2H4CHNCH2NC2HCH2C6H3CHCNC3H2FeHSC2HCS3H4C3HC2HC3H3CHCFeHC2HCH2C2H4SHCH3C2H2FeS2H4CH2C2FeS2CH2S2FeHSHC2NH2CHSHCHCHFeCSC6H4C6H6CHC5H3CHCHSNCFeHCH5C3HNHC2SH2CHNHSNHFeC2H3SHC4HCFeH2C2FeHCS5CHCFeS2FeS2FeSFeS3FeS2FeNH3FeHS2CS2HSHSFeS2H2CHC6H4FeSFeHC6H4CH4C2H3C4HC2H4C6H4C4HCH3C6HSNCHCH2CHSHCHCHSNC6FeC2HFeHCHNC6H3CH3SHNCH3C2HC2Fe2SCHCHNHFeH2CHC3H5C2H2CHCH2SCHSC2HC2SH3SFeCHCH3SC2NCHCHC2FeSHFeS2FeS2FeSFeS3FeS2CSCFeHFeSCSFeS2FeSFeSFeS3FeS2FeS2Fe2S4C2HC6H4C6H4C6H6CHNCH2CHCH3C6H4C6H4C6H4C3H2FeH4CH2CH5NC3H2NSH2CHCSH2NC6H8NC6H3CH3SHCHC3H3NH2C4SCHCHCHCHSNH4CH3NC2HC5H3CHCHC2NCH2CH3C2HSCHFeS2FeSCFeSFeS3FeSFeSHFeSC2SCFeS2FeS2FeSFeS3FeS2FeS2FeSFeS3C2HC4H2C6H5C6H4C6H4C6H4C6H4C2HC3HCH2C7H4NC6H8C2H8CHNH2C2HC2HNC2H3C3NCSHC2FeH4C3NC2H2CH6C2H2C2H3SCNC3H2CHSCH2CH2CH2NHCNHC2H3CNCHSHCH3CH2CHCH2FeS2FeNCHC2HS2FeS2FeSCFeHFeSCS2CHSHCHC7H2CHC2H3CHCSHC2H3CH4C3HS2C3S2C7H4CHC2HC3FeSC3H3NC2H2CH2NC2H6C3H5CSHCHC2H3CFeHCNCHCHC4HCHC3H2NCHNH4C2H2CHNH2FeCHCHCHC2HSHCHCH3SFeS2FeSHFe2SCSFeS2FeS2HFeS3H2NHSCFeS3HSHFeS2CFeSHSC6H3C7H4C6H4C6H3NCS2HC2H3CH4C4H4C4SHCH2C2FeHSC2HC2HNHCNC6H10C2HSHFeHFeCH2C3H3CH3C2S2HCNHC5HCHFeCHC2H3C3H2CSCH3FeS2FeS2HFeCS2FeSHFeS2FeS2C6HCH3NC3H2NC2HCHC2H2C2HCH3C5H4FeHC2H2C2H2S2CH3SCH2CHFeH3C2HFeS2FeS2FeSFeS3HSCH2CHFeSHNHCFeS2FeS2FeSFeS3FeS2FeS2FeSFeS3C6H4C5NH5C5H5C8H4C6H4C6H4C2H2CH2C2H2CHNCH2CNC6H11CHC2HC4H2C2HCH5C2HCHFeH2C2SC2NHC5H2CH2CHNH2NCH3SC4HNCH2CH2C3H2SCFeC2H5CFeS2FeSFeSFeS3FeS2FeS2FeSFeS2C6H5CHCH4CHCH2CHSH3C6HC4HC3H3CFeCH6C2HNCH2NC2H3CHCH2SCH2C3HCHCHS2CHNCHCH3CNCH2SNH2CHC3
_chemical_formula_sum              "Fe144 S288 C864 H864 N72"
_cell_length_a       85.6554
_cell_length_b       88.1978
_cell_length_c       33.3736
_cell_angle_alpha    89.4581
_cell_angle_beta     84.4618
_cell_angle_gamma    110.259

_space_group_name_H-M_alt    "P 1"
_space_group_IT_number       1

loop_
  _space_group_symop_operation_xyz
  'x, y, z'

loop_
  _atom_site_type_symbol
  _atom_site_label
  _atom_site_symmetry_multiplicity
  _atom_site_fract_x
  _atom_site_fract_y
  _atom_site_fract_z
  _atom_site_occupancy
  Fe  Fe1       1.0  0.05852  0.47211  0.70262  1.0000
  S   S1        1.0  0.08578  0.47472  0.70050  1.0000
  S   S2        1.0  0.03727  0.44818  0.71540  1.0000
  C   C1        1.0  0.06949  0.44736  0.20960  1.0000
  Fe  Fe2       1.0  0.05120  0.47984  0.30195  1.0000
  S   S3        1.0  0.06629  0.46368  0.30716  1.0000
  S   S4        1.0  0.02603  0.47387  0.27744  1.0000
  H   H1        1.0  0.07030  0.43877  0.18607  1.0000
  S   S5        1.0  0.06973  0.46176  0.42649  1.0000
  C   C2        1.0  0.10370  0.47988  0.50571  1.0000
  C   C3        1.0  0.00969  0.45483  0.28363  1.0000
  H   H2        1.0  0.13483  0.48581  0.16923  1.0000
  H   H3        1.0  0.08020  0.44236  0.52694  1.0000
  H   H4        1.0  0.09902  0.45275  0.57743  1.0000
  C   C4        1.0  1.00000  0.45911  0.66987  1.0000
  C   C5        1.0  0.01166  0.44134  0.30188  1.0000
  H   H5        1.0  0.10391  0.47154  0.44510  1.0000
  C   C6        1.0  0.05414  0.43930  0.53609  1.0000
  Fe  Fe3       1.0  0.08823  0.48506  0.27932  1.0000
  H   H6        1.0  0.02346  0.44241  0.31284  1.0000
  C   C7        1.0  0.01755  0.44705  0.70134  1.0000
  C   C8        1.0  0.01576  0.46001  0.68034  1.0000
  C   C9        1.0  0.05094  0.47861  0.18448  1.0000
  C   C10       1.0  0.06988  0.44192  0.54907  1.0000
  H   H7        1.0  0.18957  0.48347  0.97866  1.0000
  C   C11       1.0  0.07954  0.47129  0.16364  1.0000
  H   H8        1.0  0.02643  0.47089  0.67269  1.0000
  C   C12       1.0  0.00446  0.48270  0.74622  1.0000
  H   H9        1.0  0.04320  0.45732  0.22364  1.0000
  H   H10       1.0  0.09128  0.45516  0.62738  1.0000
  H   H11       1.0  0.99986  0.41599  0.32001  1.0000
  C   C13       1.0  0.99828  0.42639  0.30590  1.0000
  C   C14       1.0  0.07028  0.47600  0.49957  1.0000
  C   C15       1.0  0.07976  0.47240  0.46680  1.0000
  C   C16       1.0  0.09406  0.48280  0.53911  1.0000
  C   C17       1.0  0.09657  0.47460  0.46985  1.0000
  C   C18       1.0  0.04343  0.44143  0.60455  1.0000
  C   C19       1.0  0.05301  0.46499  0.20167  1.0000
  H   H12       1.0  0.03972  0.48138  0.19329  1.0000
  S   S6        1.0  0.06117  0.48559  0.64379  1.0000
  H   H13       1.0  0.05899  0.44087  0.23281  1.0000
  H   H14       1.0  0.14532  0.49128  0.83540  1.0000
  Fe  Fe4       1.0  0.07217  0.47523  0.36671  1.0000
  C   C20       1.0  0.04087  0.43916  0.56405  1.0000
  S   S7        1.0  0.10773  0.48290  0.23034  1.0000
  H   H15       1.0  0.05241  0.43785  0.50432  1.0000
  H   H16       1.0  0.01230  0.47761  0.76137  1.0000
  H   H17       1.0  0.06117  0.44569  0.64810  1.0000
  H   H18       1.0  0.00479  0.42290  0.72728  1.0000
  H   H19       1.0  0.08121  0.45118  0.22462  1.0000
  N   N1        1.0  0.07236  0.44446  0.58874  1.0000
  H   H20       1.0  0.09095  0.46870  0.15595  1.0000
  N   N2        1.0  0.06724  0.46155  0.19132  1.0000
  H   H21       1.0  0.08961  0.43511  0.61164  1.0000
  C   C21       1.0  0.07738  0.48116  0.53563  1.0000
  C   C22       1.0  0.08885  0.44688  0.60195  1.0000
  H   H22       1.0  0.99870  0.46934  0.65423  1.0000
  H   H23       1.0  0.12349  0.49072  0.79075  1.0000
  H   H24       1.0  0.05719  0.47408  0.49773  1.0000
  C   C23       1.0  0.05933  0.44399  0.61649  1.0000
  C   C24       1.0  0.00347  0.43302  0.71116  1.0000
  H   H25       1.0  0.02864  0.43735  0.55436  1.0000
  H   H26       1.0  0.21070  0.48837  0.99080  1.0000
  H   H27       1.0  0.06984  0.48357  0.56078  1.0000
  H   H28       1.0  0.03319  0.44124  0.62666  1.0000
  C   C25       1.0  0.07788  0.48500  0.14587  1.0000
  C   C26       1.0  0.20137  0.49362  0.98211  1.0000
  H   H29       1.0  0.11662  0.48120  0.50797  1.0000
  S   S8        1.0  0.05549  0.48982  0.36316  1.0000
  C   C27       1.0  0.06350  0.48869  0.15654  1.0000
  Fe  Fe5       1.0  0.08842  0.48973  0.64325  1.0000
  S   S9        1.0  0.10338  0.48830  0.58438  1.0000
  S   S10       1.0  0.06156  0.49376  0.73978  1.0000
  S   S11       1.0  0.09545  0.49483  0.33953  1.0000
  C   C28       1.0  0.01199  0.49731  0.72356  1.0000
  H   H30       1.0  0.08786  0.49285  0.12452  1.0000
  C   C29       1.0  0.13063  0.49585  0.16418  1.0000
  C   C30       1.0  0.11728  0.49738  0.18981  1.0000
  Fe  Fe6       1.0  0.08368  0.62475  0.35789  1.0000
  S   S12       1.0  0.07673  0.64552  0.33631  1.0000
  S   S13       1.0  0.09101  0.61936  0.41881  1.0000
  Fe  Fe7       1.0  0.07774  0.60841  0.27708  1.0000
  S   S14       1.0  0.07009  0.62766  0.24953  1.0000
  S   S15       1.0  0.07736  0.58685  0.24165  1.0000
  Fe  Fe8       1.0  0.09204  0.64483  0.27731  1.0000
  S   S16       1.0  0.11427  0.66574  0.24688  1.0000
  Fe  Fe9       1.0  0.05551  0.62631  0.31027  1.0000
  S   S17       1.0  0.02806  0.62305  0.32492  1.0000
  S   S18       1.0  0.10046  0.62533  0.30117  1.0000
  S   S19       1.0  0.06171  0.60576  0.33542  1.0000
  Fe  Fe10      1.0  0.09683  0.61394  0.67992  1.0000
  S   S20       1.0  0.08540  0.61494  0.74244  1.0000
  S   S21       1.0  0.10926  0.59577  0.66720  1.0000
  Fe  Fe11      1.0  0.08343  0.63796  0.64424  1.0000
  S   S22       1.0  0.07052  0.64074  0.70444  1.0000
  S   S23       1.0  0.07971  0.64984  0.58705  1.0000
  Fe  Fe12      1.0  0.09450  0.64176  0.72973  1.0000
  S   S24       1.0  0.10445  0.65993  0.77795  1.0000
  Fe  Fe13      1.0  0.06273  0.61373  0.71216  1.0000
  S   S25       1.0  0.03858  0.59378  0.73515  1.0000
  S   S26       1.0  0.10791  0.64091  0.66865  1.0000
  S   S27       1.0  0.07375  0.61107  0.65030  1.0000
  Fe  Fe14      1.0  0.19783  0.70532  0.99184  1.0000
  S   S28       1.0  0.18499  0.69106  0.05012  1.0000
  Fe  Fe15      1.0  0.17232  0.68120  0.94076  1.0000
  S   S29       1.0  0.15817  0.66569  0.99509  1.0000
  S   S30       1.0  0.16796  0.67251  0.87678  1.0000
  Fe  Fe16      1.0  0.16076  0.68884  0.02564  1.0000
  S   S31       1.0  0.13607  0.68740  0.06066  1.0000
  Fe  Fe17      1.0  0.18300  0.66870  0.01598  1.0000
  S   S32       1.0  0.18450  0.64656  0.04786  1.0000
  S   S33       1.0  0.17342  0.70464  0.96918  1.0000
  S   S34       1.0  0.19734  0.68264  0.95973  1.0000
  Fe  Fe18      1.0  0.19988  0.53903  0.00109  1.0000
  S   S35       1.0  0.19062  0.55725  0.03334  1.0000
  Fe  Fe19      1.0  0.16990  0.52891  0.94910  1.0000
  S   S36       1.0  0.15901  0.54649  0.97737  1.0000
  S   S37       1.0  0.15926  0.51149  0.89974  1.0000
  Fe  Fe20      1.0  0.18548  0.56394  0.97209  1.0000
  S   S38       1.0  0.19179  0.58911  0.94383  1.0000
  Fe  Fe21      1.0  0.16469  0.53828  0.03687  1.0000
  S   S39       1.0  0.14496  0.53666  0.09018  1.0000
  S   S40       1.0  0.19626  0.54694  0.93947  1.0000
  S   S41       1.0  0.17408  0.51945  0.00893  1.0000
  H   H31       1.0  0.15612  0.64306  0.22835  1.0000
  S   S42       1.0  0.09433  0.51287  0.67587  1.0000
  S   S43       1.0  0.05464  0.52595  0.67072  1.0000
  C   C31       1.0  0.10422  0.56677  0.75494  1.0000
  N   N3        1.0  0.07504  0.56279  0.77088  1.0000
  Fe  Fe22      1.0  0.08926  0.49781  0.73369  1.0000
  C   C32       1.0  0.09854  0.51621  0.44164  1.0000
  H   H32       1.0  0.02393  0.58648  0.35007  1.0000
  Fe  Fe23      1.0  0.07833  0.50867  0.33204  1.0000
  C   C33       1.0  0.14358  0.51168  0.86823  1.0000
  S   S44       1.0  0.08689  0.53376  0.35471  1.0000
  H   H33       1.0  0.14445  0.56165  0.18469  1.0000
  H   H34       1.0  0.02910  0.61860  0.69673  1.0000
  H   H35       1.0  0.04601  0.57690  0.29113  1.0000
  H   H36       1.0  0.15106  0.59608  0.00708  1.0000
  C   C34       1.0  0.07668  0.52324  0.48115  1.0000
  C   C35       1.0  0.21916  0.52457  0.87680  1.0000
  H   H37       1.0  0.02800  0.57127  0.61407  1.0000
  C   C36       1.0  0.13384  0.52064  0.12613  1.0000
  C   C37       1.0  0.20213  0.51565  0.88508  1.0000
  H   H38       1.0  0.10683  0.63255  0.12904  1.0000
  C   C38       1.0  0.23036  0.52295  0.90281  1.0000
  C   C39       1.0  0.11193  0.51037  0.18274  1.0000
  C   C40       1.0  0.12013  0.52188  0.15100  1.0000
  Fe  Fe24      1.0  0.06671  0.50751  0.68048  1.0000
  H   H39       1.0  0.10163  0.51169  0.20198  1.0000
  H   H40       1.0  0.11609  0.53203  0.14622  1.0000
  C   C41       1.0  0.00414  0.55983  0.29790  1.0000
  C   C42       1.0  0.11854  0.51097  0.81713  1.0000
  H   H41       1.0  0.20127  0.69904  0.86243  1.0000
  N   N4        1.0  0.12830  0.55005  0.23743  1.0000
  H   H42       1.0  0.03842  0.58575  0.64927  1.0000
  C   C43       1.0  0.13544  0.52297  0.87199  1.0000
  H   H43       1.0  0.07056  0.52836  0.58172  1.0000
  H   H44       1.0  0.05929  0.57023  0.81323  1.0000
  H   H45       1.0  0.02545  0.50345  0.72127  1.0000
  H   H46       1.0  0.13864  0.53194  0.89455  1.0000
  C   C44       1.0  0.18748  0.63096  0.01897  1.0000
  C   C45       1.0  0.19236  0.63331  0.97753  1.0000
  C   C46       1.0  0.19434  0.62055  0.95515  1.0000
  C   C47       1.0  0.19114  0.60529  0.97386  1.0000
  C   C48       1.0  0.18641  0.60298  0.01538  1.0000
  C   C49       1.0  0.18467  0.61582  0.03788  1.0000
  H   H47       1.0  0.19469  0.64497  0.96277  1.0000
  H   H48       1.0  0.19812  0.62244  0.92308  1.0000
  H   H49       1.0  0.18394  0.59127  0.03007  1.0000
  H   H50       1.0  0.18100  0.61397  0.06999  1.0000
  C   C50       1.0  0.09380  0.57668  0.66432  1.0000
  C   C51       1.0  0.07703  0.57411  0.67764  1.0000
  C   C52       1.0  0.06488  0.55864  0.67766  1.0000
  C   C53       1.0  0.06952  0.54558  0.66531  1.0000
  C   C54       1.0  0.08616  0.54821  0.65076  1.0000
  C   C55       1.0  0.09831  0.56371  0.65044  1.0000
  H   H51       1.0  0.07348  0.58383  0.68991  1.0000
  H   H52       1.0  0.05202  0.55671  0.68890  1.0000
  H   H53       1.0  0.08973  0.53838  0.63945  1.0000
  H   H54       1.0  0.11123  0.56564  0.63985  1.0000
  C   C56       1.0  0.12159  0.66219  0.80660  1.0000
  C   C57       1.0  0.13440  0.65631  0.79398  1.0000
  C   C58       1.0  0.14838  0.65945  0.81605  1.0000
  C   C59       1.0  0.14960  0.66819  0.85143  1.0000
  C   C60       1.0  0.13664  0.67380  0.86446  1.0000
  C   C61       1.0  0.12284  0.67097  0.84191  1.0000
  H   H55       1.0  0.13372  0.64964  0.76678  1.0000
  H   H56       1.0  0.15836  0.65514  0.80544  1.0000
  H   H57       1.0  0.13736  0.68058  0.89150  1.0000
  H   H58       1.0  0.11304  0.67562  0.85197  1.0000
  C   C62       1.0  0.11992  0.67142  0.19482  1.0000
  C   C63       1.0  0.13681  0.68006  0.18138  1.0000
  C   C64       1.0  0.14199  0.68459  0.14029  1.0000
  C   C65       1.0  0.13022  0.68103  0.11229  1.0000
  C   C66       1.0  0.11327  0.67269  0.12583  1.0000
  C   C67       1.0  0.10816  0.66765  0.16676  1.0000
  H   H59       1.0  0.14597  0.68328  0.20289  1.0000
  H   H60       1.0  0.15502  0.69125  0.13044  1.0000
  H   H61       1.0  0.10404  0.67009  0.10450  1.0000
  H   H62       1.0  0.09509  0.66121  0.17673  1.0000
  C   C68       1.0  0.08748  0.62800  0.46508  1.0000
  C   C69       1.0  0.09168  0.62224  0.50043  1.0000
  C   C70       1.0  0.08934  0.62882  0.53784  1.0000
  C   C71       1.0  0.08285  0.64135  0.54029  1.0000
  C   C72       1.0  0.07859  0.64712  0.50502  1.0000
  C   C73       1.0  0.08082  0.64043  0.46757  1.0000
  H   H63       1.0  0.09691  0.61268  0.49878  1.0000
  H   H64       1.0  0.09279  0.62432  0.56463  1.0000
  H   H65       1.0  0.07358  0.65682  0.50655  1.0000
  H   H66       1.0  0.07759  0.64501  0.44056  1.0000
  C   C74       1.0  0.07962  0.57205  0.27345  1.0000
  C   C75       1.0  0.08549  0.57603  0.31100  1.0000
  C   C76       1.0  0.08753  0.56416  0.33603  1.0000
  C   C77       1.0  0.08345  0.54824  0.32383  1.0000
  C   C78       1.0  0.07727  0.54421  0.28660  1.0000
  C   C79       1.0  0.07546  0.55613  0.26128  1.0000
  H   H67       1.0  0.08869  0.58832  0.32065  1.0000
  H   H68       1.0  0.09231  0.56735  0.36484  1.0000
  H   H69       1.0  0.07392  0.53197  0.27715  1.0000
  H   H70       1.0  0.07077  0.55301  0.23238  1.0000
  N   N5        1.0  0.15449  0.60425  0.94542  1.0000
  C   C80       1.0  0.16091  0.60163  0.90803  1.0000
  C   C81       1.0  0.15274  0.61882  0.95327  1.0000
  C   C82       1.0  0.16610  0.61390  0.87757  1.0000
  C   C83       1.0  0.15765  0.63128  0.92338  1.0000
  C   C84       1.0  0.16442  0.62881  0.88540  1.0000
  C   C85       1.0  0.14881  0.59117  0.97676  1.0000
  H   H71       1.0  0.16255  0.59016  0.90197  1.0000
  H   H72       1.0  0.14784  0.62100  0.98300  1.0000
  H   H73       1.0  0.17158  0.61190  0.84833  1.0000
  H   H74       1.0  0.15639  0.64287  0.92963  1.0000
  H   H75       1.0  0.16846  0.63852  0.86228  1.0000
  H   H76       1.0  0.13528  0.58425  0.97613  1.0000
  H   H77       1.0  0.15587  0.58273  0.97235  1.0000
  C   C86       1.0  0.06164  0.56941  0.78018  1.0000
  C   C87       1.0  0.19650  0.50538  0.91969  1.0000
  C   C88       1.0  0.00215  0.55493  0.25838  1.0000
  C   C89       1.0  0.01838  0.60750  0.70021  1.0000
  N   N6        1.0  0.03080  0.59582  0.60017  1.0000
  C   C90       1.0  0.01398  0.59310  0.60392  1.0000
  H   H78       1.0  0.08872  0.50796  0.42458  1.0000
  C   C91       1.0  0.03364  0.57067  0.28221  1.0000
  H   H79       1.0  0.09706  0.52245  0.57901  1.0000
  H   H80       1.0  0.04919  0.58448  0.60088  1.0000
  H   H81       1.0  0.17686  0.73384  0.88065  1.0000
  H   H82       1.0  0.00214  0.61777  0.67331  1.0000
  H   H83       1.0  0.14369  0.65584  0.23787  1.0000
  C   C92       1.0  0.21651  0.73674  0.89524  1.0000
  C   C93       1.0  0.01963  0.59369  0.71842  1.0000
  H   H84       1.0  0.02644  0.60985  0.24516  1.0000
  S   S45       1.0  0.22262  0.53292  0.01859  1.0000
  H   H85       1.0  0.12676  0.57329  0.22455  1.0000
  H   H86       1.0  0.01046  0.56695  0.37154  1.0000
  H   H87       1.0  0.05766  0.52913  0.51840  1.0000
  C   C94       1.0  0.06911  0.52643  0.51764  1.0000
  H   H88       1.0  0.07101  0.52357  0.45353  1.0000
  C   C95       1.0  0.09857  0.51985  0.51462  1.0000
  N   N7        1.0  0.09104  0.51969  0.48019  1.0000
  H   H89       1.0  0.11006  0.51720  0.51396  1.0000
  H   H90       1.0  0.10767  0.51009  0.44592  1.0000
  C   C96       1.0  0.03211  0.56601  0.24244  1.0000
  H   H91       1.0  0.10774  0.55620  0.22203  1.0000
  C   C97       1.0  0.99732  0.59915  0.32687  1.0000
  H   H92       1.0  0.11359  0.63226  0.19932  1.0000
  C   C98       1.0  0.04193  0.61013  0.58314  1.0000
  H   H93       1.0  0.15906  0.65649  0.08992  1.0000
  C   C99       1.0  0.12370  0.63695  0.17519  1.0000
  C   C100      1.0  0.11978  0.63711  0.13547  1.0000
  H   H94       1.0  0.13419  0.63424  0.24498  1.0000
  C   C101      1.0  0.00791  0.60478  0.58995  1.0000
  N   N8        1.0  0.13995  0.64339  0.18374  1.0000
  C   C102      1.0  0.11897  0.56122  0.23848  1.0000
  H   H95       1.0  0.11299  0.53541  0.28767  1.0000
  N   N9        1.0  0.21603  0.72175  0.88367  1.0000
  C   C103      1.0  0.15257  0.65023  0.15354  1.0000
  H   H96       1.0  0.22360  0.53292  0.85068  1.0000
  C   C104      1.0  0.09128  0.52286  0.55164  1.0000
  H   H97       1.0  0.16541  0.65579  0.16027  1.0000
  S   S46       1.0  0.10260  0.51116  0.78649  1.0000
  H   H98       1.0  0.00779  0.51510  0.68557  1.0000
  N   N10       1.0  0.20757  0.50378  0.94489  1.0000
  C   C105      1.0  0.13179  0.52603  0.26338  1.0000
  H   H99       1.0  0.14947  0.50634  0.11375  1.0000
  C   C106      1.0  0.01263  0.60723  0.30374  1.0000
  H   H100      1.0  0.01466  0.62869  0.56237  1.0000
  C   C107      1.0  0.09134  0.57297  0.76373  1.0000
  C   C108      1.0  0.14372  0.64414  0.22576  1.0000
  H   H101      1.0  0.04987  0.56183  0.76830  1.0000
  C   C109      1.0  0.00561  0.57938  0.72300  1.0000
  H   H102      1.0  0.12967  0.64508  0.07389  1.0000
  C   C110      1.0  0.18762  0.71537  0.86876  1.0000
  H   H103      1.0  0.12625  0.68626  0.72462  1.0000
  H   H104      1.0  0.00650  0.56866  0.73713  1.0000
  C   C111      1.0  0.24469  0.53989  0.00278  1.0000
  H   H105      1.0  0.09444  0.58598  0.76328  1.0000
  H   H106      1.0  0.06490  0.58165  0.76566  1.0000
  C   C112      1.0  0.13111  0.67912  0.62531  1.0000
  C   C113      1.0  0.14908  0.65065  0.11357  1.0000
  H   H107      1.0  0.11205  0.67575  0.58501  1.0000
  H   H108      1.0  0.12768  0.51561  0.28440  1.0000
  C   C114      1.0  0.12347  0.53720  0.26482  1.0000
  C   C115      1.0  0.13257  0.64412  0.10455  1.0000
  H   H109      1.0  0.13998  0.67695  0.60266  1.0000
  H   H110      1.0  0.09157  0.67974  0.63733  1.0000
  C   C116      1.0  0.11545  0.67848  0.61536  1.0000
  H   H111      1.0  0.11702  0.57491  0.74759  1.0000
  C   C117      1.0  0.13915  0.50009  0.83864  1.0000
  H   H112      1.0  0.15122  0.51917  0.23129  1.0000
  C   C118      1.0  0.12675  0.49973  0.81320  1.0000
  H   H113      1.0  0.23431  0.71264  0.85655  1.0000
  H   H114      1.0  0.15955  0.54235  0.18111  1.0000
  C   C119      1.0  0.10391  0.68078  0.64513  1.0000
  C   C120      1.0  0.13503  0.68201  0.66481  1.0000
  H   H115      1.0  0.23303  0.51158  0.95757  1.0000
  N   N11       1.0  0.10800  0.68397  0.68358  1.0000
  C   C121      1.0  0.10038  0.55007  0.75450  1.0000
  H   H116      1.0  0.14697  0.68208  0.67323  1.0000
  H   H117      1.0  0.10161  0.69239  0.74069  1.0000
  C   C122      1.0  0.12324  0.68438  0.69376  1.0000
  C   C123      1.0  0.09563  0.68620  0.71432  1.0000
  H   H118      1.0  0.08886  0.69357  0.70186  1.0000
  C   C124      1.0  0.01918  0.61939  0.57255  1.0000
  N   N12       1.0  0.01977  0.56754  0.30938  1.0000
  H   H119      1.0  0.08072  0.52684  0.76221  1.0000
  H   H120      1.0  0.22751  0.70678  0.90939  1.0000
  C   C125      1.0  0.13892  0.50743  0.13257  1.0000
  H   H121      1.0  0.08647  0.67425  0.72562  1.0000
  C   C126      1.0  0.08379  0.53981  0.76254  1.0000
  S   S47       1.0  0.22421  0.72550  0.98316  1.0000
  C   C127      1.0  0.07120  0.54639  0.77072  1.0000
  H   H122      1.0  0.11019  0.54501  0.74778  1.0000
  C   C128      1.0  0.14109  0.55194  0.20765  1.0000
  C   C129      1.0  0.14504  0.52805  0.23360  1.0000
  H   H123      1.0  0.05529  0.61248  0.58060  1.0000
  H   H124      1.0  0.11484  0.56316  0.27006  1.0000
  H   H125      1.0  0.00291  0.59005  0.21423  1.0000
  C   C130      1.0  0.12301  0.52258  0.84666  1.0000
  C   C131      1.0  0.03631  0.62211  0.56905  1.0000
  C   C132      1.0  0.01624  0.55812  0.23048  1.0000
  H   H126      1.0  0.05832  0.53828  0.77624  1.0000
  C   C133      1.0  0.07641  0.52609  0.55313  1.0000
  H   H127      1.0  0.11676  0.53132  0.85010  1.0000
  H   H128      1.0  0.04322  0.56872  0.22104  1.0000
  H   H129      1.0  0.06213  0.49940  0.14338  1.0000
  H   H130      1.0  0.04525  0.63351  0.55604  1.0000
  H   H131      1.0  0.03259  0.57124  0.36204  1.0000
  C   C134      1.0  0.14976  0.54108  0.20554  1.0000
  C   C135      1.0  0.23059  0.71676  0.88608  1.0000
  H   H132      1.0  0.19322  0.51703  0.86554  1.0000
  C   C136      1.0  0.01473  0.60360  0.26334  1.0000
  C   C137      1.0  0.03691  0.58373  0.61683  1.0000
  C   C138      1.0  0.20181  0.71108  0.87070  1.0000
  C   C139      1.0  0.02173  0.57329  0.35031  1.0000
  C   C140      1.0  0.22431  0.51241  0.93685  1.0000
  H   H133      1.0  0.22763  0.74508  0.90650  1.0000
  H   H134      1.0  0.18317  0.49890  0.92655  1.0000
  C   C141      1.0  0.00310  0.60701  0.68707  1.0000
  H   H135      1.0  0.17629  0.70676  0.85902  1.0000
  H   H136      1.0  0.10495  0.52762  0.42315  1.0000
  H   H137      1.0  0.00515  0.58206  0.61893  1.0000
  S   S48       1.0  0.07274  0.50036  0.26995  1.0000
  C   C142      1.0  0.00206  0.50381  0.70336  1.0000
  C   C143      1.0  0.18795  0.73056  0.88089  1.0000
  H   H138      1.0  0.01484  0.55468  0.19955  1.0000
  C   C144      1.0  0.20247  0.74133  0.89432  1.0000
  H   H139      1.0  0.24152  0.72678  0.89524  1.0000
  H   H140      1.0  0.24359  0.53010  0.89733  1.0000
  H   H141      1.0  0.00544  0.63504  0.27209  1.0000
  H   H142      1.0  0.00597  0.64183  0.32206  1.0000
  H   H143      1.0  0.19897  0.50107  0.00702  1.0000
  C   C145      1.0  0.00134  0.59247  0.24581  1.0000
  C   C146      1.0  0.23736  0.74631  0.98703  1.0000
  H   H144      1.0  0.24453  0.55621  0.95470  1.0000
  C   C147      1.0  0.99820  0.63917  0.29638  1.0000
  H   H145      1.0  0.99662  0.65047  0.28581  1.0000
  C   C148      1.0  0.23103  0.75834  0.99988  1.0000
  H   H146      1.0  0.21776  0.75511  0.00872  1.0000
  C   C149      1.0  0.24189  0.77460  0.00163  1.0000
  H   H147      1.0  0.23673  0.78365  0.01181  1.0000
  H   H148      1.0  0.20279  0.75304  0.90473  1.0000
  Fe  Fe25      1.0  0.45633  0.08049  0.31015  1.0000
  S   S49       1.0  0.47428  0.06701  0.30552  1.0000
  S   S50       1.0  0.44430  0.08407  0.37125  1.0000
  Fe  Fe26      1.0  0.45986  0.08729  0.21848  1.0000
  S   S51       1.0  0.47780  0.07404  0.20804  1.0000
  S   S52       1.0  0.45436  0.09725  0.16051  1.0000
  Fe  Fe27      1.0  0.46065  0.05523  0.25344  1.0000
  S   S53       1.0  0.45642  0.02892  0.24107  1.0000
  S   S54       1.0  0.44152  0.06740  0.26041  1.0000
  Fe  Fe28      1.0  0.44946  0.07280  0.65065  1.0000
  S   S55       1.0  0.45563  0.09829  0.62505  1.0000
  S   S56       1.0  0.42354  0.05393  0.65270  1.0000
  C   C150      1.0  0.46620  0.17502  0.89665  1.0000
  C   C151      1.0  0.47137  0.17101  0.82594  1.0000
  Fe  Fe29      1.0  0.47318  0.10558  0.67404  1.0000
  S   S57       1.0  0.48189  0.12972  0.70537  1.0000
  Fe  Fe30      1.0  0.47636  0.09334  0.58711  1.0000
  C   C152      1.0  0.47966  0.12716  0.16090  1.0000
  S   S58       1.0  0.46526  0.08038  0.70228  1.0000
  S   S59       1.0  0.46910  0.06761  0.60971  1.0000
  H   H149      1.0  0.41196  0.06132  0.57551  1.0000
  C   C153      1.0  0.47891  0.13501  0.07953  1.0000
  C   C154      1.0  0.42209  0.05458  0.16858  1.0000
  C   C155      1.0  0.47593  0.12207  0.78801  1.0000
  H   H150      1.0  0.46994  0.11746  0.85236  1.0000
  H   H151      1.0  0.48003  0.12429  0.19227  1.0000
  H   H152      1.0  0.42206  0.06688  0.16989  1.0000
  C   C156      1.0  0.48296  0.18681  0.82132  1.0000
  C   C157      1.0  0.42251  0.03379  0.66161  1.0000
  C   C158      1.0  0.40778  0.02082  0.65655  1.0000
  C   C159      1.0  0.40720  0.04129  0.17615  1.0000
  H   H153      1.0  0.39346  0.00034  0.18393  1.0000
  C   C160      1.0  0.43517  0.01455  0.68171  1.0000
  C   C161      1.0  0.43627  0.03058  0.67373  1.0000
  H   H154      1.0  0.39701  0.02320  0.64764  1.0000
  H   H155      1.0  0.43769  0.04897  0.57498  1.0000
  H   H156      1.0  0.44574  0.01221  0.69202  1.0000
  H   H157      1.0  0.44765  0.04047  0.67792  1.0000
  C   C162      1.0  0.46821  0.11615  0.13854  1.0000
  H   H158      1.0  0.46722  0.11048  0.78076  1.0000
  N   N13       1.0  0.42221  0.05004  0.52951  1.0000
  C   C163      1.0  0.43640  0.01375  0.24746  1.0000
  H   H159      1.0  0.49058  0.08865  0.78379  1.0000
  H   H160      1.0  0.46020  0.17033  0.92655  1.0000
  N   N14       1.0  0.48582  0.19656  0.85350  1.0000
  C   C164      1.0  0.40640  0.00454  0.26698  1.0000
  C   C165      1.0  0.42222  0.01692  0.26363  1.0000
  H   H161      1.0  0.47861  0.13791  0.04811  1.0000
  C   C166      1.0  0.49032  0.14603  0.10202  1.0000
  H   H162      1.0  0.39544  0.00705  0.27931  1.0000
  H   H163      1.0  0.42341  0.02890  0.27331  1.0000
  C   C167      1.0  0.47386  0.09258  0.48165  1.0000
  C   C168      1.0  0.45770  0.09320  0.48454  1.0000
  C   C169      1.0  0.44876  0.09055  0.45047  1.0000
  C   C170      1.0  0.45581  0.08707  0.41348  1.0000
  C   C171      1.0  0.47179  0.08600  0.41097  1.0000
  C   C172      1.0  0.48077  0.08877  0.44490  1.0000
  H   H164      1.0  0.45235  0.09633  0.51258  1.0000
  H   H165      1.0  0.43640  0.09140  0.45266  1.0000
  H   H166      1.0  0.47739  0.08338  0.38271  1.0000
  C   C173      1.0  0.42091  0.05099  0.48906  1.0000
  H   H167      1.0  0.45896  0.11182  0.08032  1.0000
  C   C174      1.0  0.43468  0.99812  0.23516  1.0000
  N   N15       1.0  0.40735  0.02583  0.17481  1.0000
  C   C175      1.0  0.40680  0.00472  0.66371  1.0000
  C   C176      1.0  0.46517  0.99801  0.29584  1.0000
  C   C177      1.0  0.43723  0.03617  0.15867  1.0000
  H   H168      1.0  0.44881  0.06217  0.15436  1.0000
  H   H169      1.0  0.49640  0.00736  0.64645  1.0000
  Fe  Fe31      1.0  0.48938  0.08709  0.26071  1.0000
  H   H170      1.0  0.44897  0.03401  0.15319  1.0000
  S   S60       1.0  0.47250  0.10154  0.26885  1.0000
  C   C178      1.0  0.42209  0.02316  0.16595  1.0000
  C   C179      1.0  0.44909  0.05112  0.47430  1.0000
  H   H171      1.0  0.48979  0.19109  0.79195  1.0000
  C   C180      1.0  0.42045  0.00156  0.67682  1.0000
  S   S61       1.0  0.49432  0.10283  0.63326  1.0000
  S   S62       1.0  0.48667  0.09877  0.52112  1.0000
  S   S63       1.0  0.49346  0.17874  0.97383  1.0000
  H   H172      1.0  0.46196  0.05045  0.52639  1.0000
  H   H173      1.0  0.39677  0.04863  0.54486  1.0000
  H   H174      1.0  0.39553  0.04343  0.18329  1.0000
  H   H175      1.0  0.45472  0.15258  0.86833  1.0000
  C   C181      1.0  0.43717  0.05195  0.15982  1.0000
  C   C182      1.0  0.47767  0.19084  0.89084  1.0000
  C   C183      1.0  0.47748  0.12609  0.82865  1.0000
  H   H176      1.0  0.45972  0.05196  0.45275  1.0000
  C   C184      1.0  0.40834  0.04991  0.55904  1.0000
  C   C185      1.0  0.43425  0.05136  0.46087  1.0000
  H   H177      1.0  0.40961  0.05165  0.47828  1.0000
  C   C186      1.0  0.46781  0.12020  0.09786  1.0000
  C   C187      1.0  0.45036  0.05031  0.51557  1.0000
  C   C188      1.0  0.48715  0.12441  0.36458  1.0000
  H   H178      1.0  0.40536  0.03965  0.58152  1.0000
  H   H179      1.0  0.47284  0.12700  0.41920  1.0000
  H   H180      1.0  0.43331  0.05245  0.42880  1.0000
  C   C189      1.0  0.46304  0.16508  0.86393  1.0000
  H   H181      1.0  0.46936  0.16315  0.80063  1.0000
  C   C190      1.0  0.43667  0.04966  0.54291  1.0000
  Fe  Fe32      1.0  0.48540  0.07733  0.65839  1.0000
  H   H182      1.0  0.47729  0.12358  0.34564  1.0000
  C   C191      1.0  0.48494  0.13338  0.75698  1.0000
  C   C192      1.0  0.48067  0.01062  0.29262  1.0000
  H   H183      1.0  0.38341  0.01184  0.15817  1.0000
  C   C193      1.0  0.48834  0.14127  0.83891  1.0000
  H   H184      1.0  0.38482  0.01321  0.21196  1.0000
  H   H185      1.0  0.49486  0.12752  0.46257  1.0000
  C   C194      1.0  0.48466  0.12637  0.40588  1.0000
  C   C195      1.0  0.39150  0.01216  0.18243  1.0000
  H   H186      1.0  0.42231  0.01094  0.16555  1.0000
  H   H187      1.0  0.49332  0.08839  0.44233  1.0000
  H   H188      1.0  0.49619  0.02538  0.67054  1.0000
  H   H189      1.0  0.49342  0.09400  0.11102  1.0000
  S   S64       1.0  0.48822  0.14622  0.89059  1.0000
  H   H190      1.0  0.45389  0.00092  0.30183  1.0000
  C   C196      1.0  0.49606  0.14846  0.76718  1.0000
  H   H191      1.0  0.48126  0.02306  0.29561  1.0000
  H   H192      1.0  0.48026  0.19843  0.91657  1.0000
  H   H193      1.0  0.49378  0.22157  0.86614  1.0000
  C   C197      1.0  0.49051  0.14206  0.14284  1.0000
  C   C198      1.0  0.49532  0.00711  0.28491  1.0000
  H   H194      1.0  0.45107  0.35116  0.71853  1.0000
  H   H195      1.0  0.44156  0.37378  0.71758  1.0000
  Fe  Fe33      1.0  0.47518  0.42248  0.29069  1.0000
  S   S65       1.0  0.46632  0.39535  0.29564  1.0000
  S   S66       1.0  0.45616  0.43376  0.31295  1.0000
  H   H196      1.0  0.48201  0.38843  0.53886  1.0000
  H   H197      1.0  0.43712  0.49026  0.14505  1.0000
  H   H198      1.0  0.47256  0.49425  0.72071  1.0000
  H   H199      1.0  0.42195  0.36389  0.74788  1.0000
  C   C199      1.0  0.41179  0.47519  0.16649  1.0000
  H   H200      1.0  0.45846  0.43440  0.40519  1.0000
  H   H201      1.0  0.47325  0.47266  0.67660  1.0000
  C   C200      1.0  0.45694  0.34167  0.77223  1.0000
  C   C201      1.0  0.48359  0.38720  0.47382  1.0000
  Fe  Fe34      1.0  0.45767  0.40721  0.68447  1.0000
  S   S67       1.0  0.47618  0.42993  0.65495  1.0000
  S   S68       1.0  0.43020  0.40303  0.69858  1.0000
  C   C202      1.0  0.42612  0.45643  0.20627  1.0000
  H   H202      1.0  0.43689  0.38241  0.76318  1.0000
  H   H203      1.0  0.40635  0.48283  0.15147  1.0000
  S   S69       1.0  0.46683  0.39055  0.64563  1.0000
  S   S70       1.0  0.47306  0.40623  0.73451  1.0000
  Fe  Fe35      1.0  0.40798  0.48245  0.66654  1.0000
  H   H204      1.0  0.37686  0.44466  0.19920  1.0000
  S   S71       1.0  0.39548  0.45547  0.67766  1.0000
  H   H205      1.0  0.46281  0.44848  0.46948  1.0000
  C   C203      1.0  0.44233  0.36155  0.81244  1.0000
  C   C204      1.0  0.45832  0.42658  0.50515  1.0000
  N   N16       1.0  0.36823  0.46805  0.77229  1.0000
  H   H206      1.0  0.38888  0.47763  0.46756  1.0000
  H   H207      1.0  0.38009  0.46412  0.22097  1.0000
  C   C205      1.0  0.36117  0.47244  0.80676  1.0000
  H   H208      1.0  0.45348  0.40292  0.53218  1.0000
  S   S72       1.0  0.40779  0.48705  0.26901  1.0000
  H   H209      1.0  0.44938  0.38932  0.46749  1.0000
  C   C206      1.0  0.48724  0.36945  0.11668  1.0000
  H   H210      1.0  0.37312  0.47121  0.70832  1.0000
  C   C207      1.0  0.44910  0.35217  0.83441  1.0000
  H   H211      1.0  0.49335  0.25002  0.93833  1.0000
  Fe  Fe36      1.0  0.48411  0.39174  0.69376  1.0000
  C   C208      1.0  0.48575  0.39526  0.51031  1.0000
  S   S73       1.0  0.39429  0.48938  0.38482  1.0000
  C   C209      1.0  0.40626  0.44179  0.68299  1.0000
  C   C210      1.0  0.42380  0.44644  0.67784  1.0000
  C   C211      1.0  0.43151  0.43474  0.68229  1.0000
  C   C212      1.0  0.42167  0.41846  0.69213  1.0000
  C   C213      1.0  0.40424  0.41405  0.69752  1.0000
  C   C214      1.0  0.39662  0.42558  0.69285  1.0000
  H   H212      1.0  0.43135  0.45894  0.67017  1.0000
  H   H213      1.0  0.44498  0.43831  0.67822  1.0000
  H   H214      1.0  0.39654  0.40156  0.70506  1.0000
  H   H215      1.0  0.38311  0.42184  0.69673  1.0000
  C   C215      1.0  0.45721  0.45267  0.29290  1.0000
  C   C216      1.0  0.44464  0.45879  0.30639  1.0000
  C   C217      1.0  0.44477  0.47363  0.29056  1.0000
  C   C218      1.0  0.45748  0.48248  0.26112  1.0000
  C   C219      1.0  0.47026  0.47653  0.24806  1.0000
  C   C220      1.0  0.47010  0.46161  0.26383  1.0000
  H   H216      1.0  0.43469  0.45198  0.32904  1.0000
  H   H217      1.0  0.43497  0.47818  0.30115  1.0000
  H   H218      1.0  0.48015  0.48333  0.22526  1.0000
  H   H219      1.0  0.47987  0.45699  0.25336  1.0000
  H   H220      1.0  0.34749  0.48723  0.83230  1.0000
  H   H221      1.0  0.43667  0.36933  0.82840  1.0000
  C   C221      1.0  0.36735  0.47455  0.73556  1.0000
  H   H222      1.0  0.47855  0.46169  0.71619  1.0000
  C   C222      1.0  0.42919  0.47942  0.16247  1.0000
  C   C223      1.0  0.35274  0.48345  0.80488  1.0000
  C   C224      1.0  0.45423  0.40986  0.50456  1.0000
  C   C225      1.0  0.43635  0.46983  0.18208  1.0000
  C   C226      1.0  0.38361  0.45790  0.19465  1.0000
  H   H223      1.0  0.48957  0.29610  0.05410  1.0000
  H   H224      1.0  0.48616  0.26741  0.04075  1.0000
  H   H225      1.0  0.40092  0.44244  0.22962  1.0000
  C   C227      1.0  0.45015  0.35128  0.75119  1.0000
  H   H226      1.0  0.39955  0.49060  0.53014  1.0000
  C   C228      1.0  0.45972  0.43547  0.46930  1.0000
  H   H227      1.0  0.39090  0.46319  0.76534  1.0000
  S   S74       1.0  0.43138  0.49520  0.62555  1.0000
  N   N17       1.0  0.44307  0.36114  0.77132  1.0000
  C   C229      1.0  0.45647  0.34219  0.81408  1.0000
  Fe  Fe37      1.0  0.48842  0.39911  0.33071  1.0000
  H   H228      1.0  0.47746  0.37195  0.10269  1.0000
  C   C230      1.0  0.45198  0.40226  0.46786  1.0000
  H   H229      1.0  0.46230  0.40978  0.37187  1.0000
  H   H230      1.0  0.37575  0.45105  0.80495  1.0000
  H   H231      1.0  0.46063  0.43262  0.53333  1.0000
  H   H232      1.0  0.35906  0.49132  0.70361  1.0000
  H   H233      1.0  0.43989  0.40321  0.38273  1.0000
  C   C231      1.0  0.49426  0.36860  0.76869  1.0000
  C   C232      1.0  0.40876  0.45264  0.20997  1.0000
  C   C233      1.0  0.43548  0.37070  0.74900  1.0000
  H   H234      1.0  0.45141  0.39052  0.39685  1.0000
  N   N18       1.0  0.45371  0.41111  0.43277  1.0000
  H   H235      1.0  0.46321  0.33444  0.75594  1.0000
  C   C234      1.0  0.37731  0.45674  0.77432  1.0000
  C   C235      1.0  0.45161  0.40318  0.39432  1.0000
  S   S75       1.0  0.49073  0.42393  0.23171  1.0000
  H   H236      1.0  0.44900  0.35288  0.86689  1.0000
  H   H237      1.0  0.47820  0.37413  0.47450  1.0000
  C   C236      1.0  0.45730  0.42747  0.43314  1.0000
  H   H238      1.0  0.46228  0.33529  0.83062  1.0000
  N   N19       1.0  0.49352  0.48651  0.70882  1.0000
  H   H239      1.0  0.37275  0.44688  0.75312  1.0000
  S   S76       1.0  0.47728  0.38353  0.18256  1.0000
  N   N20       1.0  0.40180  0.46181  0.18956  1.0000
  H   H240      1.0  0.36216  0.46762  0.83603  1.0000
  Fe  Fe38      1.0  0.48393  0.39697  0.23979  1.0000
  C   C237      1.0  0.48914  0.37730  0.79884  1.0000
  C   C238      1.0  0.48825  0.39596  0.43650  1.0000
  H   H241      1.0  0.43168  0.44929  0.22285  1.0000
  H   H242      1.0  0.48375  0.38619  0.79096  1.0000
  H   H243      1.0  0.48580  0.38040  0.86279  1.0000
  S   S77       1.0  0.48454  0.38554  0.39125  1.0000
  H   H244      1.0  0.37924  0.46206  0.16768  1.0000
  C   C239      1.0  0.35183  0.49015  0.76753  1.0000
  C   C240      1.0  0.35921  0.48574  0.73263  1.0000
  C   C241      1.0  0.48373  0.47131  0.69179  1.0000
  C   C242      1.0  0.48985  0.37375  0.15661  1.0000
  H   H245      1.0  0.49506  0.35867  0.06404  1.0000
  C   C243      1.0  0.39814  0.48970  0.46571  1.0000
  Fe  Fe39      1.0  0.48661  0.41351  0.61882  1.0000
  H   H246      1.0  0.49164  0.46726  0.66907  1.0000
  H   H247      1.0  0.44985  0.47313  0.17965  1.0000
  C   C244      1.0  0.49034  0.37401  0.83959  1.0000
  C   C245      1.0  0.48577  0.49687  0.72323  1.0000
  Fe  Fe40      1.0  0.49248  0.42767  0.70134  1.0000
  H   H248      1.0  0.36966  0.49650  0.10688  1.0000
  C   C246      1.0  0.49269  0.41216  0.50960  1.0000
  S   S78       1.0  0.38281  0.49623  0.18317  1.0000
  S   S79       1.0  0.49120  0.37100  0.71753  1.0000
  S   S80       1.0  0.39336  0.49688  0.64248  1.0000
  S   S81       1.0  0.49489  0.42317  0.55397  1.0000
  S   S82       1.0  0.49635  0.35728  0.90245  1.0000
  C   C247      1.0  0.49532  0.41282  0.43604  1.0000
  H   H249      1.0  0.36624  0.49473  0.42966  1.0000
  C   C248      1.0  0.40417  0.49702  0.50119  1.0000
  Fe  Fe41      1.0  0.34866  0.54654  0.03770  1.0000
  S   S83       1.0  0.37109  0.55270  0.99209  1.0000
  S   S84       1.0  0.35190  0.54413  0.10399  1.0000
  Fe  Fe42      1.0  0.32586  0.55170  0.97674  1.0000
  S   S85       1.0  0.34721  0.55829  0.92643  1.0000
  S   S86       1.0  0.30161  0.55516  0.95998  1.0000
  Fe  Fe43      1.0  0.35343  0.53748  0.95049  1.0000
  S   S87       1.0  0.36384  0.52058  0.91436  1.0000
  Fe  Fe44      1.0  0.36348  0.57303  0.97130  1.0000
  S   S88       1.0  0.38353  0.59699  0.94918  1.0000
  S   S89       1.0  0.33107  0.52960  0.99808  1.0000
  S   S90       1.0  0.34205  0.56814  0.01962  1.0000
  Fe  Fe45      1.0  0.44420  0.67051  0.04696  1.0000
  S   S91       1.0  0.46076  0.68696  0.08916  1.0000
  S   S92       1.0  0.42002  0.65027  0.06969  1.0000
  Fe  Fe46      1.0  0.47029  0.68215  0.97480  1.0000
  N   N21       1.0  0.40345  0.55552  0.87738  1.0000
  H   H250      1.0  0.47501  0.71137  0.20733  1.0000
  H   H251      1.0  0.49494  0.69777  0.22313  1.0000
  H   H252      1.0  0.48641  0.59840  0.60395  1.0000
  Fe  Fe47      1.0  0.46802  0.70651  0.03895  1.0000
  H   H253      1.0  0.48858  0.51931  0.75221  1.0000
  S   S93       1.0  0.46402  0.66148  0.02009  1.0000
  S   S94       1.0  0.44934  0.69056  0.99973  1.0000
  C   C249      1.0  0.46627  0.55771  0.61329  1.0000
  S   S95       1.0  0.42574  0.52876  0.65380  1.0000
  S   S96       1.0  0.38633  0.52600  0.72579  1.0000
  H   H254      1.0  0.45431  0.54308  0.56632  1.0000
  S   S97       1.0  0.46390  0.52158  0.69295  1.0000
  H   H255      1.0  0.38596  0.58378  0.86177  1.0000
  S   S98       1.0  0.47306  0.58772  0.77465  1.0000
  Fe  Fe48      1.0  0.42018  0.53312  0.27551  1.0000
  S   S99       1.0  0.39368  0.51649  0.28975  1.0000
  S   S100      1.0  0.42550  0.55982  0.27643  1.0000
  H   H256      1.0  0.35748  0.53876  0.84796  1.0000
  H   H257      1.0  0.36640  0.54046  0.77442  1.0000
  C   C250      1.0  0.40194  0.55012  0.41534  1.0000
  H   H258      1.0  0.48817  0.67588  0.66511  1.0000
  C   C251      1.0  0.43625  0.56787  0.31750  1.0000
  C   C252      1.0  0.43630  0.55776  0.34999  1.0000
  C   C253      1.0  0.44654  0.56393  0.38053  1.0000
  C   C254      1.0  0.45673  0.58023  0.37832  1.0000
  C   C255      1.0  0.45586  0.59055  0.34725  1.0000
  C   C256      1.0  0.44559  0.58437  0.31682  1.0000
  H   H259      1.0  0.42855  0.54519  0.35148  1.0000
  H   H260      1.0  0.44716  0.55595  0.40468  1.0000
  H   H261      1.0  0.46339  0.60327  0.34620  1.0000
  H   H262      1.0  0.44536  0.59228  0.29212  1.0000
  Fe  Fe49      1.0  0.43760  0.51188  0.67651  1.0000
  S   S101      1.0  0.42504  0.52186  0.21804  1.0000
  Fe  Fe50      1.0  0.40266  0.51349  0.69266  1.0000
  H   H263      1.0  0.46751  0.63074  0.17203  1.0000
  C   C257      1.0  0.46652  0.53941  0.71837  1.0000
  C   C258      1.0  0.48261  0.55065  0.72031  1.0000
  C   C259      1.0  0.48466  0.56544  0.73824  1.0000
  C   C260      1.0  0.47066  0.56888  0.75463  1.0000
  C   C261      1.0  0.45462  0.55744  0.75370  1.0000
  C   C262      1.0  0.45254  0.54276  0.73527  1.0000
  H   H264      1.0  0.40956  0.59199  0.17631  1.0000
  H   H265      1.0  0.41560  0.54538  0.83179  1.0000
  H   H266      1.0  0.44379  0.56010  0.76629  1.0000
  H   H267      1.0  0.44010  0.53404  0.73413  1.0000
  C   C263      1.0  0.40649  0.54613  0.91033  1.0000
  H   H268      1.0  0.29484  0.58242  0.00866  1.0000
  H   H269      1.0  0.36610  0.62070  0.97714  1.0000
  H   H270      1.0  0.40547  0.55298  0.47831  1.0000
  H   H271      1.0  0.29883  0.58840  0.05890  1.0000
  C   C264      1.0  0.39550  0.56635  0.88578  1.0000
  C   C265      1.0  0.46003  0.56532  0.50634  1.0000
  H   H272      1.0  0.42007  0.52022  0.39732  1.0000
  H   H273      1.0  0.34632  0.60581  0.92937  1.0000
  H   H274      1.0  0.48678  0.65524  0.65650  1.0000
  C   C266      1.0  0.36646  0.50384  0.45267  1.0000
  C   C267      1.0  0.27972  0.54894  0.97747  1.0000
  C   C268      1.0  0.26947  0.55547  0.95775  1.0000
  C   C269      1.0  0.25495  0.53335  0.02248  1.0000
  H   H275      1.0  0.49344  0.54809  0.70730  1.0000
  C   C270      1.0  0.42177  0.52092  0.46134  1.0000
  C   C271      1.0  0.27231  0.53788  0.01013  1.0000
  H   H276      1.0  0.27497  0.56406  0.93249  1.0000
  H   H277      1.0  0.30389  0.57141  0.03911  1.0000
  H   H278      1.0  0.38501  0.52590  0.49943  1.0000
  H   H279      1.0  0.27990  0.53269  0.02575  1.0000
  C   C272      1.0  0.39418  0.61116  0.98349  1.0000
  C   C273      1.0  0.38938  0.60900  0.02504  1.0000
  C   C274      1.0  0.39741  0.62104  0.05117  1.0000
  C   C275      1.0  0.41048  0.63520  0.03611  1.0000
  C   C276      1.0  0.41551  0.63719  0.99465  1.0000
  C   C277      1.0  0.40729  0.62529  0.96847  1.0000
  H   H280      1.0  0.37930  0.59817  0.03699  1.0000
  H   H281      1.0  0.39342  0.61940  0.08316  1.0000
  H   H282      1.0  0.42543  0.64812  0.98264  1.0000
  H   H283      1.0  0.41093  0.62718  0.93635  1.0000
  C   C278      1.0  0.36157  0.53128  0.12385  1.0000
  C   C279      1.0  0.36765  0.53435  0.16171  1.0000
  C   C280      1.0  0.37468  0.52401  0.17952  1.0000
  C   C281      1.0  0.37529  0.51021  0.16009  1.0000
  H   H284      1.0  0.48344  0.61360  0.82892  1.0000
  C   C282      1.0  0.36265  0.51774  0.10381  1.0000
  H   H285      1.0  0.36680  0.54473  0.17751  1.0000
  H   H286      1.0  0.37919  0.52649  0.20878  1.0000
  H   H287      1.0  0.35791  0.51517  0.07480  1.0000
  C   C283      1.0  0.38097  0.52498  0.77854  1.0000
  C   C284      1.0  0.38631  0.51574  0.80468  1.0000
  C   C285      1.0  0.38095  0.51454  0.84623  1.0000
  C   C286      1.0  0.37055  0.52284  0.86212  1.0000
  C   C287      1.0  0.36554  0.53238  0.83611  1.0000
  C   C288      1.0  0.37061  0.53331  0.79446  1.0000
  H   H288      1.0  0.39543  0.58021  0.79045  1.0000
  S   S102      1.0  0.47494  0.73323  0.05709  1.0000
  N   N22       1.0  0.46508  0.56807  0.54717  1.0000
  C   C289      1.0  0.48605  0.67209  0.87737  1.0000
  H   H289      1.0  0.44848  0.64138  0.89820  1.0000
  C   C290      1.0  0.41585  0.51276  0.49912  1.0000
  H   H290      1.0  0.45763  0.60769  0.22203  1.0000
  H   H291      1.0  0.42857  0.58793  0.22388  1.0000
  C   C291      1.0  0.49229  0.65452  0.22631  1.0000
  H   H292      1.0  0.35390  0.50491  0.45760  1.0000
  S   S103      1.0  0.45703  0.50047  0.23864  1.0000
  H   H293      1.0  0.45523  0.74185  0.99814  1.0000
  C   C292      1.0  0.48102  0.66095  0.21104  1.0000
  H   H294      1.0  0.47892  0.57535  0.65445  1.0000
  C   C293      1.0  0.47424  0.58337  0.55722  1.0000
  H   H295      1.0  0.39425  0.50925  0.79277  1.0000
  S   S104      1.0  0.42242  0.52321  0.54288  1.0000
  N   N23       1.0  0.44432  0.62429  0.14628  1.0000
  C   C294      1.0  0.45479  0.62228  0.17273  1.0000
  C   C295      1.0  0.42817  0.61376  0.14779  1.0000
  C   C296      1.0  0.36929  0.50715  0.12211  1.0000
  C   C297      1.0  0.42230  0.60047  0.17549  1.0000
  C   C298      1.0  0.41576  0.51360  0.42597  1.0000
  C   C299      1.0  0.45009  0.63822  0.11738  1.0000
  Fe  Fe51      1.0  0.49270  0.60722  0.37529  1.0000
  C   C300      1.0  0.49226  0.66590  0.67482  1.0000
  C   C301      1.0  0.48253  0.66546  0.16981  1.0000
  H   H296      1.0  0.46392  0.64267  0.11008  1.0000
  Fe  Fe52      1.0  0.41757  0.51099  0.60552  1.0000
  H   H297      1.0  0.44451  0.63496  0.08853  1.0000
  C   C302      1.0  0.40375  0.49804  0.42801  1.0000
  H   H298      1.0  0.44630  0.64822  0.12984  1.0000
  N   N24       1.0  0.32067  0.59438  0.01647  1.0000
  C   C303      1.0  0.33165  0.60220  0.04313  1.0000
  C   C304      1.0  0.32578  0.59564  0.97603  1.0000
  C   C305      1.0  0.34810  0.61191  0.02939  1.0000
  C   C306      1.0  0.34217  0.60513  0.96131  1.0000
  C   C307      1.0  0.35332  0.61341  0.98819  1.0000
  C   C308      1.0  0.30375  0.58368  0.03164  1.0000
  H   H299      1.0  0.32780  0.60074  0.07528  1.0000
  H   H300      1.0  0.31727  0.58905  0.95495  1.0000
  H   H301      1.0  0.35687  0.61797  0.05052  1.0000
  C   C309      1.0  0.48188  0.66375  0.84204  1.0000
  H   H302      1.0  0.41883  0.55271  0.92097  1.0000
  H   H303      1.0  0.24942  0.52468  0.04757  1.0000
  H   H304      1.0  0.48110  0.56850  0.33224  1.0000
  S   S105      1.0  0.43144  0.51905  0.31278  1.0000
  H   H305      1.0  0.47387  0.67055  0.15868  1.0000
  N   N25       1.0  0.37910  0.51961  0.43968  1.0000
  C   C310      1.0  0.39790  0.57347  0.81492  1.0000
  H   H306      1.0  0.46606  0.55465  0.30399  1.0000
  H   H307      1.0  0.41046  0.56094  0.77578  1.0000
  H   H308      1.0  0.48713  0.66213  0.70668  1.0000
  C   C311      1.0  0.48487  0.53783  0.28282  1.0000
  C   C312      1.0  0.47520  0.57331  0.62419  1.0000
  H   H309      1.0  0.47762  0.59347  0.53531  1.0000
  C   C313      1.0  0.49552  0.66383  0.14347  1.0000
  C   C314      1.0  0.38717  0.52978  0.46779  1.0000
  Fe  Fe53      1.0  0.48087  0.67893  0.05916  1.0000
  Fe  Fe54      1.0  0.43344  0.50583  0.25685  1.0000
  S   S106      1.0  0.46995  0.67539  0.90924  1.0000
  C   C315      1.0  0.49561  0.52902  0.27585  1.0000
  H   H310      1.0  0.40608  0.53400  0.90053  1.0000
  C   C316      1.0  0.40918  0.55387  0.83852  1.0000
  H   H311      1.0  0.39627  0.54338  0.35504  1.0000
  N   N26       1.0  0.46672  0.63053  0.90436  1.0000
  H   H312      1.0  0.44026  0.62081  0.91972  1.0000
  Fe  Fe55      1.0  0.40519  0.50142  0.32313  1.0000
  H   H313      1.0  0.45652  0.61602  0.85585  1.0000
  H   H314      1.0  0.47111  0.66251  0.23136  1.0000
  C   C317      1.0  0.43296  0.59819  0.20222  1.0000
  H   H315      1.0  0.39654  0.54384  0.93603  1.0000
  C   C318      1.0  0.47945  0.56248  0.30300  1.0000
  C   C319      1.0  0.39365  0.53969  0.38688  1.0000
  C   C320      1.0  0.39878  0.54513  0.45604  1.0000
  H   H316      1.0  0.46910  0.65988  0.83464  1.0000
  H   H317      1.0  0.38484  0.50710  0.86618  1.0000
  H   H318      1.0  0.46318  0.54755  0.63488  1.0000
  H   H319      1.0  0.45101  0.63729  0.94936  1.0000
  H   H320      1.0  0.39130  0.56797  0.91660  1.0000
  C   C321      1.0  0.39251  0.57540  0.85474  1.0000
  C   C322      1.0  0.40640  0.56272  0.80668  1.0000
  H   H321      1.0  0.41096  0.56198  0.40578  1.0000
  H   H322      1.0  0.37597  0.51621  0.37734  1.0000
  C   C323      1.0  0.46756  0.62177  0.87108  1.0000
  H   H323      1.0  0.45628  0.57536  0.49521  1.0000
  C   C324      1.0  0.38218  0.52438  0.39967  1.0000
  H   H324      1.0  0.47782  0.72429  0.13908  1.0000
  H   H325      1.0  0.43078  0.53310  0.45942  1.0000
  S   S107      1.0  0.47216  0.58723  0.41080  1.0000
  C   C325      1.0  0.48080  0.63813  0.92281  1.0000
  H   H326      1.0  0.47187  0.53226  0.27717  1.0000
  S   S108      1.0  0.41528  0.49795  0.71951  1.0000
  C   C326      1.0  0.44929  0.60922  0.20106  1.0000
  C   C327      1.0  0.45083  0.63254  0.91860  1.0000
  H   H327      1.0  0.48033  0.64569  0.94805  1.0000
  C   C328      1.0  0.25214  0.55105  0.97031  1.0000
  C   C329      1.0  0.47932  0.58623  0.59594  1.0000
  S   S109      1.0  0.48934  0.69912  0.01097  1.0000
  H   H328      1.0  0.48221  0.57190  0.27839  1.0000
  H   H329      1.0  0.41976  0.61560  0.12739  1.0000
  H   H330      1.0  0.47060  0.56464  0.48525  1.0000
  S   S110      1.0  0.49468  0.63011  0.72727  1.0000
  Fe  Fe56      1.0  0.39910  0.50421  0.23427  1.0000
  C   C330      1.0  0.46130  0.55527  0.57442  1.0000
  H   H331      1.0  0.44913  0.55393  0.50538  1.0000
  C   C331      1.0  0.48276  0.62037  0.85561  1.0000
  H   H332      1.0  0.48798  0.62893  0.53319  1.0000
  H   H333      1.0  0.49062  0.65356  0.78973  1.0000
  H   H334      1.0  0.49092  0.51684  0.26511  1.0000
  S   S111      1.0  0.49015  0.64971  0.27878  1.0000
  C   C332      1.0  0.48493  0.71118  0.18474  1.0000
  C   C333      1.0  0.49406  0.66016  0.81652  1.0000
  N   N27       1.0  0.49068  0.55319  0.29640  1.0000
  C   C334      1.0  0.48649  0.71841  0.14650  1.0000
  H   H335      1.0  0.25991  0.74189  0.96564  1.0000
  C   C335      1.0  0.49477  0.51105  0.74129  1.0000
  H   H336      1.0  0.34595  0.49922  0.76574  1.0000
  C   C336      1.0  0.49620  0.63698  0.90811  1.0000
  C   C337      1.0  0.49614  0.70363  0.19364  1.0000
  Fe  Fe57      1.0  0.49640  0.60618  0.74398  1.0000
  S   S112      1.0  0.49642  0.63338  0.38175  1.0000
  H   H337      1.0  0.36933  0.49905  0.48092  1.0000
  Fe  Fe58      1.0  0.32246  0.85065  0.00783  1.0000
  S   S113      1.0  0.34522  0.85046  0.96890  1.0000
  S   S114      1.0  0.32446  0.87312  0.04322  1.0000
  Fe  Fe59      1.0  0.30023  0.81695  0.98234  1.0000
  S   S115      1.0  0.32188  0.81439  0.94227  1.0000
  S   S116      1.0  0.27235  0.80014  0.99389  1.0000
  Fe  Fe60      1.0  0.33762  0.82483  0.99251  1.0000
  S   S117      1.0  0.35680  0.81478  0.01268  1.0000
  Fe  Fe61      1.0  0.32819  0.84053  0.92119  1.0000
  S   S118      1.0  0.33883  0.84735  0.85517  1.0000
  S   S119      1.0  0.31569  0.82550  0.03461  1.0000
  S   S120      1.0  0.30563  0.84264  0.95804  1.0000
  Fe  Fe62      1.0  0.47063  0.82709  0.02485  1.0000
  S   S121      1.0  0.45707  0.83757  0.07222  1.0000
  S   S122      1.0  0.46385  0.79991  0.01145  1.0000
  C   C338      1.0  0.47956  0.76582  0.06378  1.0000
  S   S123      1.0  0.47787  0.87375  0.02831  1.0000
  C   C339      1.0  0.44514  0.93538  0.73109  1.0000
  Fe  Fe63      1.0  0.48190  0.85773  0.07597  1.0000
  H   H338      1.0  0.44728  0.96010  0.31790  1.0000
  Fe  Fe64      1.0  0.45397  0.85307  0.02220  1.0000
  S   S124      1.0  0.43202  0.86137  0.01639  1.0000
  C   C340      1.0  0.26561  0.76723  0.97741  1.0000
  S   S125      1.0  0.46553  0.84145  0.97421  1.0000
  Fe  Fe65      1.0  0.37476  0.92520  0.69609  1.0000
  S   S126      1.0  0.37786  0.91475  0.63552  1.0000
  S   S127      1.0  0.35665  0.91391  0.75221  1.0000
  Fe  Fe66      1.0  0.40079  0.95886  0.66872  1.0000
  S   S128      1.0  0.40540  0.95110  0.60640  1.0000
  Fe  Fe67      1.0  0.37780  0.93832  0.60919  1.0000
  S   S129      1.0  0.36509  0.94103  0.55438  1.0000
  Fe  Fe68      1.0  0.40535  0.92849  0.63706  1.0000
  S   S130      1.0  0.42691  0.92039  0.61762  1.0000
  S   S131      1.0  0.37280  0.94811  0.66952  1.0000
  S   S132      1.0  0.40232  0.93674  0.69952  1.0000
  Fe  Fe69      1.0  0.38316  0.92251  0.32341  1.0000
  S   S133      1.0  0.36278  0.92697  0.29244  1.0000
  S   S134      1.0  0.38471  0.91426  0.38745  1.0000
  Fe  Fe70      1.0  0.40619  0.92841  0.24453  1.0000
  S   S135      1.0  0.38821  0.93376  0.20720  1.0000
  S   S136      1.0  0.43124  0.92800  0.21922  1.0000
  Fe  Fe71      1.0  0.38399  0.94805  0.26034  1.0000
  Fe  Fe72      1.0  0.36869  0.91229  0.24141  1.0000
  S   S137      1.0  0.35193  0.88917  0.21480  1.0000
  S   S138      1.0  0.40369  0.94438  0.29458  1.0000
  S   S139      1.0  0.38735  0.90623  0.27533  1.0000
  S   S140      1.0  0.47170  0.93319  0.36902  1.0000
  C   C341      1.0  0.37083  0.87969  0.04681  1.0000
  C   C342      1.0  0.27685  0.82141  0.08986  1.0000
  H   H339      1.0  0.36609  0.88982  0.04291  1.0000
  C   C343      1.0  0.44221  0.92751  0.26052  1.0000
  C   C344      1.0  0.45939  0.93038  0.25480  1.0000
  C   C345      1.0  0.46826  0.93084  0.28816  1.0000
  C   C346      1.0  0.46019  0.92934  0.32725  1.0000
  C   C347      1.0  0.44290  0.92570  0.33283  1.0000
  C   C348      1.0  0.43390  0.92467  0.29952  1.0000
  H   H340      1.0  0.46591  0.93244  0.22476  1.0000
  H   H341      1.0  0.47173  0.96690  0.77393  1.0000
  H   H342      1.0  0.43646  0.92380  0.36285  1.0000
  H   H343      1.0  0.42053  0.92180  0.30429  1.0000
  C   C349      1.0  0.37048  0.93350  0.50804  1.0000
  C   C350      1.0  0.37803  0.92175  0.50682  1.0000
  C   C351      1.0  0.38187  0.91570  0.46969  1.0000
  C   C352      1.0  0.37856  0.92159  0.43333  1.0000
  C   C353      1.0  0.37105  0.93339  0.43452  1.0000
  C   C354      1.0  0.36688  0.93919  0.47180  1.0000
  H   H344      1.0  0.38082  0.91722  0.53447  1.0000
  H   H345      1.0  0.38768  0.90659  0.46903  1.0000
  H   H346      1.0  0.36840  0.93798  0.40677  1.0000
  H   H347      1.0  0.36095  0.94822  0.47250  1.0000
  C   C355      1.0  0.44556  0.93562  0.62730  1.0000
  C   C356      1.0  0.46051  0.93244  0.62537  1.0000
  C   C357      1.0  0.47504  0.94412  0.63695  1.0000
  C   C358      1.0  0.47463  0.95898  0.65037  1.0000
  C   C359      1.0  0.45999  0.96254  0.64966  1.0000
  C   C360      1.0  0.44545  0.95081  0.63869  1.0000
  H   H348      1.0  0.46077  0.92080  0.61607  1.0000
  H   H349      1.0  0.43457  0.96093  0.77253  1.0000
  H   H350      1.0  0.45965  0.97411  0.65929  1.0000
  H   H351      1.0  0.43407  0.95349  0.64044  1.0000
  H   H352      1.0  0.38150  0.88118  0.02364  1.0000
  H   H353      1.0  0.34073  0.88069  0.59759  1.0000
  C   C361      1.0  0.37583  0.86466  0.10339  1.0000
  H   H354      1.0  0.44634  0.96302  0.26466  1.0000
  N   N28       1.0  0.37598  0.87904  0.08724  1.0000
  C   C362      1.0  0.38044  0.86373  0.14220  1.0000
  H   H355      1.0  0.33251  0.92488  0.71969  1.0000
  H   H356      1.0  0.34120  0.90667  0.56670  1.0000
  C   C363      1.0  0.44733  0.92632  0.51251  1.0000
  H   H357      1.0  0.45114  0.76775  0.98217  1.0000
  C   C364      1.0  0.46147  0.75256  0.01396  1.0000
  H   H358      1.0  0.33408  0.87544  0.67199  1.0000
  H   H359      1.0  0.31398  0.92208  0.69455  1.0000
  H   H360      1.0  0.27889  0.77044  0.96877  1.0000
  C   C365      1.0  0.41114  0.84813  0.01808  1.0000
  C   C366      1.0  0.40653  0.83147  0.02588  1.0000
  C   C367      1.0  0.38973  0.82135  0.02512  1.0000
  C   C368      1.0  0.37755  0.82783  0.01613  1.0000
  C   C369      1.0  0.38226  0.84450  0.00853  1.0000
  C   C370      1.0  0.39894  0.85460  0.00967  1.0000
  H   H361      1.0  0.41588  0.82636  0.03236  1.0000
  H   H362      1.0  0.38620  0.80845  0.03105  1.0000
  H   H363      1.0  0.37310  0.84962  0.00148  1.0000
  H   H364      1.0  0.40250  0.86747  0.00323  1.0000
  C   C371      1.0  0.34442  0.86629  0.82801  1.0000
  C   C372      1.0  0.35369  0.86852  0.78981  1.0000
  C   C373      1.0  0.35799  0.88316  0.76665  1.0000
  C   C374      1.0  0.35283  0.89568  0.78123  1.0000
  C   C375      1.0  0.34358  0.89345  0.81941  1.0000
  C   C376      1.0  0.33953  0.87893  0.84285  1.0000
  H   H365      1.0  0.35748  0.85881  0.77793  1.0000
  H   H366      1.0  0.36502  0.88463  0.73729  1.0000
  H   H367      1.0  0.33946  0.90301  0.83096  1.0000
  H   H368      1.0  0.33233  0.87740  0.87203  1.0000
  C   C377      1.0  0.33288  0.87753  0.09010  1.0000
  C   C378      1.0  0.33448  0.86548  0.11518  1.0000
  C   C379      1.0  0.34025  0.86928  0.15328  1.0000
  C   C380      1.0  0.34510  0.88526  0.16613  1.0000
  C   C381      1.0  0.34404  0.89741  0.14045  1.0000
  C   C382      1.0  0.33774  0.89350  0.10289  1.0000
  H   H369      1.0  0.33087  0.85315  0.10570  1.0000
  H   H370      1.0  0.34103  0.85980  0.17294  1.0000
  H   H371      1.0  0.34759  0.90972  0.15006  1.0000
  H   H372      1.0  0.33652  0.90292  0.08374  1.0000
  C   C383      1.0  0.47731  0.78061  0.05468  1.0000
  C   C384      1.0  0.46697  0.78149  0.02533  1.0000
  C   C385      1.0  0.45917  0.76734  0.00496  1.0000
  H   H373      1.0  0.41212  0.95586  0.51792  1.0000
  H   H374      1.0  0.48650  0.94156  0.63562  1.0000
  Fe  Fe73      1.0  0.48971  0.86106  0.98347  1.0000
  H   H375      1.0  0.33389  0.93722  0.67596  1.0000
  H   H376      1.0  0.43932  0.91488  0.52928  1.0000
  H   H377      1.0  0.46992  0.90369  0.21898  1.0000
  H   H378      1.0  0.43741  0.97356  0.30058  1.0000
  C   C386      1.0  0.45779  0.89380  0.21655  1.0000
  H   H379      1.0  0.44763  0.91470  0.09901  1.0000
  H   H380      1.0  0.44556  0.99562  0.22217  1.0000
  C   C387      1.0  0.42903  0.94239  0.51660  1.0000
  H   H381      1.0  0.44844  0.91252  0.72037  1.0000
  H   H382      1.0  0.45632  0.92369  0.48975  1.0000
  H   H383      1.0  0.27432  0.83296  0.01959  1.0000
  H   H384      1.0  0.45462  0.86841  0.16998  1.0000
  H   H385      1.0  0.48131  0.93236  0.28352  1.0000
  N   N29       1.0  0.28128  0.83751  0.07939  1.0000
  C   C388      1.0  0.46641  0.95488  0.76282  1.0000
  C   C389      1.0  0.41573  0.94689  0.45937  1.0000
  C   C390      1.0  0.45346  0.92430  0.73304  1.0000
  H   H386      1.0  0.44768  0.89651  0.23525  1.0000
  H   H387      1.0  0.45479  0.93452  0.53427  1.0000
  N   N30       1.0  0.45425  0.89245  0.17437  1.0000
  S   S141      1.0  0.49579  0.84620  0.03161  1.0000
  H   H388      1.0  0.43981  0.92405  0.43619  1.0000
  H   H389      1.0  0.45155  0.97457  0.73854  1.0000
  C   C391      1.0  0.47491  0.94400  0.76588  1.0000
  H   H390      1.0  0.48706  0.89267  0.92871  1.0000
  C   C392      1.0  0.28964  0.84900  0.10450  1.0000
  S   S142      1.0  0.41951  0.98175  0.68960  1.0000
  H   H391      1.0  0.37175  0.85372  0.08666  1.0000
  H   H392      1.0  0.37984  0.85223  0.15537  1.0000
  N   N31       1.0  0.40134  0.84160  0.91033  1.0000
  C   C393      1.0  0.39103  0.82610  0.92133  1.0000
  C   C394      1.0  0.39535  0.85201  0.89159  1.0000
  C   C395      1.0  0.37419  0.82077  0.91415  1.0000
  C   C396      1.0  0.37860  0.84703  0.88377  1.0000
  C   C397      1.0  0.36799  0.83130  0.89514  1.0000
  C   C398      1.0  0.41907  0.84701  0.91711  1.0000
  H   H393      1.0  0.39563  0.81786  0.93667  1.0000
  H   H394      1.0  0.40353  0.86425  0.88265  1.0000
  H   H395      1.0  0.36588  0.80866  0.92421  1.0000
  H   H396      1.0  0.37378  0.85529  0.86907  1.0000
  H   H397      1.0  0.35496  0.82732  0.88939  1.0000
  H   H398      1.0  0.42159  0.83883  0.93916  1.0000
  H   H399      1.0  0.42693  0.84751  0.88833  1.0000
  H   H400      1.0  0.42298  0.85920  0.92994  1.0000
  N   N32       1.0  0.33141  0.91273  0.66451  1.0000
  C   C399      1.0  0.33075  0.89834  0.68167  1.0000
  C   C400      1.0  0.33476  0.91560  0.62365  1.0000
  C   C401      1.0  0.33412  0.88661  0.65797  1.0000
  C   C402      1.0  0.33808  0.90410  0.59898  1.0000
  C   C403      1.0  0.33783  0.88955  0.61634  1.0000
  C   C404      1.0  0.32769  0.92481  0.68985  1.0000
  H   H401      1.0  0.32793  0.89598  0.71405  1.0000
  H   H402      1.0  0.33518  0.92695  0.60987  1.0000
  H   H403      1.0  0.36030  0.86846  0.04167  1.0000
  C   C405      1.0  0.44946  0.87726  0.11457  1.0000
  H   H404      1.0  0.48657  0.94748  0.77951  1.0000
  H   H405      1.0  0.47789  0.96636  0.27975  1.0000
  H   H406      1.0  0.41772  0.97380  0.22876  1.0000
  S   S143      1.0  0.49170  0.97270  0.67129  1.0000
  H   H407      1.0  0.29389  0.82449  0.17870  1.0000
  C   C406      1.0  0.38544  0.87768  0.16421  1.0000
  H   H408      1.0  0.38847  0.87710  0.19492  1.0000
  C   C407      1.0  0.38132  0.89286  0.10818  1.0000
  C   C408      1.0  0.25930  0.77925  0.99054  1.0000
  C   C409      1.0  0.38611  0.89238  0.14695  1.0000
  H   H409      1.0  0.48345  0.79130  0.07067  1.0000
  H   H410      1.0  0.27817  0.80369  0.13320  1.0000
  H   H411      1.0  0.38133  0.90424  0.09561  1.0000
  N   N33       1.0  0.45175  0.95052  0.74545  1.0000
  H   H412      1.0  0.38963  0.90318  0.16426  1.0000
  H   H413      1.0  0.44517  0.88949  0.06289  1.0000
  C   C410      1.0  0.40470  0.98892  0.25452  1.0000
  C   C411      1.0  0.46840  0.92864  0.75083  1.0000
  C   C412      1.0  0.41893  0.98573  0.23893  1.0000
  C   C413      1.0  0.28140  0.81648  0.12556  1.0000
  S   S144      1.0  0.38461  0.97395  0.25577  1.0000
  C   C414      1.0  0.29019  0.82813  0.15101  1.0000
  H   H414      1.0  0.48987  0.79090  0.95422  1.0000
  C   C415      1.0  0.29423  0.84450  0.14065  1.0000
  H   H415      1.0  0.47994  0.81458  0.87783  1.0000
  C   C416      1.0  0.44903  0.90444  0.11444  1.0000
  H   H416      1.0  0.45869  0.88248  0.22926  1.0000
  C   C417      1.0  0.44273  0.96191  0.74400  1.0000
  H   H417      1.0  0.29305  0.86178  0.09635  1.0000
  S   S145      1.0  0.48653  0.86561  0.14072  1.0000
  N   N34       1.0  0.43679  0.93374  0.49369  1.0000
  H   H418      1.0  0.45344  0.91630  0.17020  1.0000
  H   H419      1.0  0.43358  0.93190  0.71708  1.0000
  H   H420      1.0  0.43086  0.94391  0.54825  1.0000
  H   H421      1.0  0.47503  0.92019  0.75272  1.0000
  C   C418      1.0  0.44761  0.89032  0.09427  1.0000
  H   H422      1.0  0.42058  0.93530  0.40565  1.0000
  H   H423      1.0  0.30109  0.85370  0.16014  1.0000
  H   H424      1.0  0.40718  0.95167  0.44623  1.0000
  N   N35       1.0  0.46429  0.98234  0.29104  1.0000
  C   C419      1.0  0.45288  0.87855  0.15480  1.0000
  C   C420      1.0  0.44803  0.96916  0.29374  1.0000
  H   H425      1.0  0.26994  0.81227  0.07039  1.0000
  C   C421      1.0  0.43396  0.93122  0.45419  1.0000
  C   C422      1.0  0.41849  0.94920  0.49970  1.0000
  C   C423      1.0  0.42334  0.93772  0.43652  1.0000
  C   C424      1.0  0.45236  0.90529  0.15474  1.0000
  C   C425      1.0  0.27636  0.84254  0.04205  1.0000
  H   H426      1.0  0.48745  0.76536  0.08683  1.0000
  H   H427      1.0  0.48666  0.87604  0.22195  1.0000
  H   H428      1.0  0.44843  0.86626  0.09909  1.0000
  C   C426      1.0  0.47859  0.97879  0.28336  1.0000
  H   H429      1.0  0.43478  0.95952  0.71876  1.0000
  C   C427      1.0  0.49556  0.90815  0.87434  1.0000
  H   H430      1.0  0.26460  0.84512  0.04851  1.0000
  C   C428      1.0  0.47795  0.80841  0.90804  1.0000
  C   C429      1.0  0.49430  0.99112  0.28011  1.0000
  N   N36       1.0  0.49321  0.81420  0.92845  1.0000
  C   C430      1.0  0.47164  0.75162  0.04366  1.0000
  H   H431      1.0  0.46764  0.81084  0.92657  1.0000
  H   H432      1.0  0.48678  0.91436  0.88103  1.0000
  C   C431      1.0  0.25474  0.75097  0.97563  1.0000
  H   H433      1.0  0.39535  0.99479  0.66028  1.0000
  H   H434      1.0  0.47392  0.79516  0.90398  1.0000
  H   H435      1.0  0.28635  0.85356  0.02784  1.0000
  C   C432      1.0  0.49512  0.88618  0.20318  1.0000
  C   C433      1.0  0.49568  0.89582  0.90151  1.0000
  H   H436      1.0  0.64361  0.22521  0.92567  1.0000
  S   S146      1.0  0.51680  0.10143  0.25264  1.0000
  C   C434      1.0  0.63411  0.16738  0.32226  1.0000
  H   H437      1.0  0.50440  0.12173  0.31589  1.0000
  Fe  Fe74      1.0  0.67081  0.19407  0.97017  1.0000
  S   S147      1.0  0.64970  0.18410  0.01934  1.0000
  S   S148      1.0  0.67341  0.18298  0.90954  1.0000
  Fe  Fe75      1.0  0.68978  0.22435  0.01715  1.0000
  S   S149      1.0  0.66961  0.21639  0.07010  1.0000
  C   C435      1.0  0.52236  0.12527  0.71250  1.0000
  Fe  Fe76      1.0  0.66960  0.19095  0.06208  1.0000
  S   S150      1.0  0.67003  0.17226  0.11021  1.0000
  Fe  Fe77      1.0  0.65099  0.20988  0.02396  1.0000
  S   S151      1.0  0.62830  0.21757  0.02924  1.0000
  S   S152      1.0  0.69106  0.19921  0.01193  1.0000
  S   S153      1.0  0.67077  0.21946  0.97189  1.0000
  Fe  Fe78      1.0  0.51478  0.20215  0.95433  1.0000
  S   S154      1.0  0.52501  0.19048  0.90280  1.0000
  Fe  Fe79      1.0  0.51067  0.17358  0.01437  1.0000
  S   S155      1.0  0.52069  0.16037  0.96753  1.0000
  H   H438      1.0  0.53753  0.12701  0.18757  1.0000
  Fe  Fe80      1.0  0.54011  0.18458  0.94873  1.0000
  S   S156      1.0  0.56617  0.18364  0.93280  1.0000
  C   C436      1.0  0.65872  0.14215  0.35227  1.0000
  C   C437      1.0  0.52981  0.13407  0.17843  1.0000
  S   S157      1.0  0.53130  0.19771  0.99851  1.0000
  C   C438      1.0  0.54583  0.01765  0.64800  1.0000
  Fe  Fe81      1.0  0.58928  0.11486  0.69757  1.0000
  S   S158      1.0  0.58468  0.10637  0.76208  1.0000
  S   S159      1.0  0.57199  0.12295  0.66416  1.0000
  Fe  Fe82      1.0  0.61941  0.10547  0.68184  1.0000
  S   S160      1.0  0.61763  0.09589  0.74634  1.0000
  S   S161      1.0  0.63717  0.10425  0.62797  1.0000
  Fe  Fe83      1.0  0.59006  0.08454  0.74024  1.0000
  S   S162      1.0  0.57016  0.06075  0.76371  1.0000
  Fe  Fe84      1.0  0.61239  0.11858  0.76434  1.0000
  S   S163      1.0  0.61532  0.13166  0.82397  1.0000
  S   S164      1.0  0.59246  0.09226  0.67528  1.0000
  S   S165      1.0  0.61640  0.12893  0.70023  1.0000
  Fe  Fe85      1.0  0.58199  0.10041  0.37503  1.0000
  S   S166      1.0  0.58880  0.09374  0.31275  1.0000
  S   S167      1.0  0.55601  0.09794  0.40079  1.0000
  Fe  Fe86      1.0  0.61731  0.11054  0.39826  1.0000
  S   S168      1.0  0.62745  0.10478  0.33751  1.0000
  S   S169      1.0  0.63320  0.12422  0.44598  1.0000
  Fe  Fe87      1.0  0.61133  0.11680  0.31012  1.0000
  S   S170      1.0  0.61678  0.13694  0.26075  1.0000
  Fe  Fe88      1.0  0.60414  0.08220  0.34433  1.0000
  S   S171      1.0  0.60399  0.05676  0.33317  1.0000
  S   S172      1.0  0.60293  0.12415  0.37064  1.0000
  S   S173      1.0  0.59560  0.08724  0.40702  1.0000
  C   C439      1.0  0.58481  0.04135  0.32615  1.0000
  C   C440      1.0  0.57000  0.04469  0.32614  1.0000
  H   H439      1.0  0.57028  0.05699  0.32877  1.0000
  C   C441      1.0  0.57033  0.01147  0.72189  1.0000
  C   C442      1.0  0.58493  0.04048  0.72647  1.0000
  C   C443      1.0  0.57070  0.04191  0.74791  1.0000
  C   C444      1.0  0.55635  0.02805  0.75660  1.0000
  H   H440      1.0  0.59607  0.05109  0.71980  1.0000
  H   H441      1.0  0.54530  0.02911  0.77318  1.0000
  C   C445      1.0  0.63432  0.10987  0.57872  1.0000
  C   C446      1.0  0.64549  0.12438  0.56026  1.0000
  C   C447      1.0  0.64478  0.12848  0.51989  1.0000
  C   C448      1.0  0.63311  0.11801  0.49686  1.0000
  C   C449      1.0  0.62181  0.10342  0.51509  1.0000
  C   C450      1.0  0.62239  0.09938  0.55600  1.0000
  H   H442      1.0  0.65497  0.13239  0.57710  1.0000
  H   H443      1.0  0.65360  0.13974  0.50622  1.0000
  H   H444      1.0  0.61279  0.09519  0.49764  1.0000
  H   H445      1.0  0.61398  0.08794  0.56966  1.0000
  H   H446      1.0  0.63846  0.17847  0.33958  1.0000
  C   C451      1.0  0.61008  0.20660  0.00681  1.0000
  C   C452      1.0  0.60895  0.19267  0.98578  1.0000
  C   C453      1.0  0.59487  0.18509  0.96521  1.0000
  C   C454      1.0  0.58185  0.19138  0.96551  1.0000
  C   C455      1.0  0.58268  0.20489  0.98791  1.0000
  C   C456      1.0  0.59676  0.21248  0.00841  1.0000
  H   H447      1.0  0.61911  0.18802  0.98436  1.0000
  H   H448      1.0  0.59432  0.17464  0.94794  1.0000
  H   H449      1.0  0.57278  0.20988  0.98818  1.0000
  H   H450      1.0  0.59753  0.22320  0.02477  1.0000
  C   C457      1.0  0.65474  0.16221  0.15111  1.0000
  C   C458      1.0  0.64087  0.16671  0.16247  1.0000
  C   C459      1.0  0.62928  0.15861  0.19555  1.0000
  C   C460      1.0  0.63122  0.14576  0.21745  1.0000
  C   C461      1.0  0.64491  0.14103  0.20558  1.0000
  C   C462      1.0  0.65665  0.14930  0.17287  1.0000
  H   H451      1.0  0.63916  0.17658  0.14613  1.0000
  H   H452      1.0  0.61875  0.16240  0.20433  1.0000
  H   H453      1.0  0.64657  0.13114  0.22194  1.0000
  H   H454      1.0  0.66728  0.14563  0.16429  1.0000
  C   C463      1.0  0.65698  0.16913  0.88566  1.0000
  C   C464      1.0  0.66063  0.16398  0.84725  1.0000
  C   C465      1.0  0.64808  0.15258  0.82773  1.0000
  C   C466      1.0  0.63171  0.14616  0.84655  1.0000
  C   C467      1.0  0.62805  0.15137  0.88495  1.0000
  C   C468      1.0  0.64059  0.16279  0.90443  1.0000
  H   H455      1.0  0.67329  0.16877  0.83252  1.0000
  H   H456      1.0  0.65108  0.14869  0.79823  1.0000
  H   H457      1.0  0.61541  0.14648  0.89976  1.0000
  H   H458      1.0  0.63759  0.16659  0.93402  1.0000
  C   C469      1.0  0.52338  0.07999  0.66905  1.0000
  C   C470      1.0  0.52755  0.09179  0.63770  1.0000
  C   C471      1.0  0.54254  0.10504  0.63594  1.0000
  C   C472      1.0  0.55374  0.10598  0.66436  1.0000
  C   C473      1.0  0.55025  0.09333  0.69328  1.0000
  C   C474      1.0  0.53497  0.08048  0.69612  1.0000
  H   H459      1.0  0.51917  0.09077  0.61491  1.0000
  H   H460      1.0  0.54538  0.11454  0.61274  1.0000
  H   H461      1.0  0.55892  0.09375  0.71487  1.0000
  H   H462      1.0  0.53191  0.07136  0.72033  1.0000
  C   C475      1.0  0.65739  0.16100  0.28665  1.0000
  C   C476      1.0  0.55457  0.03354  0.65736  1.0000
  H   H463      1.0  0.59690  0.03443  0.42158  1.0000
  C   C477      1.0  0.53171  0.10769  0.76893  1.0000
  C   C478      1.0  0.54577  0.04334  0.67214  1.0000
  C   C479      1.0  0.58420  0.02527  0.32271  1.0000
  H   H464      1.0  0.54476  0.02652  0.41728  1.0000
  C   C480      1.0  0.58035  0.00945  0.42237  1.0000
  H   H465      1.0  0.52163  0.13873  0.04473  1.0000
  H   H466      1.0  0.65901  0.13474  0.37817  1.0000
  C   C481      1.0  0.49832  0.21294  0.84869  1.0000
  C   C482      1.0  0.52741  0.10002  0.29402  1.0000
  C   C483      1.0  0.54472  0.10801  0.29150  1.0000
  C   C484      1.0  0.55347  0.10736  0.32440  1.0000
  C   C485      1.0  0.54491  0.09879  0.36003  1.0000
  C   C486      1.0  0.52753  0.09101  0.36294  1.0000
  C   C487      1.0  0.51878  0.09155  0.32980  1.0000
  H   H467      1.0  0.55143  0.11464  0.26397  1.0000
  H   H468      1.0  0.56686  0.11360  0.32220  1.0000
  H   H469      1.0  0.52088  0.08441  0.39054  1.0000
  H   H470      1.0  0.50541  0.08556  0.33216  1.0000
  N   N37       1.0  0.59188  0.11736  0.55461  1.0000
  C   C488      1.0  0.59395  0.12125  0.51416  1.0000
  C   C489      1.0  0.57839  0.10455  0.57093  1.0000
  C   C490      1.0  0.58241  0.11209  0.48891  1.0000
  C   C491      1.0  0.56651  0.09525  0.54667  1.0000
  C   C492      1.0  0.56859  0.09905  0.50536  1.0000
  C   C493      1.0  0.60359  0.12744  0.58114  1.0000
  H   H471      1.0  0.60471  0.13132  0.50105  1.0000
  H   H472      1.0  0.57674  0.10152  0.60297  1.0000
  H   H473      1.0  0.58413  0.11506  0.45679  1.0000
  H   H474      1.0  0.55572  0.08526  0.55997  1.0000
  H   H475      1.0  0.55951  0.09195  0.48603  1.0000
  H   H476      1.0  0.59833  0.13615  0.59574  1.0000
  H   H477      1.0  0.60586  0.11987  0.60518  1.0000
  H   H478      1.0  0.61596  0.13422  0.56438  1.0000
  C   C494      1.0  0.58479  0.02525  0.71390  1.0000
  C   C495      1.0  0.60091  0.17969  0.84638  1.0000
  H   H479      1.0  0.49689  0.00835  0.70019  1.0000
  H   H480      1.0  0.50748  0.01672  0.28260  1.0000
  H   H481      1.0  0.53167  0.11690  0.42706  1.0000
  H   H482      1.0  0.52627  0.12283  0.36009  1.0000
  H   H483      1.0  0.57395  0.04538  0.41983  1.0000
  H   H484      1.0  0.50061  0.11091  0.04708  1.0000
  H   H485      1.0  0.52160  0.99951  0.64558  1.0000
  H   H486      1.0  0.54815  0.14116  0.70594  1.0000
  C   C496      1.0  0.61933  0.21680  0.90384  1.0000
  H   H487      1.0  0.67732  0.15415  0.25701  1.0000
  N   N38       1.0  0.51548  0.10270  0.76001  1.0000
  H   H488      1.0  0.60428  0.16857  0.84532  1.0000
  H   H489      1.0  0.55248  0.05547  0.68124  1.0000
  C   C497      1.0  0.56885  0.01259  0.32030  1.0000
  C   C498      1.0  0.66279  0.14994  0.01391  1.0000
  H   H490      1.0  0.62675  0.13095  0.07323  1.0000
  C   C499      1.0  0.60833  0.20483  0.88261  1.0000
  C   C500      1.0  0.62889  0.19268  0.86815  1.0000
  H   H491      1.0  0.54334  0.03482  0.32347  1.0000
  N   N39       1.0  0.52222  0.12769  0.14179  1.0000
  C   C501      1.0  0.52632  0.13704  0.10671  1.0000
  C   C502      1.0  0.51084  0.11228  0.14325  1.0000
  H   H492      1.0  0.53268  0.13651  0.44495  1.0000
  H   H493      1.0  0.55260  0.00972  0.63821  1.0000
  H   H494      1.0  0.51849  0.13190  0.69021  1.0000
  C   C503      1.0  0.51885  0.13102  0.07196  1.0000
  C   C504      1.0  0.57113  0.03238  0.42153  1.0000
  C   C505      1.0  0.50700  0.11543  0.07337  1.0000
  N   N40       1.0  0.51978  0.02177  0.66591  1.0000
  C   C506      1.0  0.49715  0.12660  0.43025  1.0000
  S   S174      1.0  0.50515  0.16455  0.08050  1.0000
  H   H495      1.0  0.53788  0.14703  0.17423  1.0000
  C   C507      1.0  0.54363  0.12175  0.75012  1.0000
  C   C508      1.0  0.50227  0.12326  0.34798  1.0000
  Fe  Fe89      1.0  0.50494  0.16696  0.92517  1.0000
  H   H496      1.0  0.60036  0.18378  0.81517  1.0000
  H   H497      1.0  0.51986  0.13298  0.20343  1.0000
  H   H498      1.0  0.56815  0.03808  0.65454  1.0000
  H   H499      1.0  0.55660  0.12546  0.75635  1.0000
  C   C509      1.0  0.66960  0.14352  0.31745  1.0000
  C   C510      1.0  0.53889  0.13055  0.72166  1.0000
  C   C511      1.0  0.64714  0.15014  0.35330  1.0000
  N   N41       1.0  0.61299  0.19265  0.86637  1.0000
  C   C512      1.0  0.64019  0.20439  0.88936  1.0000
  C   C513      1.0  0.58404  0.02621  0.42250  1.0000
  H   H500      1.0  0.50115  0.21749  0.81673  1.0000
  H   H501      1.0  0.65688  0.16823  0.26064  1.0000
  C   C514      1.0  0.55475  0.02180  0.42010  1.0000
  H   H502      1.0  0.56849  0.00026  0.31817  1.0000
  H   H503      1.0  0.58821  0.17618  0.86330  1.0000
  H   H504      1.0  0.51008  0.21303  0.86034  1.0000
  H   H505      1.0  0.62177  0.15915  0.33653  1.0000
  H   H506      1.0  0.67840  0.13711  0.31603  1.0000
  H   H507      1.0  0.59562  0.02261  0.32257  1.0000
  C   C515      1.0  0.55404  0.01597  0.32075  1.0000
  C   C516      1.0  0.63525  0.21639  0.90778  1.0000
  H   H508      1.0  0.61523  0.22584  0.91886  1.0000
  H   H509      1.0  0.64754  0.13856  0.08796  1.0000
  C   C517      1.0  0.51079  0.11119  0.73192  1.0000
  C   C518      1.0  0.52832  0.01192  0.65257  1.0000
  H   H510      1.0  0.53563  0.10065  0.79002  1.0000
  H   H511      1.0  0.59574  0.20486  0.88107  1.0000
  H   H512      1.0  0.59589  0.02421  0.69754  1.0000
  S   S175      1.0  0.50693  0.22456  0.94572  1.0000
  C   C519      1.0  0.63920  0.14059  0.06656  1.0000
  N   N42       1.0  0.64642  0.14061  0.02488  1.0000
  C   C520      1.0  0.66995  0.15042  0.97424  1.0000
  C   C521      1.0  0.66031  0.14121  0.94580  1.0000
  C   C522      1.0  0.52416  0.12408  0.44023  1.0000
  H   H513      1.0  0.67035  0.15724  0.03578  1.0000
  H   H514      1.0  0.68277  0.15824  0.96527  1.0000
  C   C523      1.0  0.63675  0.13182  0.99693  1.0000
  H   H515      1.0  0.63282  0.18343  0.85374  1.0000
  S   S176      1.0  0.53427  0.00051  0.32041  1.0000
  C   C524      1.0  0.52826  0.03718  0.67646  1.0000
  H   H516      1.0  0.63782  0.15247  0.07250  1.0000
  H   H517      1.0  0.66563  0.14177  0.91469  1.0000
  C   C525      1.0  0.55153  0.00513  0.41970  1.0000
  H   H518      1.0  0.53494  0.14944  0.10562  1.0000
  H   H519      1.0  0.49802  0.10706  0.72429  1.0000
  C   C526      1.0  0.64357  0.13189  0.95706  1.0000
  H   H520      1.0  0.62365  0.12476  0.00522  1.0000
  H   H521      1.0  0.63191  0.17065  0.29153  1.0000
  N   N43       1.0  0.64640  0.15918  0.32048  1.0000
  H   H522      1.0  0.63586  0.12513  0.93468  1.0000
  C   C527      1.0  0.55609  0.01289  0.74328  1.0000
  N   N44       1.0  0.51160  0.12468  0.41396  1.0000
  H   H523      1.0  0.65257  0.20395  0.89209  1.0000
  C   C528      1.0  0.55472  0.03208  0.32318  1.0000
  C   C529      1.0  0.66903  0.15308  0.28444  1.0000
  H   H524      1.0  0.54102  0.24683  0.95686  1.0000
  H   H525      1.0  0.63861  0.14885  0.38039  1.0000
  H   H526      1.0  0.51805  0.11802  0.46996  1.0000
  C   C530      1.0  0.50296  0.10596  0.10920  1.0000
  N   N45       1.0  0.56422  0.99915  0.42152  1.0000
  C   C531      1.0  0.51453  0.12369  0.37322  1.0000
  H   H527      1.0  0.52150  0.04476  0.68852  1.0000
  S   S177      1.0  0.50320  0.06560  0.67694  1.0000
  H   H528      1.0  0.50640  0.16400  0.81520  1.0000
  C   C532      1.0  0.50142  0.01545  0.67109  1.0000
  H   H529      1.0  0.59052  0.00478  0.42210  1.0000
  H   H530      1.0  0.50751  0.10496  0.17119  1.0000
  H   H531      1.0  0.74567  0.24498  0.96278  1.0000
  C   C533      1.0  0.51630  0.24616  0.94752  1.0000
  H   H532      1.0  0.49922  0.15052  0.16052  1.0000
  H   H533      1.0  0.50312  0.15729  0.74343  1.0000
  C   C534      1.0  0.50321  0.08765  0.77871  1.0000
  H   H534      1.0  0.50658  0.08479  0.80846  1.0000
  C   C535      1.0  0.49795  0.15231  0.80786  1.0000
  H   H535      1.0  0.50254  0.07751  0.75862  1.0000
  H   H536      1.0  0.54491  0.00235  0.74971  1.0000
  Fe  Fe90      1.0  0.63696  0.45728  0.02829  1.0000
  S   S178      1.0  0.62864  0.47702  0.00752  1.0000
  S   S179      1.0  0.61754  0.43319  0.05193  1.0000
  Fe  Fe91      1.0  0.67453  0.47836  0.01294  1.0000
  N   N46       1.0  0.65021  0.41882  0.96087  1.0000
  C   C536      1.0  0.55269  0.46253  0.37776  1.0000
  H   H537      1.0  0.61727  0.46259  0.19442  1.0000
  C   C537      1.0  0.51612  0.30313  0.05812  1.0000
  C   C538      1.0  0.53701  0.38878  0.85728  1.0000
  H   H538      1.0  0.60002  0.48959  0.50625  1.0000
  S   S180      1.0  0.65527  0.47320  0.06781  1.0000
  S   S181      1.0  0.65619  0.46105  0.97538  1.0000
  Fe  Fe92      1.0  0.53290  0.32570  0.95432  1.0000
  S   S182      1.0  0.53811  0.34526  0.90473  1.0000
  S   S183      1.0  0.53934  0.30225  0.95243  1.0000
  Fe  Fe93      1.0  0.52468  0.34735  0.01878  1.0000
  S   S184      1.0  0.52878  0.36800  0.97484  1.0000
  C   C539      1.0  0.52355  0.40204  0.10160  1.0000
  Fe  Fe94      1.0  0.51499  0.34916  0.93341  1.0000
  H   H539      1.0  0.64441  0.40768  0.90513  1.0000
  Fe  Fe95      1.0  0.55152  0.36313  0.94901  1.0000
  S   S185      1.0  0.57455  0.38519  0.92945  1.0000
  C   C540      1.0  0.63858  0.41268  0.93040  1.0000
  S   S186      1.0  0.54849  0.34364  0.99553  1.0000
  S   S187      1.0  0.53774  0.44039  0.25198  1.0000
  C   C541      1.0  0.50250  0.37044  0.17448  1.0000
  H   H540      1.0  0.54580  0.32141  0.07258  1.0000
  S   S188      1.0  0.58258  0.48119  0.68764  1.0000
  H   H541      1.0  0.53292  0.44614  0.34735  1.0000
  C   C542      1.0  0.54023  0.41112  0.16951  1.0000
  H   H542      1.0  0.62694  0.40285  0.94317  1.0000
  C   C543      1.0  0.50639  0.25581  0.94281  1.0000
  C   C544      1.0  0.52684  0.45705  0.72506  1.0000
  C   C545      1.0  0.53438  0.45219  0.69097  1.0000
  C   C546      1.0  0.55164  0.45928  0.68023  1.0000
  C   C547      1.0  0.56127  0.47167  0.70274  1.0000
  C   C548      1.0  0.55369  0.47681  0.73633  1.0000
  C   C549      1.0  0.53651  0.46936  0.74779  1.0000
  H   H543      1.0  0.52695  0.44324  0.67230  1.0000
  H   H544      1.0  0.55743  0.45546  0.65388  1.0000
  C   C550      1.0  0.49754  0.42086  0.47233  1.0000
  H   H545      1.0  0.53072  0.47324  0.77405  1.0000
  C   C551      1.0  0.53923  0.46053  0.25631  1.0000
  C   C552      1.0  0.52478  0.46453  0.26341  1.0000
  H   H546      1.0  0.62169  0.48284  0.82947  1.0000
  H   H547      1.0  0.61807  0.46154  0.12003  1.0000
  H   H548      1.0  0.51497  0.48351  0.27790  1.0000
  C   C553      1.0  0.55499  0.47257  0.25514  1.0000
  H   H549      1.0  0.51255  0.45529  0.26382  1.0000
  C   C554      1.0  0.73983  0.25969  0.04486  1.0000
  S   S189      1.0  0.50875  0.32851  0.98041  1.0000
  H   H550      1.0  0.56609  0.46944  0.24926  1.0000
  C   C555      1.0  0.53003  0.28070  0.94934  1.0000
  C   C556      1.0  0.51315  0.27291  0.94382  1.0000
  H   H551      1.0  0.54974  0.38214  0.08568  1.0000
  H   H552      1.0  0.72502  0.45875  0.01043  1.0000
  H   H553      1.0  0.52869  0.38758  0.88577  1.0000
  C   C557      1.0  0.53994  0.27105  0.95397  1.0000
  H   H554      1.0  0.59448  0.46629  0.25732  1.0000
  H   H555      1.0  0.55022  0.39514  0.86311  1.0000
  H   H556      1.0  0.65030  0.42194  0.06183  1.0000
  H   H557      1.0  0.55301  0.27684  0.95819  1.0000
  C   C558      1.0  0.72437  0.30158  0.06617  1.0000
  C   C559      1.0  0.66659  0.42781  0.94887  1.0000
  C   C560      1.0  0.54629  0.40335  0.13860  1.0000
  H   H558      1.0  0.53558  0.37624  0.84882  1.0000
  S   S190      1.0  0.50528  0.44834  0.73892  1.0000
  S   S191      1.0  0.69894  0.47246  0.01278  1.0000
  C   C561      1.0  0.53737  0.45764  0.36169  1.0000
  C   C562      1.0  0.52369  0.41948  0.80555  1.0000
  C   C563      1.0  0.50964  0.35836  0.11289  1.0000
  S   S192      1.0  0.64110  0.48224  0.89397  1.0000
  S   S193      1.0  0.71090  0.24961  0.00432  1.0000
  C   C564      1.0  0.49703  0.36229  0.85061  1.0000
  C   C565      1.0  0.60471  0.42049  0.01814  1.0000
  C   C566      1.0  0.59287  0.40546  0.03246  1.0000
  C   C567      1.0  0.58326  0.39466  0.00579  1.0000
  C   C568      1.0  0.58553  0.39877  0.96448  1.0000
  C   C569      1.0  0.59728  0.41386  0.95029  1.0000
  C   C570      1.0  0.60676  0.42470  0.97696  1.0000
  H   H559      1.0  0.59131  0.40203  0.06420  1.0000
  H   H560      1.0  0.57439  0.38301  0.01700  1.0000
  H   H561      1.0  0.59909  0.41716  0.91842  1.0000
  H   H562      1.0  0.61581  0.43625  0.96553  1.0000
  C   C571      1.0  0.67770  0.43461  0.97737  1.0000
  H   H563      1.0  0.50295  0.43392  0.47156  1.0000
  C   C572      1.0  0.51015  0.48981  0.71231  1.0000
  C   C573      1.0  0.65514  0.42331  0.03021  1.0000
  H   H564      1.0  0.53881  0.27885  0.04527  1.0000
  C   C574      1.0  0.52879  0.40150  0.75617  1.0000
  C   C575      1.0  0.59481  0.48565  0.13694  1.0000
  C   C576      1.0  0.67187  0.43242  0.01827  1.0000
  Fe  Fe96      1.0  0.51116  0.42459  0.26953  1.0000
  S   S194      1.0  0.50468  0.41322  0.66334  1.0000
  C   C577      1.0  0.54195  0.49233  0.27263  1.0000
  C   C578      1.0  0.55834  0.47743  0.39565  1.0000
  C   C579      1.0  0.61133  0.46836  0.13646  1.0000
  H   H565      1.0  0.51602  0.46393  0.35100  1.0000
  H   H566      1.0  0.54673  0.41460  0.19619  1.0000
  H   H567      1.0  0.52062  0.42009  0.19002  1.0000
  N   N47       1.0  0.53240  0.39762  0.82567  1.0000
  C   C580      1.0  0.51223  0.27117  0.04365  1.0000
  C   C581      1.0  0.61081  0.46898  0.17846  1.0000
  H   H568      1.0  0.51626  0.48156  0.70115  1.0000
  H   H569      1.0  0.51673  0.39825  0.07556  1.0000
  C   C582      1.0  0.73088  0.47154  0.01471  1.0000
  H   H570      1.0  0.51619  0.49135  0.35576  1.0000
  H   H571      1.0  0.59729  0.48755  0.25534  1.0000
  N   N48       1.0  0.53382  0.48264  0.38002  1.0000
  C   C583      1.0  0.53309  0.39310  0.78659  1.0000
  C   C584      1.0  0.52793  0.46782  0.36359  1.0000
  H   H572      1.0  0.50519  0.35024  0.75654  1.0000
  H   H573      1.0  0.67105  0.43016  0.91709  1.0000
  H   H574      1.0  0.63141  0.40963  0.01058  1.0000
  H   H575      1.0  0.63497  0.42266  0.91839  1.0000
  H   H576      1.0  0.68023  0.43822  0.04050  1.0000
  H   H577      1.0  0.50458  0.37364  0.20522  1.0000
  C   C585      1.0  0.51223  0.36262  0.15281  1.0000
  C   C586      1.0  0.49832  0.27603  0.04562  1.0000
  C   C587      1.0  0.52796  0.41074  0.83529  1.0000
  H   H578      1.0  0.49920  0.41972  0.40781  1.0000
  H   H579      1.0  0.72825  0.32300  0.02960  1.0000
  H   H580      1.0  0.60834  0.49207  0.94016  1.0000
  H   H581      1.0  0.72448  0.28170  0.10407  1.0000
  H   H582      1.0  0.58454  0.47024  0.55836  1.0000
  C   C588      1.0  0.54642  0.31001  0.05968  1.0000
  S   S195      1.0  0.52218  0.34858  0.08684  1.0000
  H   H583      1.0  0.51099  0.25883  0.03666  1.0000
  C   C589      1.0  0.49722  0.36196  0.09471  1.0000
  H   H584      1.0  0.52061  0.42134  0.74264  1.0000
  C   C590      1.0  0.64444  0.41648  0.00096  1.0000
  C   C591      1.0  0.52794  0.28255  0.04867  1.0000
  H   H585      1.0  0.69057  0.44217  0.96788  1.0000
  H   H586      1.0  0.53471  0.38386  0.05453  1.0000
  H   H587      1.0  0.53657  0.38270  0.77885  1.0000
  C   C592      1.0  0.55636  0.48849  0.26322  1.0000
  Fe  Fe97      1.0  0.64910  0.48213  0.95684  1.0000
  H   H588      1.0  0.50530  0.28004  0.94025  1.0000
  C   C593      1.0  0.52554  0.41427  0.16608  1.0000
  N   N49       1.0  0.60416  0.49244  0.56832  1.0000
  C   C594      1.0  0.59448  0.48596  0.17892  1.0000
  H   H589      1.0  0.52761  0.41444  0.86615  1.0000
  C   C595      1.0  0.52615  0.48050  0.27128  1.0000
  H   H590      1.0  0.52877  0.39754  0.72545  1.0000
  C   C596      1.0  0.54463  0.39094  0.07305  1.0000
  C   C597      1.0  0.54868  0.48739  0.39656  1.0000
  C   C598      1.0  0.51713  0.40974  0.13198  1.0000
  C   C599      1.0  0.72097  0.48145  0.01714  1.0000
  H   H591      1.0  0.59246  0.47128  0.60656  1.0000
  C   C600      1.0  0.50024  0.29210  0.05296  1.0000
  H   H592      1.0  0.52178  0.35983  0.16714  1.0000
  C   C601      1.0  0.52406  0.41475  0.76583  1.0000
  C   C602      1.0  0.73052  0.26357  0.01674  1.0000
  C   C603      1.0  0.53316  0.25396  0.95326  1.0000
  H   H593      1.0  0.55324  0.30498  0.07967  1.0000
  H   H594      1.0  0.52006  0.42984  0.81305  1.0000
  N   N50       1.0  0.60257  0.47781  0.19907  1.0000
  C   C604      1.0  0.60336  0.47685  0.11566  1.0000
  H   H595      1.0  0.50537  0.41167  0.12982  1.0000
  N   N51       1.0  0.52970  0.29825  0.05607  1.0000
  H   H596      1.0  0.56016  0.45478  0.37629  1.0000
  H   H597      1.0  0.55769  0.40087  0.14143  1.0000
  H   H598      1.0  0.61525  0.48170  0.25180  1.0000
  H   H599      1.0  0.57025  0.48143  0.40831  1.0000
  C   C605      1.0  0.58939  0.47844  0.58286  1.0000
  C   C606      1.0  0.60231  0.47827  0.24304  1.0000
  H   H600      1.0  0.73023  0.28214  0.97463  1.0000
  H   H601      1.0  0.55362  0.31301  0.02932  1.0000
  C   C607      1.0  0.52379  0.49317  0.38168  1.0000
  H   H602      1.0  0.51541  0.49070  0.41031  1.0000
  N   N52       1.0  0.53786  0.39878  0.10539  1.0000
  H   H603      1.0  0.55464  0.40017  0.05319  1.0000
  H   H604      1.0  0.71232  0.29492  0.05588  1.0000
  Fe  Fe98      1.0  0.64826  0.49353  0.04268  1.0000
  C   C608      1.0  0.60787  0.49662  0.52798  1.0000
  H   H605      1.0  0.73497  0.24796  0.06067  1.0000
  C   C609      1.0  0.50122  0.35707  0.77964  1.0000
  H   H606      1.0  0.60408  0.47685  0.08303  1.0000
  C   C610      1.0  0.50278  0.35404  0.82036  1.0000
  H   H607      1.0  0.51753  0.31564  0.06332  1.0000
  C   C611      1.0  0.73724  0.27895  0.99651  1.0000
  C   C612      1.0  0.73347  0.31741  0.05132  1.0000
  H   H608      1.0  0.56110  0.48634  0.75388  1.0000
  S   S196      1.0  0.50519  0.39782  0.27522  1.0000
  H   H609      1.0  0.58810  0.49312  0.19513  1.0000
  C   C613      1.0  0.62837  0.49528  0.83592  1.0000
  H   H610      1.0  0.57931  0.48265  0.59644  1.0000
  C   C614      1.0  0.73116  0.29415  0.09336  1.0000
  H   H611      1.0  0.50780  0.34486  0.82846  1.0000
  H   H612      1.0  0.58887  0.49256  0.12097  1.0000
  H   H613      1.0  0.73819  0.25596  0.92919  1.0000
  S   S197      1.0  0.49654  0.42612  0.32768  1.0000
  Fe  Fe99      1.0  0.60628  0.52843  0.29680  1.0000
  S   S198      1.0  0.59027  0.54127  0.27261  1.0000
  S   S199      1.0  0.62496  0.51869  0.26244  1.0000
  Fe  Fe100     1.0  0.58896  0.52522  0.38376  1.0000
  S   S200      1.0  0.57130  0.53712  0.36598  1.0000
  H   H614      1.0  0.60169  0.57833  0.57667  1.0000
  Fe  Fe101     1.0  0.56915  0.52284  0.31071  1.0000
  Fe  Fe102     1.0  0.59371  0.55476  0.32996  1.0000
  S   S201      1.0  0.59495  0.58050  0.33742  1.0000
  C   C615      1.0  0.62351  0.51428  0.96472  1.0000
  S   S202      1.0  0.61187  0.54381  0.35135  1.0000
  Fe  Fe103     1.0  0.60575  0.53934  0.66165  1.0000
  S   S203      1.0  0.57929  0.52257  0.67327  1.0000
  S   S204      1.0  0.61455  0.55126  0.59890  1.0000
  Fe  Fe104     1.0  0.61272  0.53408  0.74896  1.0000
  S   S205      1.0  0.58648  0.51692  0.76582  1.0000
  S   S206      1.0  0.63113  0.54005  0.79626  1.0000
  H   H615      1.0  0.65094  0.53427  0.99259  1.0000
  Fe  Fe105     1.0  0.57866  0.53475  0.73151  1.0000
  S   S207      1.0  0.55502  0.54021  0.74915  1.0000
  S   S208      1.0  0.61673  0.52278  0.69057  1.0000
  S   S209      1.0  0.60471  0.55279  0.71838  1.0000
  H   H616      1.0  0.55136  0.53842  0.64727  1.0000
  H   H617      1.0  0.61045  0.49865  0.62770  1.0000
  N   N53       1.0  0.62963  0.53080  0.96094  1.0000
  H   H618      1.0  0.64443  0.50312  0.21596  1.0000
  S   S210      1.0  0.52022  0.61657  0.77265  1.0000
  C   C616      1.0  0.53693  0.68148  0.69757  1.0000
  Fe  Fe106     1.0  0.53271  0.61599  0.71062  1.0000
  S   S211      1.0  0.55603  0.60976  0.69712  1.0000
  S   S212      1.0  0.58466  0.50900  0.33141  1.0000
  S   S213      1.0  0.53404  0.64095  0.69126  1.0000
  H   H619      1.0  0.60478  0.57967  0.62935  1.0000
  S   S214      1.0  0.63814  0.51185  0.07288  1.0000
  H   H620      1.0  0.61007  0.53630  0.88145  1.0000
  Fe  Fe107     1.0  0.52391  0.61406  0.31690  1.0000
  S   S215      1.0  0.51890  0.60949  0.38361  1.0000
  S   S216      1.0  0.53782  0.60157  0.27638  1.0000
  C   C617      1.0  0.57337  0.55883  0.62620  1.0000
  Fe  Fe108     1.0  0.52318  0.63596  0.38620  1.0000
  S   S217      1.0  0.53848  0.64784  0.43645  1.0000
  H   H621      1.0  0.64947  0.49978  0.14251  1.0000
  S   S218      1.0  0.53055  0.64107  0.31911  1.0000
  C   C618      1.0  0.52760  0.64272  0.48538  1.0000
  C   C619      1.0  0.53645  0.64522  0.51954  1.0000
  C   C620      1.0  0.52783  0.64155  0.55864  1.0000
  C   C621      1.0  0.59789  0.58277  0.60577  1.0000
  C   C622      1.0  0.61359  0.50185  0.59572  1.0000
  C   C623      1.0  0.55625  0.55114  0.63777  1.0000
  H   H622      1.0  0.54998  0.64998  0.51572  1.0000
  H   H623      1.0  0.53473  0.64349  0.58474  1.0000
  H   H624      1.0  0.63446  0.53971  0.01899  1.0000
  C   C624      1.0  0.74627  0.50437  0.02624  1.0000
  C   C625      1.0  0.55563  0.56005  0.73839  1.0000
  C   C626      1.0  0.54079  0.56358  0.74323  1.0000
  C   C627      1.0  0.54085  0.57903  0.73210  1.0000
  C   C628      1.0  0.55579  0.59103  0.71633  1.0000
  C   C629      1.0  0.57068  0.58766  0.71271  1.0000
  C   C630      1.0  0.57059  0.57221  0.72349  1.0000
  H   H625      1.0  0.52918  0.55435  0.75510  1.0000
  H   H626      1.0  0.52932  0.58156  0.73506  1.0000
  H   H627      1.0  0.58228  0.59694  0.70076  1.0000
  H   H628      1.0  0.58209  0.56972  0.71997  1.0000
  C   C631      1.0  0.57695  0.58352  0.32321  1.0000
  C   C632      1.0  0.56808  0.59072  0.34953  1.0000
  C   C633      1.0  0.55534  0.59551  0.33620  1.0000
  C   C634      1.0  0.55168  0.59341  0.29623  1.0000
  C   C635      1.0  0.56003  0.58556  0.27050  1.0000
  C   C636      1.0  0.57253  0.58049  0.28404  1.0000
  H   H629      1.0  0.57142  0.59301  0.37992  1.0000
  H   H630      1.0  0.54888  0.60143  0.35635  1.0000
  H   H631      1.0  0.55721  0.58383  0.23959  1.0000
  H   H632      1.0  0.57935  0.57498  0.26354  1.0000
  C   C637      1.0  0.59166  0.52515  0.48843  1.0000
  C   C638      1.0  0.60430  0.54039  0.48378  1.0000
  C   C639      1.0  0.61092  0.54849  0.51791  1.0000
  C   C640      1.0  0.60497  0.54143  0.55687  1.0000
  C   C641      1.0  0.59197  0.52643  0.56142  1.0000
  C   C642      1.0  0.60741  0.51316  0.90864  1.0000
  H   H633      1.0  0.60932  0.54573  0.45386  1.0000
  H   H634      1.0  0.62096  0.56009  0.51399  1.0000
  H   H635      1.0  0.62751  0.50810  0.98765  1.0000
  N   N54       1.0  0.57980  0.57506  0.61643  1.0000
  C   C643      1.0  0.63473  0.51375  0.12567  1.0000
  S   S219      1.0  0.50882  0.60329  0.68365  1.0000
  S   S220      1.0  0.49880  0.63262  0.61178  1.0000
  H   H636      1.0  0.54382  0.68502  0.72366  1.0000
  C   C644      1.0  0.49717  0.62810  0.87419  1.0000
  C   C645      1.0  0.51944  0.67630  0.70212  1.0000
  H   H637      1.0  0.65629  0.51753  0.89743  1.0000
  H   H638      1.0  0.51707  0.69702  0.17078  1.0000
  H   H639      1.0  0.53266  0.50632  0.73361  1.0000
  C   C646      1.0  0.58530  0.51839  0.52742  1.0000
  H   H640      1.0  0.51381  0.64762  0.21109  1.0000
  H   H641      1.0  0.51679  0.65595  0.13851  1.0000
  H   H642      1.0  0.53246  0.55447  0.64880  1.0000
  H   H643      1.0  0.52776  0.67805  0.86740  1.0000
  C   C647      1.0  0.62864  0.51727  0.20954  1.0000
  C   C648      1.0  0.62157  0.52431  0.18196  1.0000
  C   C649      1.0  0.51949  0.50380  0.73054  1.0000
  C   C650      1.0  0.62477  0.52270  0.14023  1.0000
  H   H644      1.0  0.60183  0.59617  0.60318  1.0000
  H   H645      1.0  0.61384  0.53117  0.19275  1.0000
  H   H646      1.0  0.53354  0.72174  0.09279  1.0000
  H   H647      1.0  0.58159  0.55184  0.62588  1.0000
  C   C651      1.0  0.55226  0.57661  0.62750  1.0000
  C   C652      1.0  0.63467  0.52399  0.82166  1.0000
  C   C653      1.0  0.64574  0.52740  0.85163  1.0000
  C   C654      1.0  0.64782  0.51479  0.87432  1.0000
  S   S221      1.0  0.52631  0.66132  0.79354  1.0000
  H   H648      1.0  0.65255  0.53986  0.85762  1.0000
  C   C655      1.0  0.51876  0.67153  0.63228  1.0000
  H   H649      1.0  0.52090  0.52939  0.27709  1.0000
  H   H650      1.0  0.51303  0.67615  0.73189  1.0000
  C   C656      1.0  0.64132  0.53989  0.98886  1.0000
  C   C657      1.0  0.62461  0.53873  0.93212  1.0000
  Fe  Fe109     1.0  0.51946  0.64052  0.75150  1.0000
  H   H651      1.0  0.58736  0.52071  0.59096  1.0000
  S   S222      1.0  0.54364  0.51136  0.29023  1.0000
  C   C658      1.0  0.53624  0.67658  0.62665  1.0000
  C   C659      1.0  0.63876  0.50848  0.19491  1.0000
  H   H652      1.0  0.62953  0.55182  0.92876  1.0000
  C   C660      1.0  0.51031  0.63578  0.56368  1.0000
  C   C661      1.0  0.54566  0.56014  0.63855  1.0000
  H   H653      1.0  0.53130  0.55741  0.30097  1.0000
  N   N55       1.0  0.51058  0.67118  0.66978  1.0000
  H   H654      1.0  0.49709  0.57414  0.73963  1.0000
  C   C662      1.0  0.52319  0.70987  0.09532  1.0000
  N   N56       1.0  0.57873  0.63502  0.34159  1.0000
  C   C663      1.0  0.57494  0.63349  0.30257  1.0000
  C   C664      1.0  0.59111  0.63007  0.35357  1.0000
  C   C665      1.0  0.58383  0.62711  0.27425  1.0000
  C   C666      1.0  0.60024  0.62362  0.32603  1.0000
  C   C667      1.0  0.59651  0.62210  0.28617  1.0000
  C   C668      1.0  0.56852  0.64069  0.37141  1.0000
  H   H655      1.0  0.56456  0.63660  0.29347  1.0000
  H   H656      1.0  0.59363  0.63059  0.38484  1.0000
  H   H657      1.0  0.58027  0.62528  0.24383  1.0000
  H   H658      1.0  0.60952  0.61900  0.33593  1.0000
  H   H659      1.0  0.60294  0.61636  0.26509  1.0000
  H   H660      1.0  0.57561  0.64642  0.39677  1.0000
  H   H661      1.0  0.56421  0.64991  0.35782  1.0000
  H   H662      1.0  0.55732  0.63037  0.38399  1.0000
  H   H663      1.0  0.51175  0.66757  0.60655  1.0000
  H   H664      1.0  0.61756  0.50506  0.79073  1.0000
  C   C669      1.0  0.50505  0.65254  0.19977  1.0000
  C   C670      1.0  0.63908  0.49865  0.86657  1.0000
  H   H665      1.0  0.50597  0.68365  0.91362  1.0000
  S   S223      1.0  0.58471  0.51341  0.44665  1.0000
  H   H666      1.0  0.55890  0.68520  0.65588  1.0000
  Fe  Fe110     1.0  0.59003  0.50685  0.70554  1.0000
  H   H667      1.0  0.51183  0.57253  0.31269  1.0000
  Fe  Fe111     1.0  0.50917  0.62821  0.66878  1.0000
  C   C671      1.0  0.51064  0.66529  0.82553  1.0000
  H   H668      1.0  0.62380  0.51419  0.48239  1.0000
  H   H669      1.0  0.64806  0.55264  0.97786  1.0000
  C   C672      1.0  0.51491  0.67395  0.86040  1.0000
  C   C673      1.0  0.50670  0.65728  0.15863  1.0000
  C   C674      1.0  0.62604  0.50786  0.81382  1.0000
  H   H670      1.0  0.51819  0.70713  0.06565  1.0000
  H   H671      1.0  0.52818  0.70017  0.10232  1.0000
  H   H672      1.0  0.54426  0.58387  0.62939  1.0000
  C   C675      1.0  0.56948  0.58394  0.61658  1.0000
  H   H673      1.0  0.54260  0.67637  0.59701  1.0000
  H   H674      1.0  0.55326  0.49903  0.41015  1.0000
  H   H675      1.0  0.61942  0.52838  0.11915  1.0000
  C   C676      1.0  0.72886  0.49796  0.02287  1.0000
  C   C677      1.0  0.61342  0.53003  0.90557  1.0000
  S   S224      1.0  0.66865  0.49995  0.99007  1.0000
  S   S225      1.0  0.49705  0.60921  0.30771  1.0000
  H   H676      1.0  0.64095  0.53152  0.53196  1.0000
  C   C678      1.0  0.54536  0.68154  0.65960  1.0000
  N   N57       1.0  0.50990  0.71013  0.12619  1.0000
  H   H677      1.0  0.57453  0.59689  0.60978  1.0000
  C   C679      1.0  0.51011  0.63648  0.49068  1.0000
  C   C680      1.0  0.64165  0.50656  0.15327  1.0000
  C   C681      1.0  0.62134  0.51057  0.51422  1.0000
  C   C682      1.0  0.50152  0.63327  0.52960  1.0000
  C   C683      1.0  0.63093  0.52031  0.54202  1.0000
  H   H678      1.0  0.50022  0.72340  0.08771  1.0000
  C   C684      1.0  0.50261  0.67714  0.88660  1.0000
  H   H679      1.0  0.50313  0.63454  0.46480  1.0000
  Fe  Fe112     1.0  0.50307  0.63592  0.31412  1.0000
  C   C685      1.0  0.61244  0.50519  0.93845  1.0000
  H   H680      1.0  0.53200  0.50614  0.37935  1.0000
  C   C686      1.0  0.62710  0.51592  0.58302  1.0000
  C   C687      1.0  0.51171  0.51445  0.74516  1.0000
  H   H681      1.0  0.51880  0.52527  0.75963  1.0000
  H   H682      1.0  0.63420  0.52368  0.60490  1.0000
  H   H683      1.0  0.50743  0.64346  0.92199  1.0000
  C   C688      1.0  0.51824  0.55178  0.29597  1.0000
  C   C689      1.0  0.50866  0.70325  0.16385  1.0000
  C   C690      1.0  0.50716  0.56024  0.30263  1.0000
  H   H684      1.0  0.57551  0.50662  0.53131  1.0000
  H   H685      1.0  0.59940  0.50629  0.88695  1.0000
  C   C691      1.0  0.51240  0.53606  0.28254  1.0000
  S   S226      1.0  0.49872  0.67048  0.09199  1.0000
  C   C692      1.0  0.49916  0.71781  0.11745  1.0000
  H   H686      1.0  0.72153  0.50580  0.02484  1.0000
  H   H687      1.0  0.56855  0.49776  0.26256  1.0000
  H   H688      1.0  0.50914  0.62756  0.86166  1.0000
  Fe  Fe113     1.0  0.52489  0.94144  0.28160  1.0000
  S   S227      1.0  0.50945  0.95739  0.29032  1.0000
  S   S228      1.0  0.52820  0.93162  0.21911  1.0000
  Fe  Fe114     1.0  0.53322  0.94513  0.36961  1.0000
  S   S229      1.0  0.51772  0.96053  0.38459  1.0000
  S   S230      1.0  0.54938  0.93938  0.41289  1.0000
  H   H689      1.0  0.54350  0.98664  0.83406  1.0000
  Fe  Fe115     1.0  0.52944  0.97354  0.32504  1.0000
  C   C693      1.0  0.56464  0.92969  0.25715  1.0000
  S   S231      1.0  0.51366  0.92628  0.33858  1.0000
  S   S232      1.0  0.54617  0.95906  0.31147  1.0000
  Fe  Fe116     1.0  0.51968  0.94088  0.74562  1.0000
  S   S233      1.0  0.52242  0.96728  0.74174  1.0000
  H   H690      1.0  0.54183  0.93752  0.82600  1.0000
  Fe  Fe117     1.0  0.53169  0.94201  0.65466  1.0000
  S   S234      1.0  0.53503  0.96811  0.64495  1.0000
  S   S235      1.0  0.53825  0.92749  0.60427  1.0000
  Fe  Fe118     1.0  0.54652  0.97149  0.70324  1.0000
  S   S236      1.0  0.50622  0.92864  0.80662  1.0000
  S   S237      1.0  0.54506  0.94561  0.71109  1.0000
  C   C694      1.0  0.54541  0.93681  0.46629  1.0000
  C   C695      1.0  0.55435  0.92890  0.48585  1.0000
  C   C696      1.0  0.55201  0.92640  0.52785  1.0000
  C   C697      1.0  0.54108  0.93219  0.55152  1.0000
  C   C698      1.0  0.53225  0.94047  0.53230  1.0000
  C   C699      1.0  0.53426  0.94260  0.48961  1.0000
  H   H691      1.0  0.56303  0.92444  0.46841  1.0000
  C   C700      1.0  0.56066  0.98168  0.41959  1.0000
  H   H692      1.0  0.52357  0.94478  0.55021  1.0000
  H   H693      1.0  0.52720  0.94867  0.47493  1.0000
  H   H694      1.0  0.51980  0.88396  0.35579  1.0000
  N   N58       1.0  0.57296  0.97230  0.79254  1.0000
  C   C701      1.0  0.56560  0.98323  0.80498  1.0000
  C   C702      1.0  0.55303  0.91779  0.32497  1.0000
  C   C703      1.0  0.52861  0.89235  0.29398  1.0000
  H   H695      1.0  0.51052  0.89670  0.10526  1.0000
  H   H696      1.0  0.56985  0.97785  0.43444  1.0000
  N   N59       1.0  0.55261  0.91684  0.28415  1.0000
  C   C704      1.0  0.58976  0.97780  0.77055  1.0000
  C   C705      1.0  0.54052  0.90442  0.26856  1.0000
  H   H697      1.0  0.54814  0.97469  0.43542  1.0000
  C   C706      1.0  0.51531  0.91374  0.19750  1.0000
  H   H698      1.0  0.52712  0.88607  0.85176  1.0000
  C   C707      1.0  0.50853  0.89773  0.13748  1.0000
  C   C708      1.0  0.51756  0.91212  0.15560  1.0000
  H   H699      1.0  0.53162  0.83021  0.98848  1.0000
  H   H700      1.0  0.52647  0.92204  0.13694  1.0000
  C   C709      1.0  0.50672  0.91256  0.83883  1.0000
  C   C710      1.0  0.52910  0.89309  0.33562  1.0000
  H   H701      1.0  0.52660  0.90753  0.80350  1.0000
  C   C711      1.0  0.54139  0.90586  0.35128  1.0000
  H   H702      1.0  0.57704  0.93433  0.26892  1.0000
  H   H703      1.0  0.52817  0.95707  0.84795  1.0000
  H   H704      1.0  0.53982  0.90396  0.23625  1.0000
  C   C712      1.0  0.51801  0.90441  0.83075  1.0000
  C   C713      1.0  0.50710  0.88781  0.89375  1.0000
  C   C714      1.0  0.54851  0.95040  0.82049  1.0000
  C   C715      1.0  0.51139  0.80920  0.97337  1.0000
  C   C716      1.0  0.51825  0.89219  0.85818  1.0000
  H   H705      1.0  0.51891  0.88268  0.28138  1.0000
  H   H706      1.0  0.56223  0.92791  0.33756  1.0000
  H   H707      1.0  0.55989  0.93983  0.25390  1.0000
  H   H708      1.0  0.54167  0.90678  0.38368  1.0000
  Fe  Fe119     1.0  0.51074  0.96162  0.68405  1.0000
  H   H709      1.0  0.51436  0.80082  0.99263  1.0000
  C   C717      1.0  0.52099  0.82566  0.97117  1.0000
  C   C718      1.0  0.51661  0.83631  0.94730  1.0000
  H   H710      1.0  0.58921  0.97257  0.74028  1.0000
  H   H711      1.0  0.56645  0.92528  0.22657  1.0000
  C   C719      1.0  0.54084  0.96142  0.83290  1.0000
  C   C720      1.0  0.50379  0.90073  0.22114  1.0000
  H   H712      1.0  0.56096  0.97825  0.38767  1.0000
  H   H713      1.0  0.59847  0.97408  0.78752  1.0000
  S   S238      1.0  0.57066  0.99259  0.70574  1.0000
  S   S239      1.0  0.50626  0.93507  0.68989  1.0000
  C   C721      1.0  0.56464  0.95608  0.80010  1.0000
  H   H714      1.0  0.57036  0.94740  0.78974  1.0000
  H   H715      1.0  0.55879  0.91992  0.54220  1.0000
  H   H716      1.0  0.52377  0.84919  0.94589  1.0000
  S   S240      1.0  0.50812  0.87250  0.92775  1.0000
  C   C722      1.0  0.54941  0.97796  0.82512  1.0000
  H   H717      1.0  0.53889  0.99704  0.41665  1.0000
  H   H718      1.0  0.50188  0.90173  0.25338  1.0000
  C   C723      1.0  0.50248  0.83036  0.92637  1.0000
  H   H719      1.0  0.50568  0.98838  0.27393  1.0000
  Fe  Fe120     1.0  0.49923  0.94305  0.34870  1.0000
  H   H720      1.0  0.49884  0.83882  0.90897  1.0000
  H   H721      1.0  0.59491  0.99118  0.76533  1.0000
  H   H722      1.0  0.57207  0.99609  0.79847  1.0000
  C   C724      1.0  0.49741  0.88454  0.16124  1.0000
  C   C725      1.0  0.49753  0.80364  0.95146  1.0000
  H   H723      1.0  0.75126  0.24486  0.90911  1.0000
  Fe  Fe121     1.0  0.80169  0.36046  0.00643  1.0000
  S   S241      1.0  0.80357  0.34696  0.06208  1.0000
  S   S242      1.0  0.78711  0.37728  0.00209  1.0000
  Fe  Fe122     1.0  0.82420  0.34711  0.95186  1.0000
  S   S243      1.0  0.82776  0.33225  0.00334  1.0000
  S   S244      1.0  0.83291  0.34878  0.88445  1.0000
  Fe  Fe123     1.0  0.79981  0.32574  0.02152  1.0000
  S   S245      1.0  0.78222  0.29997  0.04342  1.0000
  Fe  Fe124     1.0  0.83110  0.35441  0.04040  1.0000
  S   S246      1.0  0.85371  0.37001  0.07157  1.0000
  S   S247      1.0  0.79621  0.33897  0.96754  1.0000
  S   S248      1.0  0.82903  0.36931  0.98718  1.0000
  H   H724      1.0  0.87973  0.45162  0.30993  1.0000
  S   S249      1.0  0.80654  0.47655  0.98292  1.0000
  C   C726      1.0  0.95643  0.46582  0.37282  1.0000
  H   H725      1.0  0.85705  0.38917  0.41052  1.0000
  H   H726      1.0  0.90987  0.47049  0.18406  1.0000
  C   C727      1.0  0.80207  0.49646  0.87979  1.0000
  H   H727      1.0  0.87708  0.37919  0.43662  1.0000
  Fe  Fe125     1.0  0.81989  0.47183  0.03403  1.0000
  S   S250      1.0  0.82110  0.44850  0.06039  1.0000
  H   H728      1.0  0.86467  0.36995  0.31652  1.0000
  N   N60       1.0  0.74885  0.32564  0.06350  1.0000
  H   H729      1.0  0.95532  0.47709  0.36252  1.0000
  C   C728      1.0  0.75844  0.34196  0.04634  1.0000
  Fe  Fe126     1.0  0.90432  0.39168  0.26648  1.0000
  S   S251      1.0  0.89667  0.41141  0.29488  1.0000
  S   S252      1.0  0.88393  0.37081  0.24076  1.0000
  Fe  Fe127     1.0  0.94013  0.40663  0.29115  1.0000
  S   S253      1.0  0.93480  0.42732  0.31964  1.0000
  S   S254      1.0  0.96594  0.40624  0.29955  1.0000
  Fe  Fe128     1.0  0.91076  0.40891  0.34672  1.0000
  S   S255      1.0  0.90114  0.41231  0.41073  1.0000
  Fe  Fe129     1.0  0.92147  0.42781  0.26571  1.0000
  S   S256      1.0  0.92511  0.45169  0.23547  1.0000
  S   S257      1.0  0.91656  0.38781  0.32131  1.0000
  S   S258      1.0  0.92861  0.40846  0.23411  1.0000
  Fe  Fe130     1.0  0.94095  0.42574  0.67776  1.0000
  S   S259      1.0  0.92619  0.42663  0.62628  1.0000
  S   S260      1.0  0.96615  0.44612  0.67195  1.0000
  Fe  Fe131     1.0  0.91087  0.39905  0.72448  1.0000
  S   S261      1.0  0.89398  0.39801  0.67606  1.0000
  S   S262      1.0  0.90417  0.38462  0.78501  1.0000
  Fe  Fe132     1.0  0.91628  0.39968  0.63188  1.0000
  S   S263      1.0  0.91578  0.38522  0.57550  1.0000
  Fe  Fe133     1.0  0.90552  0.42513  0.67411  1.0000
  S   S264      1.0  0.89179  0.44248  0.67068  1.0000
  S   S265      1.0  0.93260  0.39857  0.68039  1.0000
  S   S266      1.0  0.92077  0.42616  0.72549  1.0000
  C   C729      1.0  0.90642  0.40528  0.45568  1.0000
  C   C730      1.0  0.91430  0.39377  0.45571  1.0000
  C   C731      1.0  0.91723  0.38777  0.49254  1.0000
  C   C732      1.0  0.91273  0.39353  0.52949  1.0000
  C   C733      1.0  0.90531  0.40537  0.52920  1.0000
  C   C734      1.0  0.90202  0.41107  0.49253  1.0000
  H   H730      1.0  0.91784  0.38928  0.42750  1.0000
  H   H731      1.0  0.92302  0.37864  0.49248  1.0000
  H   H732      1.0  0.90174  0.40989  0.55736  1.0000
  H   H733      1.0  0.89593  0.41998  0.49288  1.0000
  C   C735      1.0  0.78707  0.48557  0.89896  1.0000
  C   C736      1.0  0.92087  0.47264  0.34099  1.0000
  C   C737      1.0  0.92050  0.46106  0.31228  1.0000
  C   C738      1.0  0.92700  0.46600  0.27228  1.0000
  C   C739      1.0  0.93423  0.48247  0.26124  1.0000
  N   N61       1.0  0.76424  0.26675  0.93611  1.0000
  H   H734      1.0  0.91530  0.46883  0.37156  1.0000
  H   H735      1.0  0.91459  0.44835  0.32079  1.0000
  H   H736      1.0  0.97223  0.42065  0.40672  1.0000
  H   H737      1.0  0.89216  0.34420  0.37035  1.0000
  H   H738      1.0  0.87124  0.39962  0.36770  1.0000
  C   C740      1.0  0.93462  0.47979  0.68166  1.0000
  C   C741      1.0  0.92318  0.46436  0.67632  1.0000
  C   C742      1.0  0.90619  0.46195  0.67561  1.0000
  C   C743      1.0  0.90074  0.47514  0.67945  1.0000
  C   C744      1.0  0.95915  0.42041  0.40715  1.0000
  H   H739      1.0  0.94771  0.48148  0.68191  1.0000
  H   H740      1.0  0.92762  0.45437  0.67266  1.0000
  H   H741      1.0  0.88761  0.47335  0.67876  1.0000
  H   H742      1.0  0.76824  0.32452  0.09783  1.0000
  H   H743      1.0  0.89096  0.45321  0.23835  1.0000
  C   C745      1.0  0.97118  0.44692  0.37118  1.0000
  C   C746      1.0  0.94393  0.45523  0.40005  1.0000
  C   C747      1.0  0.79708  0.39723  0.01673  1.0000
  C   C748      1.0  0.80866  0.40038  0.04510  1.0000
  C   C749      1.0  0.81581  0.41616  0.05820  1.0000
  C   C750      1.0  0.81184  0.42900  0.04222  1.0000
  C   C751      1.0  0.80054  0.42593  0.01314  1.0000
  C   C752      1.0  0.79302  0.41003  0.00082  1.0000
  H   H744      1.0  0.81167  0.39056  0.05797  1.0000
  H   H745      1.0  0.82429  0.41842  0.08126  1.0000
  H   H746      1.0  0.79734  0.43573  0.00082  1.0000
  H   H747      1.0  0.78402  0.40764  0.97895  1.0000
  C   C753      1.0  0.86142  0.37003  0.11950  1.0000
  C   C754      1.0  0.87529  0.38335  0.12838  1.0000
  C   C755      1.0  0.88215  0.38389  0.16541  1.0000
  C   C756      1.0  0.87536  0.37100  0.19405  1.0000
  C   C757      1.0  0.86145  0.35770  0.18527  1.0000
  C   C758      1.0  0.85446  0.35723  0.14837  1.0000
  H   H748      1.0  0.88087  0.39329  0.10634  1.0000
  H   H749      1.0  0.89288  0.39418  0.17149  1.0000
  H   H750      1.0  0.85610  0.34762  0.20704  1.0000
  H   H751      1.0  0.84386  0.34687  0.14206  1.0000
  C   C759      1.0  0.85279  0.36067  0.85935  1.0000
  C   C760      1.0  0.85375  0.36680  0.81971  1.0000
  C   C761      1.0  0.86936  0.37497  0.79732  1.0000
  C   C762      1.0  0.88424  0.37664  0.81387  1.0000
  C   C763      1.0  0.88327  0.37072  0.85370  1.0000
  C   C764      1.0  0.86767  0.36295  0.87648  1.0000
  H   H752      1.0  0.84233  0.36508  0.80610  1.0000
  H   H753      1.0  0.86987  0.37955  0.76685  1.0000
  H   H754      1.0  0.89469  0.37185  0.86677  1.0000
  H   H755      1.0  0.86716  0.35807  0.90665  1.0000
  C   C765      1.0  0.91938  0.35763  0.71941  1.0000
  C   C766      1.0  0.76226  0.28631  0.03222  1.0000
  H   H756      1.0  0.93942  0.48629  0.23042  1.0000
  H   H757      1.0  0.91310  0.49159  0.18050  1.0000
  C   C767      1.0  0.75295  0.29023  0.00414  1.0000
  H   H758      1.0  0.98180  0.44371  0.35936  1.0000
  H   H759      1.0  0.75015  0.34893  0.04106  1.0000
  C   C768      1.0  0.89577  0.49237  0.24883  1.0000
  C   C769      1.0  0.89038  0.46409  0.25237  1.0000
  H   H760      1.0  0.98859  0.45252  0.77190  1.0000
  H   H761      1.0  0.75266  0.29669  0.12502  1.0000
  C   C770      1.0  0.97989  0.45941  0.77209  1.0000
  H   H762      1.0  0.76253  0.26773  0.07434  1.0000
  N   N62       1.0  0.86957  0.37534  0.37732  1.0000
  C   C771      1.0  0.87801  0.35584  0.33984  1.0000
  H   H763      1.0  0.97642  0.46190  0.80358  1.0000
  H   H764      1.0  0.88730  0.48669  0.83661  1.0000
  C   C772      1.0  0.98088  0.43839  0.27402  1.0000
  N   N63       1.0  0.85726  0.40626  0.00167  1.0000
  C   C773      1.0  0.84798  0.41069  0.97572  1.0000
  C   C774      1.0  0.86779  0.39832  0.98809  1.0000
  C   C775      1.0  0.84925  0.40730  0.93486  1.0000
  C   C776      1.0  0.86943  0.39482  0.94739  1.0000
  C   C777      1.0  0.86005  0.39930  0.92068  1.0000
  C   C778      1.0  0.85492  0.40901  0.04474  1.0000
  H   H765      1.0  0.83922  0.41652  0.98674  1.0000
  H   H766      1.0  0.87461  0.39420  0.00896  1.0000
  H   H767      1.0  0.84160  0.41050  0.91459  1.0000
  H   H768      1.0  0.87757  0.38829  0.93686  1.0000
  H   H769      1.0  0.86088  0.39624  0.88927  1.0000
  H   H770      1.0  0.86577  0.40887  0.06033  1.0000
  H   H771      1.0  0.85335  0.42088  0.04948  1.0000
  H   H772      1.0  0.84364  0.39920  0.05916  1.0000
  H   H773      1.0  0.96434  0.47451  0.72961  1.0000
  H   H774      1.0  0.95260  0.41575  0.43758  1.0000
  H   H775      1.0  0.89138  0.35917  0.43309  1.0000
  C   C779      1.0  0.90350  0.47950  0.18904  1.0000
  H   H776      1.0  0.87913  0.47666  0.34310  1.0000
  C   C780      1.0  0.74830  0.47795  0.01810  1.0000
  C   C781      1.0  0.87707  0.37247  0.40954  1.0000
  H   H777      1.0  0.93524  0.43217  0.43220  1.0000
  C   C782      1.0  0.93480  0.49401  0.29009  1.0000
  C   C783      1.0  0.91222  0.49060  0.68479  1.0000
  C   C784      1.0  0.86181  0.38779  0.37909  1.0000
  C   C785      1.0  0.98759  0.43216  0.70096  1.0000
  H   H778      1.0  0.91166  0.49363  0.78002  1.0000
  H   H779      1.0  0.76750  0.34911  0.06680  1.0000
  C   C786      1.0  0.78117  0.29399  0.91340  1.0000
  C   C787      1.0  0.88701  0.35834  0.65200  1.0000
  H   H780      1.0  0.75784  0.30194  0.98829  1.0000
  C   C788      1.0  0.88564  0.35279  0.37257  1.0000
  H   H781      1.0  0.85111  0.38472  0.36058  1.0000
  H   H782      1.0  0.88642  0.36123  0.62060  1.0000
  H   H783      1.0  0.91342  0.36299  0.64385  1.0000
  H   H784      1.0  0.75559  0.47007  0.01644  1.0000
  H   H785      1.0  0.87863  0.34972  0.31193  1.0000
  C   C789      1.0  0.94526  0.44052  0.41199  1.0000
  C   C790      1.0  0.90231  0.35935  0.66542  1.0000
  H   H786      1.0  0.92289  0.36750  0.74097  1.0000
  C   C791      1.0  0.88520  0.36116  0.40769  1.0000
  H   H787      1.0  0.86086  0.35379  0.66970  1.0000
  Fe  Fe134     1.0  0.80132  0.49541  0.02184  1.0000
  H   H788      1.0  0.89014  0.34997  0.76404  1.0000
  H   H789      1.0  0.91848  0.34613  0.73497  1.0000
  C   C792      1.0  0.87270  0.35419  0.67954  1.0000
  C   C793      1.0  0.98281  0.42488  0.29218  1.0000
  S   S267      1.0  0.84498  0.48980  0.01013  1.0000
  C   C794      1.0  0.88370  0.47712  0.31149  1.0000
  C   C795      1.0  0.88399  0.46311  0.29289  1.0000
  N   N64       1.0  0.90328  0.35622  0.70519  1.0000
  H   H790      1.0  0.96908  0.43737  0.26312  1.0000
  C   C796      1.0  0.87011  0.36733  0.34262  1.0000
  C   C797      1.0  0.87380  0.35094  0.71996  1.0000
  C   C798      1.0  0.79298  0.29379  0.93919  1.0000
  C   C799      1.0  0.76682  0.28024  0.91205  1.0000
  C   C800      1.0  0.88928  0.35201  0.73231  1.0000
  H   H791      1.0  0.92963  0.36055  0.69433  1.0000
  H   H792      1.0  0.86284  0.34802  0.74189  1.0000
  C   C801      1.0  0.98582  0.44533  0.68069  1.0000
  H   H793      1.0  0.95297  0.41185  0.38439  1.0000
  H   H794      1.0  0.97994  0.46971  0.33681  1.0000
  C   C802      1.0  0.97021  0.46170  0.35840  1.0000
  H   H795      1.0  0.80400  0.30449  0.94122  1.0000
  N   N65       1.0  0.95874  0.43651  0.39740  1.0000
  H   H796      1.0  0.97671  0.42151  0.70958  1.0000
  H   H797      1.0  0.93304  0.45818  0.41110  1.0000
  N   N66       1.0  0.98757  0.47463  0.74794  1.0000
  C   C803      1.0  0.99429  0.45325  0.26959  1.0000
  H   H798      1.0  0.96849  0.45141  0.75937  1.0000
  H   H799      1.0  0.81052  0.49174  0.86203  1.0000
  H   H800      1.0  0.87983  0.49332  0.90615  1.0000
  S   S268      1.0  0.81308  0.48937  0.07491  1.0000
  C   C804      1.0  0.92785  0.48912  0.32976  1.0000
  C   C805      1.0  0.77592  0.26636  0.96096  1.0000
  C   C806      1.0  0.92916  0.49293  0.68633  1.0000
  C   C807      1.0  0.75553  0.27096  0.05249  1.0000
  H   H801      1.0  0.75761  0.28051  0.89217  1.0000
  N   N67       1.0  0.89656  0.47868  0.23123  1.0000
  C   C808      1.0  0.79042  0.27987  0.96296  1.0000
  H   H802      1.0  0.78403  0.47264  0.89620  1.0000
  H   H803      1.0  0.78308  0.30482  0.89497  1.0000
  C   C809      1.0  0.75572  0.31834  0.08965  1.0000
  H   H804      1.0  0.76466  0.48317  0.93793  1.0000
  H   H805      1.0  0.90611  0.48977  0.52665  1.0000
  C   C810      1.0  0.75616  0.49445  0.02392  1.0000
  C   C811      1.0  0.74692  0.30258  0.10527  1.0000
  C   C812      1.0  0.77624  0.49146  0.92242  1.0000
  H   H806      1.0  0.76553  0.34127  0.01717  1.0000
  H   H807      1.0  0.99267  0.46358  0.25523  1.0000
  S   S269      1.0  0.84107  0.49708  0.89530  1.0000
  C   C813      1.0  0.88946  0.49182  0.28927  1.0000
  Fe  Fe135     1.0  0.83140  0.49596  0.96189  1.0000
  C   C814      1.0  0.98479  0.49567  0.70597  1.0000
  C   C815      1.0  0.97772  0.48098  0.72848  1.0000
  H   H808      1.0  0.89334  0.47710  0.16908  1.0000
  H   H809      1.0  0.79931  0.27980  0.98398  1.0000
  H   H810      1.0  0.91464  0.49467  0.59378  1.0000
  H   H811      1.0  0.77385  0.25574  0.98032  1.0000
  H   H812      1.0  0.79055  0.49722  0.17681  1.0000
  C   C816      1.0  0.74918  0.25243  0.93401  1.0000
  Fe  Fe136     1.0  0.94756  0.56945  0.68114  1.0000
  S   S270      1.0  0.92148  0.57036  0.68208  1.0000
  S   S271      1.0  0.97075  0.59201  0.67023  1.0000
  Fe  Fe137     1.0  0.93460  0.53289  0.69147  1.0000
  S   S272      1.0  0.90775  0.53089  0.69366  1.0000
  Fe  Fe138     1.0  0.91685  0.54928  0.64148  1.0000
  S   S273      1.0  0.90206  0.54204  0.58751  1.0000
  Fe  Fe139     1.0  0.91470  0.55177  0.73404  1.0000
  S   S274      1.0  0.90058  0.55329  0.79472  1.0000
  S   S275      1.0  0.94328  0.54976  0.63698  1.0000
  S   S276      1.0  0.94119  0.55251  0.73562  1.0000
  Fe  Fe140     1.0  0.90675  0.53947  0.28317  1.0000
  S   S277      1.0  0.92887  0.53161  0.26838  1.0000
  S   S278      1.0  0.88282  0.52667  0.25318  1.0000
  Fe  Fe141     1.0  0.92232  0.55760  0.35731  1.0000
  S   S279      1.0  0.94497  0.55042  0.34743  1.0000
  S   S280      1.0  0.92418  0.57402  0.40976  1.0000
  Fe  Fe142     1.0  0.94482  0.55684  0.28262  1.0000
  S   S281      1.0  0.96931  0.57094  0.24546  1.0000
  Fe  Fe143     1.0  0.92705  0.52618  0.33483  1.0000
  S   S282      1.0  0.92289  0.56541  0.29227  1.0000
  S   S283      1.0  0.90424  0.53269  0.34976  1.0000
  C   C817      1.0  0.90863  0.55123  0.53848  1.0000
  C   C818      1.0  0.92155  0.56620  0.53113  1.0000
  C   C819      1.0  0.92622  0.57311  0.49157  1.0000
  C   C820      1.0  0.91840  0.56489  0.45899  1.0000
  C   C821      1.0  0.90580  0.54973  0.46628  1.0000
  C   C822      1.0  0.90077  0.54306  0.50591  1.0000
  H   H813      1.0  0.92764  0.57263  0.55603  1.0000
  H   H814      1.0  0.93590  0.58489  0.48624  1.0000
  H   H815      1.0  0.89957  0.54335  0.44152  1.0000
  H   H816      1.0  0.89076  0.53149  0.51135  1.0000
  H   H817      1.0  0.92403  0.53383  0.81582  1.0000
  C   C823      1.0  0.99044  0.57879  0.70904  1.0000
  H   H818      1.0  0.92809  0.51422  0.60584  1.0000
  C   C824      1.0  0.98914  0.59262  0.69099  1.0000
  H   H819      1.0  0.88548  0.54854  0.11432  1.0000
  H   H820      1.0  0.97690  0.50062  0.69046  1.0000
  H   H821      1.0  0.90014  0.50388  0.23177  1.0000
  H   H822      1.0  0.97979  0.56764  0.71208  1.0000
  C   C825      1.0  0.97307  0.61773  0.27872  1.0000
  H   H823      1.0  0.83115  0.52804  0.88809  1.0000
  C   C826      1.0  0.87916  0.53865  0.13617  1.0000
  H   H824      1.0  0.98970  0.54920  0.24916  1.0000
  H   H825      1.0  0.85619  0.49942  0.81399  1.0000
  C   C827      1.0  0.98593  0.58458  0.26877  1.0000
  H   H826      1.0  0.93615  0.53701  0.55624  1.0000
  S   S284      1.0  0.85701  0.52712  0.07937  1.0000
  H   H827      1.0  0.93004  0.52624  0.43246  1.0000
  H   H828      1.0  0.82787  0.51838  0.84095  1.0000
  H   H829      1.0  0.98200  0.63141  0.37046  1.0000
  C   C828      1.0  0.93133  0.52824  0.53387  1.0000
  C   C829      1.0  0.87684  0.52642  0.20334  1.0000
  C   C830      1.0  0.86269  0.51365  0.19345  1.0000
  C   C831      1.0  0.85689  0.51328  0.15511  1.0000
  C   C832      1.0  0.79301  0.51277  0.12461  1.0000
  C   C833      1.0  0.88519  0.53883  0.17420  1.0000
  H   H830      1.0  0.79942  0.52966  0.07379  1.0000
  C   C834      1.0  0.80371  0.52613  0.10073  1.0000
  C   C835      1.0  0.86497  0.52591  0.12635  1.0000
  C   C836      1.0  0.88352  0.53775  0.82148  1.0000
  C   C837      1.0  0.87543  0.52302  0.80449  1.0000
  H   H831      1.0  0.89600  0.54880  0.18132  1.0000
  C   C838      1.0  0.85744  0.51300  0.86774  1.0000
  C   C839      1.0  0.86540  0.52778  0.88464  1.0000
  C   C840      1.0  0.87829  0.54012  0.86147  1.0000
  H   H832      1.0  0.87917  0.52112  0.77360  1.0000
  H   H833      1.0  0.86168  0.52971  0.91553  1.0000
  H   H834      1.0  0.88445  0.55151  0.87480  1.0000
  C   C841      1.0  0.79859  0.50780  0.15860  1.0000
  Fe  Fe144     1.0  0.83746  0.50759  0.04775  1.0000
  C   C842      1.0  0.95927  0.61269  0.35851  1.0000
  H   H835      1.0  0.99457  0.60270  0.59408  1.0000
  H   H836      1.0  0.78064  0.50607  0.11606  1.0000
  H   H837      1.0  0.95396  0.61059  0.38986  1.0000
  H   H838      1.0  0.90784  0.50056  0.68808  1.0000
  H   H839      1.0  0.94219  0.54577  0.48410  1.0000
  H   H840      1.0  0.91195  0.49815  0.45383  1.0000
  C   C843      1.0  0.95032  0.60353  0.32901  1.0000
  C   C844      1.0  0.91754  0.50661  0.47626  1.0000
  H   H841      1.0  0.81932  0.51240  0.19440  1.0000
  N   N68       1.0  0.81945  0.53443  0.11072  1.0000
  C   C845      1.0  0.97506  0.62437  0.34732  1.0000
  H   H842      1.0  0.83755  0.53610  0.15180  1.0000
  H   H843      1.0  0.85609  0.50400  0.21572  1.0000
  N   N69       1.0  0.80617  0.51276  0.88398  1.0000
  C   C846      1.0  0.79571  0.51861  0.90740  1.0000
  C   C847      1.0  0.93477  0.53329  0.49307  1.0000
  H   H844      1.0  0.89500  0.52040  0.93093  1.0000
  H   H845      1.0  0.82432  0.55727  0.08089  1.0000
  H   H846      1.0  0.94083  0.50669  0.28168  1.0000
  C   C848      1.0  0.95724  0.60599  0.28885  1.0000
  H   H847      1.0  0.95058  0.59860  0.26580  1.0000
  C   C849      1.0  0.98408  0.58773  0.30962  1.0000
  H   H848      1.0  0.79914  0.53149  0.91165  1.0000
  H   H849      1.0  0.83347  0.54390  0.05467  1.0000
  S   S285      1.0  0.82546  0.51515  0.99727  1.0000
  C   C850      1.0  0.82497  0.52971  0.14418  1.0000
  H   H850      1.0  0.82055  0.53483  0.85108  1.0000
  H   H851      1.0  0.75210  0.51714  0.03075  1.0000
  C   C851      1.0  0.89853  0.51724  0.90090  1.0000
  C   C852      1.0  0.91021  0.50567  0.78115  1.0000
  C   C853      1.0  0.82219  0.52407  0.86506  1.0000
  H   H852      1.0  0.91716  0.54077  0.88503  1.0000
  C   C854      1.0  0.91484  0.52463  0.83602  1.0000
  H   H853      1.0  0.99560  0.60193  0.35815  1.0000
  C   C855      1.0  0.86239  0.51076  0.82747  1.0000
  H   H854      1.0  0.97230  0.58176  0.32767  1.0000
  S   S286      1.0  0.77822  0.50345  0.02784  1.0000
  S   S287      1.0  0.94376  0.51195  0.69485  1.0000
  C   C856      1.0  0.91100  0.52864  0.87528  1.0000
  H   H855      1.0  0.84257  0.55428  0.09703  1.0000
  N   N70       1.0  0.98181  0.62666  0.30786  1.0000
  C   C857      1.0  0.83045  0.54820  0.08463  1.0000
  H   H856      1.0  0.97850  0.61935  0.24754  1.0000
  C   C858      1.0  0.92780  0.52238  0.46415  1.0000
  H   H857      1.0  0.93808  0.59444  0.33749  1.0000
  H   H858      1.0  0.99306  0.55779  0.31891  1.0000
  H   H859      1.0  0.89986  0.50556  0.76342  1.0000
  C   C859      1.0  0.81468  0.51629  0.16849  1.0000
  N   N71       1.0  0.92139  0.51270  0.54552  1.0000
  C   C860      1.0  0.91742  0.50786  0.58854  1.0000
  H   H860      1.0  0.90637  0.51087  0.60092  1.0000
  H   H861      1.0  0.84596  0.50340  0.14815  1.0000
  S   S288      1.0  0.92736  0.50346  0.36523  1.0000
  N   N72       1.0  0.90661  0.50959  0.82281  1.0000
  H   H862      1.0  0.92203  0.51462  0.76627  1.0000
  H   H863      1.0  0.77231  0.51272  0.94548  1.0000
  C   C861      1.0  0.89005  0.50201  0.88703  1.0000
  H   H864      1.0  0.88909  0.50275  0.30325  1.0000
  C   C862      1.0  0.78052  0.50808  0.92656  1.0000
  C   C863      1.0  0.91436  0.50197  0.51737  1.0000
  C   C864      1.0  0.89427  0.49838  0.84762  1.0000
