data_image0
_chemical_formula_structural       CSHFeHSFeSC3SFeS2FeS2FeSFeS3C4HCHCFeCH2C6H4C6H4CNCH3C3HC2HSC3H2NCH2SCSHNHCH5SCH2CHFeNC6H8CH2CSC3H2C2SHFeCSFeSH2CSFeS2FeS2FeSFeS3C4HCHC2H2C7H4C6H4CFeC2H3C2H2CH2FeHSCH3NCNH2C2SCHCH6CNC6H8NC6H3SCH2C2H2CNH3CH4NHFeHSHSCH2FeS2HCS2FeHSCSFeS2CFeS2FeS2FeSFeS3FeS2FeS2FeSFeSC6H4NHC7HC6H2C6H4C6H7CHFeHSH4SHCH3SCNH4NC6H10CH2NC6H6C2NC6H2SCHCH2CHFeHSHC2H2NSHC2HCHCSHCFeH3C2HCHFeHCH4CNC2HC5HC2H5FeHCFeHSHSC3FeS2C3HFeHSHCHS2CFeS2FeS2FeSFeS3FeS2FeS2FeSFeSC6H4CH2C4H4C4FeHC7H4C6H5CH2CSCNH2C2H2C2H2SHCHCH3CH6SCNC6H6C4HSH3C2H2NHCH2SC2SC2HSCHCHC3HNCH2FeHSH3CSHNCFeNCH2C2SFeH4CHCSC3H3SCFeHSFeSC2S2FeS2FeS2FeSFeS3C6HCH2NCNC2NCH2SH3C7H4C6H6C2SHC2HSH2CH2NC6H11C4HCHC2SC2HFeNHC2H2CH3CH2CH2FeH2C4H3C2NHSHFeHSFeS2CHSFeS2FeS2FeSFeS3HC4HC2HC2HC2H4CH2CSHC6H4C6H5CH2SCNC6H5C3NC2HCHCHCHC2NCHCHFeH4CSH4CH2CH4C2HFeC2HC2H2NHC2H2CFeHSHSHFeSFeHCNFeS2FeS2FeSFeS3C2H3CH2C2HCH2C6H4C6H4CNC3HCH3C2HCHCNH4SCHCHNCH2C5H2C4H3CHCHC3H2CH2CSHSCHCFeHSCH2CHSCHCH4C2HCFeHSHSHFeSCHCSFeS2FeS2FeSFeS4C2H2CH2C3H2C7H4C6H5CH2C4HN2C6HC2H3CH2FeHCH6FeHCSCHCNC6H7CHCSH2SC2FeCSHSHFeSHC2SHSCFeCSFeSCH2SFeS2FeS2FeSFeCS2FeS2FeS2FeHFeS3C7H5C6H4C6H7SC7H3C6H4NCHCH2CHC3HSCNC4NC2HSCHCHFeHSC3H2S2HN2CH2CHFeCH7CHCHSNHC2HN2C6H9C3H2CHCHSFeH3FeSCHC3H2C3H2NHCHCHCHC2H2CH2CH2CSH4CHCHFeHSCSCFeSCHCHFeS2FeCSFeSH2CSFeS2FeS2FeSFeHS2FeS2FeS2FeHFeS3C7H4C7H4C6H7FeNC6H2C7H5FeCH3CH2C3HS2H2CHCHCSH2C2SCHSC2HN2C3HSH5NC6HCHCH2C2HCSH2CHC2H2C2HSHCHNH2CFeSH4CHC3HC2HC2HCH2C2H4C5HNHSH3FeHSCH2CSFeH2SFeS2FeS2FeSFeS3C2FeHC4HC2H2SHC6H4C6H6CSC2H3CH4C2H2SN2CH2CNC6H8FeCHC4HCHNSHC4H3CHCHC2H2SC2H2CFeHSC3FeSH2CSFeS2FeS2FeSFeS3C3HC2HCHC2H4C6H4C6H4CH3S2H2CSNC6H8CNCHC3HC2H4CNH3CNFeH2C2HCHCSHSH3CHFeCH2N
_chemical_formula_sum              "C768 S256 H768 Fe128 N64"
_cell_length_a       60.3977
_cell_length_b       60.585
_cell_length_c       45.9071
_cell_angle_alpha    90.6188
_cell_angle_beta     91.3392
_cell_angle_gamma    87.9527

_space_group_name_H-M_alt    "P 1"
_space_group_IT_number       1

loop_
  _space_group_symop_operation_xyz
  'x, y, z'

loop_
  _atom_site_type_symbol
  _atom_site_label
  _atom_site_symmetry_multiplicity
  _atom_site_fract_x
  _atom_site_fract_y
  _atom_site_fract_z
  _atom_site_occupancy
  C   C1        1.0  0.47502  0.19291  0.27138  1.0000
  S   S1        1.0  0.39403  0.08432  0.05534  1.0000
  H   H1        1.0  0.45981  0.19182  0.28340  1.0000
  Fe  Fe1       1.0  0.39439  0.11656  0.47439  1.0000
  H   H2        1.0  0.45895  0.06968  0.45947  1.0000
  S   S2        1.0  0.40570  0.13639  0.43540  1.0000
  Fe  Fe2       1.0  0.37719  0.11682  0.04382  1.0000
  S   S3        1.0  0.36111  0.13934  0.07855  1.0000
  C   C2        1.0  0.36022  0.18508  0.44270  1.0000
  C   C3        1.0  0.38370  0.01505  0.48403  1.0000
  C   C4        1.0  0.36772  0.17469  0.49178  1.0000
  S   S4        1.0  0.40648  0.08141  0.48261  1.0000
  Fe  Fe3       1.0  0.41046  0.23544  0.27683  1.0000
  S   S5        1.0  0.40449  0.19930  0.27091  1.0000
  S   S6        1.0  0.44485  0.24336  0.29506  1.0000
  Fe  Fe4       1.0  0.36233  0.24925  0.25668  1.0000
  S   S7        1.0  0.35395  0.21350  0.24881  1.0000
  S   S8        1.0  0.33931  0.27839  0.24022  1.0000
  Fe  Fe5       1.0  0.37195  0.20680  0.29211  1.0000
  S   S9        1.0  0.35734  0.18454  0.32642  1.0000
  Fe  Fe6       1.0  0.38749  0.20883  0.22842  1.0000
  S   S10       1.0  0.40127  0.19337  0.18635  1.0000
  S   S11       1.0  0.37864  0.24273  0.30083  1.0000
  S   S12       1.0  0.39510  0.24481  0.23364  1.0000
  C   C5        1.0  0.31595  0.29560  0.25125  1.0000
  C   C6        1.0  0.47254  0.09900  0.01472  1.0000
  C   C7        1.0  0.33837  0.17842  0.44461  1.0000
  C   C8        1.0  0.30611  0.29383  0.27844  1.0000
  H   H3        1.0  0.39050  0.00051  0.08175  1.0000
  C   C9        1.0  0.39762  0.18957  0.46368  1.0000
  H   H4        1.0  0.31260  0.28161  0.29370  1.0000
  C   C10       1.0  0.46897  0.24796  0.27496  1.0000
  Fe  Fe7       1.0  0.37405  0.06911  0.01893  1.0000
  C   C11       1.0  0.46792  0.25307  0.24531  1.0000
  H   H5        1.0  0.48656  0.26020  0.20718  1.0000
  H   H6        1.0  0.45197  0.25486  0.23419  1.0000
  C   C12       1.0  0.39198  0.14865  0.40446  1.0000
  C   C13       1.0  0.40393  0.16270  0.38686  1.0000
  C   C14       1.0  0.39368  0.17364  0.36282  1.0000
  C   C15       1.0  0.37129  0.17062  0.35596  1.0000
  C   C16       1.0  0.35937  0.15644  0.37346  1.0000
  C   C17       1.0  0.36964  0.14546  0.39750  1.0000
  H   H7        1.0  0.42123  0.16526  0.39188  1.0000
  H   H8        1.0  0.40308  0.18446  0.34962  1.0000
  H   H9        1.0  0.34208  0.15387  0.36827  1.0000
  H   H10       1.0  0.36023  0.13461  0.41065  1.0000
  C   C18       1.0  0.39033  0.17561  0.15882  1.0000
  C   C19       1.0  0.40410  0.16866  0.13588  1.0000
  C   C20       1.0  0.39572  0.15647  0.11193  1.0000
  C   C21       1.0  0.37335  0.15122  0.11046  1.0000
  C   C22       1.0  0.35971  0.15767  0.13379  1.0000
  C   C23       1.0  0.36817  0.16960  0.15796  1.0000
  H   H11       1.0  0.42127  0.17317  0.13629  1.0000
  H   H12       1.0  0.40638  0.15179  0.09412  1.0000
  H   H13       1.0  0.34240  0.15362  0.13296  1.0000
  H   H14       1.0  0.35743  0.17460  0.17556  1.0000
  C   C24       1.0  0.30704  0.31174  0.23188  1.0000
  N   N1        1.0  0.47414  0.19737  0.24222  1.0000
  C   C25       1.0  0.49325  0.19983  0.22730  1.0000
  H   H15       1.0  0.32721  0.17964  0.42576  1.0000
  H   H16       1.0  0.47947  0.12549  0.07041  1.0000
  H   H17       1.0  0.31440  0.16435  0.47245  1.0000
  C   C26       1.0  0.46091  0.10496  0.45497  1.0000
  C   C27       1.0  0.49204  0.07925  0.44972  1.0000
  C   C28       1.0  0.42731  0.01846  0.03331  1.0000
  H   H18       1.0  0.45387  0.20335  0.20369  1.0000
  C   C29       1.0  0.48755  0.25613  0.23008  1.0000
  C   C30       1.0  0.48983  0.24618  0.28921  1.0000
  H   H19       1.0  0.40600  0.03514  0.06423  1.0000
  S   S13       1.0  0.35911  0.03594  0.02876  1.0000
  C   C31       1.0  0.28780  0.30789  0.28599  1.0000
  C   C32       1.0  0.33123  0.16981  0.47072  1.0000
  C   C33       1.0  0.34591  0.16814  0.49459  1.0000
  H   H20       1.0  0.40916  0.17741  0.47464  1.0000
  H   H21       1.0  0.43387  0.03365  0.02528  1.0000
  N   N2        1.0  0.47436  0.12225  0.45061  1.0000
  C   C34       1.0  0.46956  0.08324  0.45489  1.0000
  H   H22       1.0  0.44304  0.18456  0.22921  1.0000
  H   H23       1.0  0.45700  0.14881  0.42962  1.0000
  S   S14       1.0  0.40268  0.12609  0.01117  1.0000
  C   C35       1.0  0.45248  0.19987  0.22727  1.0000
  S   S15       1.0  0.35504  0.10111  0.00948  1.0000
  H   H24       1.0  0.39944  0.20612  0.47387  1.0000
  N   N3        1.0  0.37470  0.18272  0.46594  1.0000
  H   H25       1.0  0.44934  0.12663  0.01035  1.0000
  C   C36       1.0  0.40318  0.99983  0.06536  1.0000
  H   H26       1.0  0.47778  0.15701  0.45660  1.0000
  H   H27       1.0  0.45205  0.14665  0.46806  1.0000
  H   H28       1.0  0.36568  0.19154  0.42218  1.0000
  H   H29       1.0  0.44272  0.21381  0.23712  1.0000
  H   H30       1.0  0.39097  0.02888  0.47360  1.0000
  S   S16       1.0  0.45314  0.08039  0.02591  1.0000
  C   C37       1.0  0.46489  0.14486  0.45114  1.0000
  H   H31       1.0  0.35917  0.19680  0.10035  1.0000
  H   H32       1.0  0.44345  0.10797  0.45908  1.0000
  C   C38       1.0  0.43371  0.99796  0.02118  1.0000
  H   H33       1.0  0.40267  0.19015  0.44057  1.0000
  Fe  Fe8       1.0  0.41768  0.09221  0.02050  1.0000
  N   N4        1.0  0.35393  0.21988  0.13550  1.0000
  C   C39       1.0  0.36300  0.23567  0.15315  1.0000
  C   C40       1.0  0.33362  0.21186  0.14143  1.0000
  C   C41       1.0  0.35156  0.24408  0.17719  1.0000
  C   C42       1.0  0.32191  0.21963  0.16567  1.0000
  C   C43       1.0  0.33092  0.23598  0.18351  1.0000
  C   C44       1.0  0.36565  0.21250  0.10933  1.0000
  H   H34       1.0  0.37925  0.24177  0.14879  1.0000
  H   H35       1.0  0.32652  0.19915  0.12765  1.0000
  H   H36       1.0  0.35867  0.25677  0.19098  1.0000
  H   H37       1.0  0.30599  0.21302  0.17066  1.0000
  H   H38       1.0  0.32205  0.24229  0.20238  1.0000
  H   H39       1.0  0.36387  0.22529  0.09225  1.0000
  H   H40       1.0  0.38353  0.20927  0.11455  1.0000
  H   H41       1.0  0.28049  0.30623  0.30711  1.0000
  C   C45       1.0  0.36602  0.00966  0.01317  1.0000
  H   H42       1.0  0.49079  0.24237  0.31219  1.0000
  H   H43       1.0  0.31436  0.31337  0.21076  1.0000
  C   C46       1.0  0.46631  0.12086  0.00813  1.0000
  S   S17       1.0  0.36300  0.11280  0.49960  1.0000
  C   C47       1.0  0.28868  0.32575  0.23939  1.0000
  C   C48       1.0  0.27884  0.32395  0.26658  1.0000
  C   C49       1.0  0.41184  0.01933  0.05542  1.0000
  H   H44       1.0  0.49262  0.20408  0.20442  1.0000
  H   H45       1.0  0.44544  0.99739  0.00365  1.0000
  C   C50       1.0  0.49464  0.09174  0.01231  1.0000
  C   C51       1.0  0.43973  0.00826  0.51827  1.0000
  S   S18       1.0  0.39365  0.08987  0.55231  1.0000
  H   H46       1.0  0.17550  0.32380  0.71760  1.0000
  Fe  Fe9       1.0  0.38187  0.10822  0.97771  1.0000
  C   C52       1.0  0.35817  0.00059  0.51810  1.0000
  S   S19       1.0  0.37525  0.11652  0.92955  1.0000
  Fe  Fe10      1.0  0.38238  0.12426  0.53946  1.0000
  S   S20       1.0  0.37125  0.15446  0.56674  1.0000
  H   H47       1.0  0.47818  0.19771  0.73912  1.0000
  H   H48       1.0  0.42153  0.09912  0.93251  1.0000
  C   C53       1.0  0.43417  0.11177  0.93671  1.0000
  S   S21       1.0  0.39901  0.07498  0.98492  1.0000
  Fe  Fe11      1.0  0.40659  0.23466  0.75356  1.0000
  S   S22       1.0  0.40588  0.19865  0.76362  1.0000
  S   S23       1.0  0.43748  0.25029  0.73647  1.0000
  Fe  Fe12      1.0  0.35634  0.24273  0.76402  1.0000
  S   S24       1.0  0.35245  0.20654  0.77424  1.0000
  S   S25       1.0  0.32790  0.26811  0.77471  1.0000
  Fe  Fe13      1.0  0.38404  0.20841  0.80106  1.0000
  S   S26       1.0  0.39002  0.19990  0.84934  1.0000
  Fe  Fe14      1.0  0.37457  0.19932  0.73571  1.0000
  S   S27       1.0  0.37235  0.16908  0.70545  1.0000
  S   S28       1.0  0.38701  0.24479  0.79278  1.0000
  S   S29       1.0  0.37630  0.23518  0.72366  1.0000
  C   C54       1.0  0.30970  0.29048  0.76261  1.0000
  C   C55       1.0  0.31109  0.29998  0.73505  1.0000
  C   C56       1.0  0.39784  0.29736  0.73628  1.0000
  C   C57       1.0  0.29411  0.29979  0.78203  1.0000
  H   H49       1.0  0.32273  0.29298  0.71964  1.0000
  C   C58       1.0  0.41529  0.03349  0.54560  1.0000
  H   H50       1.0  0.41549  0.28503  0.77435  1.0000
  C   C59       1.0  0.46490  0.24456  0.75001  1.0000
  C   C60       1.0  0.46905  0.23473  0.77711  1.0000
  H   H51       1.0  0.43184  0.12419  0.91915  1.0000
  H   H52       1.0  0.45534  0.23044  0.79046  1.0000
  C   C61       1.0  0.29764  0.31880  0.72751  1.0000
  C   C62       1.0  0.38215  0.13898  0.90721  1.0000
  C   C63       1.0  0.37759  0.13763  0.87703  1.0000
  C   C64       1.0  0.38072  0.15577  0.85871  1.0000
  C   C65       1.0  0.38837  0.17556  0.87045  1.0000
  C   C66       1.0  0.39368  0.17664  0.90047  1.0000
  C   C67       1.0  0.39067  0.15845  0.91877  1.0000
  H   H53       1.0  0.37110  0.12259  0.86784  1.0000
  H   H54       1.0  0.37673  0.15459  0.83567  1.0000
  H   H55       1.0  0.39968  0.19185  0.90977  1.0000
  H   H56       1.0  0.39422  0.15978  0.94192  1.0000
  C   C68       1.0  0.37231  0.16565  0.66676  1.0000
  C   C69       1.0  0.36775  0.18317  0.64766  1.0000
  C   C70       1.0  0.36767  0.17946  0.61720  1.0000
  C   C71       1.0  0.37236  0.15829  0.60537  1.0000
  C   C72       1.0  0.37730  0.14086  0.62448  1.0000
  C   C73       1.0  0.37710  0.14451  0.65493  1.0000
  H   H57       1.0  0.36381  0.19948  0.65632  1.0000
  H   H58       1.0  0.36369  0.19305  0.60269  1.0000
  H   H59       1.0  0.38078  0.12446  0.61581  1.0000
  H   H60       1.0  0.38049  0.13076  0.66940  1.0000
  C   C74       1.0  0.48695  0.13709  0.52147  1.0000
  Fe  Fe15      1.0  0.42236  0.09452  0.52340  1.0000
  C   C75       1.0  0.48298  0.25004  0.73303  1.0000
  C   C76       1.0  0.47131  0.12187  0.52938  1.0000
  H   H61       1.0  0.33667  0.17396  0.82713  1.0000
  H   H62       1.0  0.48256  0.15456  0.52141  1.0000
  H   H63       1.0  0.42840  0.04137  0.55907  1.0000
  C   C77       1.0  0.38002  0.00724  0.98941  1.0000
  C   C78       1.0  0.38453  0.30197  0.78520  1.0000
  H   H64       1.0  0.37636  0.31138  0.70265  1.0000
  H   H65       1.0  0.44647  0.07082  0.95255  1.0000
  C   C79       1.0  0.28036  0.31836  0.77430  1.0000
  H   H66       1.0  0.45517  0.12767  0.53617  1.0000
  H   H67       1.0  0.43077  0.11992  0.95797  1.0000
  Fe  Fe16      1.0  0.37688  0.07834  0.51075  1.0000
  H   H68       1.0  0.47997  0.25770  0.71206  1.0000
  S   S30       1.0  0.35874  0.04611  0.51587  1.0000
  C   C80       1.0  0.48225  0.13548  0.99926  1.0000
  H   H69       1.0  0.40447  0.20287  0.68178  1.0000
  H   H70       1.0  0.38667  0.29881  0.80833  1.0000
  H   H71       1.0  0.38642  0.02174  0.97949  1.0000
  N   N5        1.0  0.45667  0.10186  0.93709  1.0000
  C   C81       1.0  0.47668  0.09924  0.52876  1.0000
  N   N6        1.0  0.42250  0.01105  0.53695  1.0000
  H   H72       1.0  0.42805  0.21122  0.66176  1.0000
  H   H73       1.0  0.34061  0.16150  0.51509  1.0000
  C   C82       1.0  0.34925  0.32124  0.79540  1.0000
  C   C83       1.0  0.36312  0.31685  0.74557  1.0000
  S   S31       1.0  0.45623  0.08001  0.53418  1.0000
  C   C84       1.0  0.18887  0.31327  0.70772  1.0000
  H   H74       1.0  0.47746  0.15246  0.99442  1.0000
  C   C85       1.0  0.40083  0.29409  0.76614  1.0000
  H   H75       1.0  0.29273  0.29269  0.80341  1.0000
  H   H76       1.0  0.41629  0.18490  0.65417  1.0000
  H   H77       1.0  0.39966  0.03372  0.55798  1.0000
  H   H78       1.0  0.34324  0.30721  0.80814  1.0000
  H   H79       1.0  0.33437  0.15173  0.94976  1.0000
  H   H80       1.0  0.47012  0.16025  0.75682  1.0000
  C   C86       1.0  0.37889  0.30883  0.72586  1.0000
  N   N7        1.0  0.33128  0.17700  0.87271  1.0000
  C   C87       1.0  0.33821  0.18952  0.89596  1.0000
  C   C88       1.0  0.32468  0.15590  0.87675  1.0000
  C   C89       1.0  0.33912  0.18077  0.92408  1.0000
  C   C90       1.0  0.32553  0.14658  0.90455  1.0000
  C   C91       1.0  0.33286  0.15911  0.92830  1.0000
  C   C92       1.0  0.33043  0.18632  0.84333  1.0000
  H   H81       1.0  0.34382  0.20612  0.89269  1.0000
  H   H82       1.0  0.31935  0.14591  0.85832  1.0000
  H   H83       1.0  0.34535  0.19044  0.94230  1.0000
  H   H84       1.0  0.32133  0.12949  0.90758  1.0000
  H   H85       1.0  0.34564  0.00333  0.53433  1.0000
  H   H86       1.0  0.31318  0.19166  0.83727  1.0000
  H   H87       1.0  0.34121  0.20077  0.84181  1.0000
  H   H88       1.0  0.47148  0.13176  0.92492  1.0000
  N   N8        1.0  0.43464  0.18654  0.69428  1.0000
  C   C93       1.0  0.43026  0.16582  0.70363  1.0000
  C   C94       1.0  0.45159  0.19795  0.70682  1.0000
  C   C95       1.0  0.44293  0.15603  0.72620  1.0000
  C   C96       1.0  0.46480  0.18855  0.72919  1.0000
  C   C97       1.0  0.46030  0.16752  0.73906  1.0000
  C   C98       1.0  0.42023  0.19694  0.67185  1.0000
  H   H89       1.0  0.41666  0.15686  0.69392  1.0000
  H   H90       1.0  0.45483  0.21456  0.69985  1.0000
  H   H91       1.0  0.43902  0.13978  0.73389  1.0000
  S   S32       1.0  0.41273  0.12966  0.51361  1.0000
  C   C99       1.0  0.46021  0.08047  0.94577  1.0000
  H   H92       1.0  0.18136  0.29874  0.69695  1.0000
  H   H93       1.0  0.41180  0.04366  0.52593  1.0000
  C   C100      1.0  0.36766  0.01889  0.50517  1.0000
  C   C101      1.0  0.47417  0.11448  0.93040  1.0000
  H   H94       1.0  0.20010  0.30715  0.72564  1.0000
  H   H95       1.0  0.41018  0.29083  0.72130  1.0000
  C   C102      1.0  0.48166  0.07089  0.94676  1.0000
  N   N9        1.0  0.36596  0.31314  0.77481  1.0000
  H   H96       1.0  0.44799  0.02253  0.51025  1.0000
  H   H97       1.0  0.26866  0.32529  0.78970  1.0000
  H   H98       1.0  0.39809  0.99531  0.56154  1.0000
  C   C103      1.0  0.49106  0.23094  0.78736  1.0000
  H   H99       1.0  0.29922  0.32612  0.70630  1.0000
  H   H100      1.0  0.48444  0.05404  0.95412  1.0000
  H   H101      1.0  0.37908  0.17310  0.51037  1.0000
  H   H102      1.0  0.49406  0.22382  0.80866  1.0000
  N   N10       1.0  0.20060  0.32616  0.68647  1.0000
  H   H103      1.0  0.34848  0.32582  0.73730  1.0000
  Fe  Fe17      1.0  0.10833  0.38538  0.04039  1.0000
  H   H104      1.0  0.16310  0.45731  0.43993  1.0000
  S   S33       1.0  0.12770  0.36473  0.07438  1.0000
  H   H105      1.0  0.19677  0.54790  0.39839  1.0000
  S   S34       1.0  0.06662  0.39676  0.47243  1.0000
  C   C104      1.0  0.99577  0.38268  0.07404  1.0000
  H   H106      1.0  0.26767  0.37031  0.32677  1.0000
  H   H107      1.0  0.13034  0.34438  0.23688  1.0000
  Fe  Fe18      1.0  0.10261  0.38495  0.47488  1.0000
  S   S35       1.0  0.12544  0.36755  0.44192  1.0000
  S   S36       1.0  0.07366  0.39864  0.04802  1.0000
  H   H108      1.0  0.18566  0.55971  0.34822  1.0000
  C   C105      1.0  0.17295  0.38203  0.03825  1.0000
  S   S37       1.0  0.09941  0.58697  0.03747  1.0000
  S   S38       1.0  0.14199  0.59530  0.48225  1.0000
  Fe  Fe19      1.0  0.11335  0.61109  0.45758  1.0000
  H   H109      1.0  0.27614  0.39569  0.34377  1.0000
  S   S39       1.0  0.11664  0.62560  0.41223  1.0000
  C   C106      1.0  0.08811  0.50548  0.04347  1.0000
  S   S40       1.0  0.03795  0.59097  0.01154  1.0000
  Fe  Fe20      1.0  0.11874  0.61679  0.02762  1.0000
  S   S41       1.0  0.14144  0.63533  0.05902  1.0000
  S   S42       1.0  0.09148  0.58186  0.46038  1.0000
  C   C107      1.0  0.08187  0.48064  0.48279  1.0000
  Fe  Fe21      1.0  0.22705  0.42234  0.26815  1.0000
  S   S43       1.0  0.19099  0.42150  0.25757  1.0000
  S   S44       1.0  0.24251  0.45480  0.28212  1.0000
  Fe  Fe22      1.0  0.23217  0.37125  0.26534  1.0000
  S   S45       1.0  0.19540  0.36778  0.25432  1.0000
  S   S46       1.0  0.25619  0.34189  0.27813  1.0000
  Fe  Fe23      1.0  0.19984  0.39605  0.22343  1.0000
  S   S47       1.0  0.18343  0.40654  0.17998  1.0000
  Fe  Fe24      1.0  0.18924  0.39372  0.28940  1.0000
  S   S48       1.0  0.15924  0.40016  0.31870  1.0000
  S   S49       1.0  0.23678  0.39825  0.23247  1.0000
  S   S50       1.0  0.22523  0.39581  0.30199  1.0000
  Fe  Fe25      1.0  0.20686  0.61057  0.28563  1.0000
  S   S51       1.0  0.24226  0.60458  0.27150  1.0000
  S   S52       1.0  0.20219  0.60868  0.33484  1.0000
  Fe  Fe26      1.0  0.18965  0.61537  0.22205  1.0000
  S   S53       1.0  0.22373  0.61031  0.20445  1.0000
  S   S54       1.0  0.15778  0.61490  0.19426  1.0000
  Fe  Fe27      1.0  0.22739  0.58241  0.23676  1.0000
  S   S55       1.0  0.23619  0.54817  0.21805  1.0000
  Fe  Fe28      1.0  0.23544  0.63307  0.24082  1.0000
  S   S56       1.0  0.19289  0.58675  0.25295  1.0000
  C   C108      1.0  0.23551  0.52259  0.23683  1.0000
  C   C109      1.0  0.23266  0.50293  0.22072  1.0000
  C   C110      1.0  0.23361  0.48216  0.23447  1.0000
  C   C111      1.0  0.23811  0.48072  0.26445  1.0000
  C   C112      1.0  0.24085  0.50037  0.28059  1.0000
  C   C113      1.0  0.23922  0.52119  0.26698  1.0000
  H   H110      1.0  0.22997  0.50376  0.19738  1.0000
  H   H111      1.0  0.23165  0.46723  0.22167  1.0000
  H   H112      1.0  0.24451  0.49948  0.30373  1.0000
  H   H113      1.0  0.24169  0.53610  0.27964  1.0000
  N   N11       1.0  0.13379  0.40601  0.21720  1.0000
  H   H114      1.0  0.02858  0.53034  0.47541  1.0000
  C   C114      1.0  0.09260  0.48354  0.03493  1.0000
  C   C115      1.0  0.17829  0.61442  0.35577  1.0000
  C   C116      1.0  0.15820  0.62227  0.34334  1.0000
  C   C117      1.0  0.13958  0.62608  0.36100  1.0000
  C   C118      1.0  0.14076  0.62173  0.39108  1.0000
  C   C119      1.0  0.16093  0.61407  0.40344  1.0000
  C   C120      1.0  0.17962  0.61070  0.38594  1.0000
  H   H115      1.0  0.15696  0.62534  0.32016  1.0000
  C   C121      1.0  0.13096  0.36172  0.23140  1.0000
  C   C122      1.0  0.14620  0.62869  0.09633  1.0000
  C   C123      1.0  0.13158  0.61598  0.11165  1.0000
  C   C124      1.0  0.13546  0.61186  0.14156  1.0000
  C   C125      1.0  0.15421  0.61995  0.15635  1.0000
  C   C126      1.0  0.16917  0.63213  0.14083  1.0000
  H   H116      1.0  0.11697  0.60981  0.10069  1.0000
  H   H117      1.0  0.12373  0.60251  0.15338  1.0000
  C   C127      1.0  0.13480  0.37716  0.40788  1.0000
  C   C128      1.0  0.15221  0.36542  0.39400  1.0000
  C   C129      1.0  0.16038  0.37250  0.36719  1.0000
  C   C130      1.0  0.15094  0.39125  0.35360  1.0000
  C   C131      1.0  0.13360  0.40305  0.36756  1.0000
  C   C132      1.0  0.12572  0.39622  0.39465  1.0000
  H   H118      1.0  0.15937  0.35063  0.40397  1.0000
  H   H119      1.0  0.17361  0.36314  0.35672  1.0000
  H   H120      1.0  0.12608  0.41753  0.35726  1.0000
  H   H121      1.0  0.11236  0.40546  0.40499  1.0000
  C   C133      1.0  0.14284  0.37647  0.10401  1.0000
  C   C134      1.0  0.15325  0.36256  0.12495  1.0000
  C   C135      1.0  0.16592  0.37133  0.14830  1.0000
  C   C136      1.0  0.16847  0.39415  0.15072  1.0000
  C   C137      1.0  0.15813  0.40801  0.12967  1.0000
  C   C138      1.0  0.14528  0.39927  0.10658  1.0000
  H   H122      1.0  0.15156  0.34487  0.12307  1.0000
  H   H123      1.0  0.17377  0.36046  0.16432  1.0000
  H   H124      1.0  0.15993  0.42569  0.13137  1.0000
  H   H125      1.0  0.13737  0.41020  0.09067  1.0000
  H   H126      1.0  0.16849  0.54819  0.43720  1.0000
  H   H127      1.0  0.01204  0.33679  0.03601  1.0000
  H   H128      1.0  0.11228  0.58684  0.35742  1.0000
  C   C139      1.0  0.10333  0.47505  0.47379  1.0000
  H   H129      1.0  0.00251  0.39716  0.08458  1.0000
  Fe  Fe29      1.0  0.07860  0.42710  0.49537  1.0000
  H   H130      1.0  0.17640  0.64662  0.09948  1.0000
  S   S57       1.0  0.09894  0.62765  0.49780  1.0000
  H   H131      1.0  0.29577  0.37283  0.34028  1.0000
  H   H132      1.0  0.31936  0.65397  0.20075  1.0000
  H   H133      1.0  0.16956  0.38682  0.44675  1.0000
  H   H134      1.0  0.99490  0.57278  0.00801  1.0000
  S   S58       1.0  0.06223  0.46023  0.48604  1.0000
  H   H135      1.0  0.18358  0.63860  0.15197  1.0000
  C   C140      1.0  0.13550  0.42937  0.20982  1.0000
  H   H136      1.0  0.14995  0.43653  0.22150  1.0000
  H   H137      1.0  0.17429  0.64256  0.01338  1.0000
  H   H138      1.0  0.00131  0.41727  0.44137  1.0000
  S   S59       1.0  0.20052  0.63989  0.25654  1.0000
  C   C141      1.0  0.16503  0.63668  0.11107  1.0000
  N   N12       1.0  0.16846  0.40472  0.48692  1.0000
  H   H139      1.0  0.02684  0.42664  0.48218  1.0000
  H   H140      1.0  0.18341  0.40853  0.06662  1.0000
  H   H141      1.0  0.13921  0.37217  0.27530  1.0000
  H   H142      1.0  0.12409  0.63217  0.35124  1.0000
  N   N13       1.0  0.17357  0.56524  0.13448  1.0000
  C   C142      1.0  0.15911  0.54850  0.13080  1.0000
  C   C143      1.0  0.17779  0.57880  0.11176  1.0000
  C   C144      1.0  0.14816  0.54522  0.10392  1.0000
  C   C145      1.0  0.16700  0.57610  0.08468  1.0000
  C   C146      1.0  0.15213  0.55917  0.08077  1.0000
  C   C147      1.0  0.18499  0.56812  0.16277  1.0000
  H   H143      1.0  0.15593  0.53765  0.14876  1.0000
  H   H144      1.0  0.18919  0.59212  0.11464  1.0000
  H   H145      1.0  0.13662  0.53199  0.10100  1.0000
  H   H146      1.0  0.16985  0.58734  0.06699  1.0000
  H   H147      1.0  0.14367  0.55689  0.05984  1.0000
  H   H148      1.0  0.17308  0.56739  0.18084  1.0000
  H   H149      1.0  0.19827  0.55512  0.16599  1.0000
  H   H150      1.0  0.19258  0.58452  0.16474  1.0000
  H   H151      1.0  0.19511  0.60476  0.39583  1.0000
  H   H152      1.0  0.10768  0.45823  0.46772  1.0000
  C   C148      1.0  0.00212  0.36868  0.49192  1.0000
  H   H153      1.0  0.14683  0.57165  0.33743  1.0000
  H   H154      1.0  0.16219  0.61086  0.42655  1.0000
  N   N14       1.0  0.28786  0.38948  0.30061  1.0000
  C   C149      1.0  0.28160  0.41029  0.29159  1.0000
  C   C150      1.0  0.29913  0.37529  0.28240  1.0000
  C   C151      1.0  0.28672  0.41737  0.26371  1.0000
  C   C152      1.0  0.30431  0.38173  0.25427  1.0000
  C   C153      1.0  0.29802  0.40293  0.24491  1.0000
  C   C154      1.0  0.28158  0.38178  0.32934  1.0000
  H   H155      1.0  0.27230  0.42148  0.30575  1.0000
  H   H156      1.0  0.30362  0.35862  0.28933  1.0000
  H   H157      1.0  0.28142  0.43381  0.25657  1.0000
  H   H158      1.0  0.31274  0.37015  0.23973  1.0000
  H   H159      1.0  0.30160  0.40807  0.22300  1.0000
  H   H160      1.0  0.05956  0.50698  0.49665  1.0000
  C   C155      1.0  0.00110  0.34870  0.04688  1.0000
  C   C156      1.0  0.00912  0.42695  0.48570  1.0000
  N   N15       1.0  0.13617  0.56677  0.38084  1.0000
  C   C157      1.0  0.14209  0.56008  0.40839  1.0000
  C   C158      1.0  0.15144  0.56620  0.35925  1.0000
  C   C159      1.0  0.16393  0.55317  0.41514  1.0000
  C   C160      1.0  0.17343  0.55935  0.36519  1.0000
  C   C161      1.0  0.17970  0.55289  0.39338  1.0000
  C   C162      1.0  0.11312  0.57365  0.37410  1.0000
  H   H161      1.0  0.12997  0.56026  0.42545  1.0000
  H   H162      1.0  0.07437  0.50940  0.05756  1.0000
  S   S60       1.0  0.12052  0.41712  0.02334  1.0000
  C   C163      1.0  0.16499  0.44259  0.45314  1.0000
  H   H163      1.0  0.01627  0.36487  0.47850  1.0000
  C   C164      1.0  0.12800  0.39099  0.19615  1.0000
  H   H164      1.0  0.29471  0.65139  0.26934  1.0000
  H   H165      1.0  0.17264  0.37027  0.05590  1.0000
  C   C165      1.0  0.17919  0.40364  0.04441  1.0000
  H   H166      1.0  0.02914  0.62221  0.47154  1.0000
  Fe  Fe30      1.0  0.08532  0.42947  0.02756  1.0000
  H   H167      1.0  0.10375  0.55928  0.36613  1.0000
  S   S61       1.0  0.11440  0.41654  0.49433  1.0000
  H   H168      1.0  0.18378  0.43585  0.02639  1.0000
  C   C166      1.0  0.16688  0.42506  0.50018  1.0000
  C   C167      1.0  0.11340  0.51332  0.47912  1.0000
  H   H169      1.0  0.10495  0.58084  0.39367  1.0000
  H   H170      1.0  0.26103  0.65189  0.34794  1.0000
  N   N16       1.0  0.99967  0.55135  0.47614  1.0000
  S   S62       1.0  0.07519  0.46278  0.04582  1.0000
  H   H171      1.0  0.14142  0.41148  0.26226  1.0000
  C   C168      1.0  0.16509  0.44429  0.48350  1.0000
  C   C169      1.0  0.00428  0.40451  0.00854  1.0000
  H   H172      1.0  0.24672  0.62987  0.32929  1.0000
  C   C170      1.0  0.13600  0.37728  0.25293  1.0000
  H   H173      1.0  0.09725  0.53933  0.03943  1.0000
  C   C171      1.0  0.16689  0.42181  0.43985  1.0000
  S   S63       1.0  0.13348  0.53335  0.47718  1.0000
  H   H174      1.0  0.20176  0.65513  0.35270  1.0000
  C   C172      1.0  0.09185  0.51904  0.48770  1.0000
  Fe  Fe31      1.0  0.06591  0.38806  0.00199  1.0000
  H   H175      1.0  0.12012  0.43874  0.21576  1.0000
  H   H176      1.0  0.16645  0.42018  0.41625  1.0000
  H   H177      1.0  0.03396  0.55940  0.47422  1.0000
  C   C173      1.0  0.13730  0.39951  0.24542  1.0000
  C   C174      1.0  0.12680  0.36859  0.20281  1.0000
  H   H178      1.0  0.13851  0.43142  0.18620  1.0000
  C   C175      1.0  0.16866  0.40296  0.45720  1.0000
  H   H179      1.0  0.28211  0.33789  0.22408  1.0000
  Fe  Fe32      1.0  0.11944  0.56720  0.48747  1.0000
  H   H180      1.0  0.12487  0.39617  0.17383  1.0000
  C   C176      1.0  0.10103  0.52242  0.03319  1.0000
  H   H181      1.0  0.11364  0.46178  0.00952  1.0000
  H   H182      1.0  0.12298  0.35667  0.18577  1.0000
  H   H183      1.0  0.01867  0.41299  0.01665  1.0000
  H   H184      1.0  0.02776  0.36875  0.06225  1.0000
  C   C177      1.0  0.07607  0.50268  0.48945  1.0000
  N   N17       1.0  0.16676  0.37592  0.01054  1.0000
  C   C178      1.0  0.02315  0.54693  0.48361  1.0000
  C   C179      1.0  0.12352  0.49538  0.00693  1.0000
  H   H185      1.0  0.23731  0.64000  0.36383  1.0000
  C   C180      1.0  0.24455  0.64501  0.34295  1.0000
  C   C181      1.0  0.17945  0.41891  0.02187  1.0000
  C   C182      1.0  0.15999  0.35328  0.00464  1.0000
  C   C183      1.0  0.11907  0.49138  0.47195  1.0000
  C   C184      1.0  0.01480  0.61646  0.48252  1.0000
  H   H186      1.0  0.04225  0.53513  0.01204  1.0000
  C   C185      1.0  0.11036  0.47853  0.01674  1.0000
  C   C186      1.0  0.11858  0.51736  0.01464  1.0000
  H   H187      1.0  0.08744  0.53597  0.49337  1.0000
  H   H188      1.0  0.00607  0.57572  0.44444  1.0000
  H   H189      1.0  0.16311  0.46034  0.49406  1.0000
  H   H190      1.0  0.18028  0.37194  0.49610  1.0000
  H   H191      1.0  0.13562  0.48707  0.46489  1.0000
  Fe  Fe33      1.0  0.07405  0.59977  0.00397  1.0000
  H   H192      1.0  0.15017  0.34714  0.02291  1.0000
  C   C187      1.0  0.00996  0.36671  0.06163  1.0000
  Fe  Fe34      1.0  0.10982  0.40112  0.53808  1.0000
  H   H193      1.0  0.23572  0.50920  0.81561  1.0000
  S   S64       1.0  0.13935  0.40684  0.56930  1.0000
  H   H194      1.0  0.08797  0.53193  0.95952  1.0000
  S   S65       1.0  0.07521  0.41995  0.98208  1.0000
  C   C188      1.0  0.08761  0.49711  0.95058  1.0000
  C   C189      1.0  0.28215  0.32822  0.74703  1.0000
  C   C190      1.0  0.01158  0.60319  0.00174  1.0000
  Fe  Fe35      1.0  0.10978  0.40505  0.97867  1.0000
  S   S66       1.0  0.13004  0.41635  0.94021  1.0000
  S   S67       1.0  0.07495  0.41495  0.54069  1.0000
  C   C191      1.0  0.18971  0.33269  0.66138  1.0000
  C   C192      1.0  0.07933  0.51683  0.96301  1.0000
  C   C193      1.0  0.09876  0.62676  0.63382  1.0000
  H   H195      1.0  0.02277  0.63590  0.99417  1.0000
  Fe  Fe36      1.0  0.11027  0.61227  0.96138  1.0000
  H   H196      1.0  0.17260  0.32843  0.65735  1.0000
  S   S68       1.0  0.11548  0.62685  0.91648  1.0000
  H   H197      1.0  0.28129  0.60551  0.67223  1.0000
  C   C194      1.0  0.05271  0.53780  0.99289  1.0000
  H   H198      1.0  0.14917  0.35241  0.98473  1.0000
  S   S69       1.0  0.14789  0.62608  0.55738  1.0000
  S   S70       1.0  0.09048  0.58195  0.96645  1.0000
  C   C195      1.0  0.23048  0.55317  0.82163  1.0000
  Fe  Fe37      1.0  0.21080  0.41843  0.75681  1.0000
  S   S71       1.0  0.17817  0.40294  0.76536  1.0000
  S   S72       1.0  0.20293  0.45565  0.75262  1.0000
  Fe  Fe38      1.0  0.23496  0.37232  0.75197  1.0000
  S   S73       1.0  0.20343  0.35491  0.75978  1.0000
  S   S74       1.0  0.26636  0.35269  0.73650  1.0000
  Fe  Fe39      1.0  0.18681  0.37942  0.72910  1.0000
  S   S75       1.0  0.15971  0.36898  0.69682  1.0000
  Fe  Fe40      1.0  0.19725  0.38020  0.79550  1.0000
  S   S76       1.0  0.18333  0.36716  0.83775  1.0000
  S   S77       1.0  0.21836  0.39563  0.71880  1.0000
  S   S78       1.0  0.22984  0.39672  0.78951  1.0000
  Fe  Fe41      1.0  0.20629  0.61045  0.78845  1.0000
  S   S79       1.0  0.24286  0.60665  0.77932  1.0000
  S   S80       1.0  0.19917  0.60573  0.83678  1.0000
  Fe  Fe42      1.0  0.19411  0.60862  0.72263  1.0000
  S   S81       1.0  0.22971  0.60415  0.71003  1.0000
  S   S82       1.0  0.16435  0.60440  0.69143  1.0000
  Fe  Fe43      1.0  0.23283  0.58024  0.74729  1.0000
  S   S83       1.0  0.25219  0.54717  0.74811  1.0000
  Fe  Fe44      1.0  0.23675  0.63117  0.74332  1.0000
  S   S84       1.0  0.19698  0.58295  0.75794  1.0000
  C   C196      1.0  0.23859  0.52160  0.74800  1.0000
  C   C197      1.0  0.25100  0.50180  0.75282  1.0000
  C   C198      1.0  0.24055  0.48131  0.75377  1.0000
  C   C199      1.0  0.21756  0.48046  0.74973  1.0000
  C   C200      1.0  0.20524  0.50024  0.74458  1.0000
  C   C201      1.0  0.21564  0.52066  0.74379  1.0000
  H   H199      1.0  0.26878  0.50230  0.75602  1.0000
  H   H200      1.0  0.25025  0.46626  0.75783  1.0000
  H   H201      1.0  0.18744  0.49983  0.74148  1.0000
  H   H202      1.0  0.20586  0.53566  0.73980  1.0000
  C   C202      1.0  0.23263  0.34564  0.67265  1.0000
  H   H203      1.0  0.02229  0.42011  0.54665  1.0000
  H   H204      1.0  0.35640  0.33364  0.81053  1.0000
  C   C203      1.0  0.17499  0.61079  0.85758  1.0000
  C   C204      1.0  0.17429  0.60181  0.88568  1.0000
  C   C205      1.0  0.15589  0.60594  0.90356  1.0000
  C   C206      1.0  0.13807  0.61948  0.89371  1.0000
  H   H205      1.0  0.10064  0.61781  0.57199  1.0000
  H   H206      1.0  0.10687  0.41620  0.72251  1.0000
  H   H207      1.0  0.18813  0.59161  0.89375  1.0000
  H   H208      1.0  0.15568  0.59897  0.92513  1.0000
  C   C207      1.0  0.15534  0.61666  0.59300  1.0000
  C   C208      1.0  0.14403  0.59993  0.60644  1.0000
  C   C209      1.0  0.14795  0.59545  0.63627  1.0000
  C   C210      1.0  0.16353  0.60728  0.65287  1.0000
  Fe  Fe45      1.0  0.12627  0.60905  0.52293  1.0000
  H   H209      1.0  0.13163  0.59103  0.59420  1.0000
  C   C211      1.0  0.00539  0.37377  0.52146  1.0000
  C   C212      1.0  0.14362  0.40218  0.91100  1.0000
  C   C213      1.0  0.15382  0.41464  0.88969  1.0000
  C   C214      1.0  0.16559  0.40426  0.86678  1.0000
  C   C215      1.0  0.16758  0.38119  0.86512  1.0000
  C   C216      1.0  0.15733  0.36873  0.88641  1.0000
  C   C217      1.0  0.14525  0.37911  0.90905  1.0000
  H   H210      1.0  0.15270  0.43248  0.89097  1.0000
  H   H211      1.0  0.17343  0.41408  0.85070  1.0000
  H   H212      1.0  0.15870  0.35089  0.88529  1.0000
  H   H213      1.0  0.13735  0.36925  0.92503  1.0000
  C   C218      1.0  0.14486  0.39565  0.60445  1.0000
  C   C219      1.0  0.16430  0.40149  0.61976  1.0000
  C   C220      1.0  0.16899  0.39370  0.64816  1.0000
  C   C221      1.0  0.15443  0.37966  0.66138  1.0000
  C   C222      1.0  0.13518  0.37354  0.64593  1.0000
  C   C223      1.0  0.13033  0.38159  0.61769  1.0000
  H   H214      1.0  0.17563  0.41241  0.60975  1.0000
  H   H215      1.0  0.18388  0.39853  0.65977  1.0000
  H   H216      1.0  0.12385  0.36260  0.65590  1.0000
  H   H217      1.0  0.11534  0.37690  0.60617  1.0000
  H   H218      1.0  0.07417  0.62824  0.58484  1.0000
  C   C224      1.0  0.22184  0.33238  0.69222  1.0000
  H   H219      1.0  0.04274  0.54731  0.97634  1.0000
  H   H220      1.0  0.12505  0.63895  0.85775  1.0000
  C   C225      1.0  0.16766  0.39058  0.98819  1.0000
  S   S85       1.0  0.09906  0.36885  0.51884  1.0000
  C   C226      1.0  0.30738  0.62611  0.73139  1.0000
  N   N18       1.0  0.06117  0.51691  0.98028  1.0000
  H   H221      1.0  0.03123  0.44484  0.52950  1.0000
  H   H222      1.0  0.22960  0.36324  0.63216  1.0000
  C   C227      1.0  0.17150  0.62792  0.60932  1.0000
  C   C228      1.0  0.30403  0.60925  0.75125  1.0000
  H   H223      1.0  0.24734  0.54532  0.82359  1.0000
  H   H224      1.0  0.28977  0.57748  0.75727  1.0000
  C   C229      1.0  0.17573  0.62315  0.63901  1.0000
  C   C230      1.0  0.29275  0.59061  0.74209  1.0000
  H   H225      1.0  0.16597  0.42647  0.52372  1.0000
  H   H226      1.0  0.33448  0.32899  0.78412  1.0000
  S   S86       1.0  0.20047  0.63685  0.75422  1.0000
  H   H227      1.0  0.03628  0.49769  0.99902  1.0000
  C   C231      1.0  0.11018  0.63123  0.66000  1.0000
  H   H228      1.0  0.18713  0.56153  0.82326  1.0000
  C   C232      1.0  0.05831  0.47778  0.97291  1.0000
  H   H229      1.0  0.10787  0.62128  0.67914  1.0000
  H   H230      1.0  0.15731  0.63110  0.82601  1.0000
  H   H231      1.0  0.08363  0.46196  0.94674  1.0000
  C   C233      1.0  0.13872  0.62843  0.86559  1.0000
  H   H232      1.0  0.09184  0.64598  0.56559  1.0000
  H   H233      1.0  0.05016  0.46259  0.97755  1.0000
  H   H234      1.0  0.18264  0.64598  0.92067  1.0000
  H   H235      1.0  0.10251  0.49699  0.93782  1.0000
  H   H236      1.0  0.20634  0.48184  0.81278  1.0000
  H   H237      1.0  0.17208  0.38783  0.52766  1.0000
  S   S87       1.0  0.03220  0.37272  0.53824  1.0000
  C   C234      1.0  0.28483  0.58912  0.71339  1.0000
  N   N19       1.0  0.13542  0.42972  0.70388  1.0000
  C   C235      1.0  0.12742  0.42888  0.67576  1.0000
  C   C236      1.0  0.15362  0.44171  0.71079  1.0000
  C   C237      1.0  0.13723  0.44087  0.65391  1.0000
  C   C238      1.0  0.16403  0.45366  0.68944  1.0000
  C   C239      1.0  0.15569  0.45328  0.66084  1.0000
  C   C240      1.0  0.12505  0.41687  0.72641  1.0000
  H   H238      1.0  0.16027  0.44209  0.73293  1.0000
  H   H239      1.0  0.13095  0.43998  0.63156  1.0000
  H   H240      1.0  0.17858  0.46299  0.69514  1.0000
  H   H241      1.0  0.16369  0.46234  0.64400  1.0000
  H   H242      1.0  0.13223  0.39973  0.72646  1.0000
  H   H243      1.0  0.12781  0.42420  0.74846  1.0000
  C   C241      1.0  0.05054  0.49776  0.98510  1.0000
  C   C242      1.0  0.15699  0.62399  0.84750  1.0000
  C   C243      1.0  0.18118  0.64330  0.96744  1.0000
  C   C244      1.0  0.17981  0.50640  0.81670  1.0000
  H   H244      1.0  0.22803  0.56464  0.84045  1.0000
  S   S88       1.0  0.03367  0.37152  0.98916  1.0000
  H   H245      1.0  0.18761  0.63254  0.65151  1.0000
  H   H246      1.0  0.11359  0.41862  0.66997  1.0000
  H   H247      1.0  0.19098  0.35169  0.62199  1.0000
  C   C245      1.0  0.01652  0.43612  0.53699  1.0000
  C   C246      1.0  0.17339  0.65024  0.94008  1.0000
  H   H248      1.0  0.27565  0.57485  0.70629  1.0000
  H   H249      1.0  0.30985  0.61082  0.77368  1.0000
  N   N20       1.0  0.21313  0.53688  0.82040  1.0000
  H   H250      1.0  0.00087  0.58471  0.53930  1.0000
  C   C247      1.0  0.17443  0.52891  0.81953  1.0000
  H   H251      1.0  0.13840  0.58317  0.64676  1.0000
  H   H252      1.0  0.15724  0.53472  0.82010  1.0000
  S   S89       1.0  0.13368  0.53824  0.99928  1.0000
  C   C248      1.0  0.21856  0.51485  0.81742  1.0000
  C   C249      1.0  0.30243  0.64252  0.68273  1.0000
  S   S90       1.0  0.09220  0.63128  0.99694  1.0000
  C   C250      1.0  0.07704  0.47746  0.95567  1.0000
  C   C251      1.0  0.19141  0.54402  0.82133  1.0000
  H   H253      1.0  0.16685  0.49448  0.81488  1.0000
  S   S91       1.0  0.10592  0.57941  0.52996  1.0000
  C   C252      1.0  0.22157  0.35256  0.64717  1.0000
  H   H254      1.0  0.18035  0.64090  0.59917  1.0000
  C   C253      1.0  0.17380  0.41232  0.99351  1.0000
  H   H255      1.0  0.22974  0.56297  0.80136  1.0000
  C   C254      1.0  0.00855  0.62558  0.99488  1.0000
  C   C255      1.0  0.28814  0.60645  0.69424  1.0000
  C   C256      1.0  0.16865  0.64820  0.99199  1.0000
  H   H256      1.0  0.31588  0.64069  0.73881  1.0000
  N   N21       1.0  0.29946  0.62455  0.70328  1.0000
  C   C257      1.0  0.20200  0.49928  0.81576  1.0000
  H   H257      1.0  0.13555  0.65046  0.68063  1.0000
  H   H258      1.0  0.28603  0.65051  0.67708  1.0000
  Fe  Fe46      1.0  0.06406  0.38396  0.51797  1.0000
  H   H259      1.0  0.17359  0.42404  0.97575  1.0000
  S   S92       1.0  0.04436  0.59337  0.51983  1.0000
  H   H260      1.0  0.16319  0.38568  0.96612  1.0000
  H   H261      1.0  0.24934  0.35083  0.67761  1.0000
  H   H262      1.0  0.31025  0.63607  0.66256  1.0000
  C   C258      1.0  0.99883  0.59538  0.52062  1.0000
  S   S93       1.0  0.09995  0.37198  0.99534  1.0000
  H   H263      1.0  0.08735  0.61334  0.63300  1.0000
  N   N22       1.0  0.00103  0.43205  0.51263  1.0000
  C   C259      1.0  0.00706  0.38459  0.99316  1.0000
  Fe  Fe47      1.0  0.11671  0.57171  0.99931  1.0000
  N   N23       1.0  0.10267  0.63848  0.60926  1.0000
  C   C260      1.0  0.01772  0.60259  0.50659  1.0000
  H   H264      1.0  0.31303  0.65554  0.69217  1.0000
  H   H265      1.0  0.19670  0.63381  0.96953  1.0000
  C   C261      1.0  0.19999  0.34599  0.64137  1.0000
  C   C262      1.0  0.09172  0.63237  0.58162  1.0000
  S   S94       1.0  0.13779  0.60046  0.99135  1.0000
  Fe  Fe48      1.0  0.07930  0.59690  0.50233  1.0000
  H   H266      1.0  0.00871  0.44659  0.55417  1.0000
  H   H267      1.0  0.13701  0.49143  0.99245  1.0000
  H   H268      1.0  0.06654  0.54806  0.00075  1.0000
  H   H269      1.0  0.23048  0.32745  0.71224  1.0000
  C   C263      1.0  0.14833  0.65982  0.98875  1.0000
  H   H270      1.0  0.02594  0.54781  0.50763  1.0000
  C   C264      1.0  0.11800  0.65459  0.60989  1.0000
  S   S95       1.0  0.25937  0.65893  0.72861  1.0000
  C   C265      1.0  0.12576  0.64768  0.66086  1.0000
  C   C266      1.0  0.16812  0.38457  0.50427  1.0000
  C   C267      1.0  0.12967  0.65951  0.63571  1.0000
  H   H271      1.0  0.15130  0.37765  0.50270  1.0000
  H   H272      1.0  0.17483  0.34221  0.00171  1.0000
  H   H273      1.0  0.25536  0.66948  0.29812  1.0000
  S   S96       1.0  0.40837  0.88784  0.46938  1.0000
  C   C268      1.0  0.40995  0.97964  0.05276  1.0000
  Fe  Fe49      1.0  0.37012  0.87061  0.03869  1.0000
  H   H274      1.0  0.45984  0.98489  0.49343  1.0000
  S   S97       1.0  0.35199  0.86412  0.08070  1.0000
  Fe  Fe50      1.0  0.38133  0.86400  0.47505  1.0000
  S   S98       1.0  0.37338  0.83525  0.44416  1.0000
  C   C269      1.0  0.31112  0.68417  0.17795  1.0000
  C   C270      1.0  0.33463  0.82345  0.49364  1.0000
  S   S99       1.0  0.45162  0.86681  0.04038  1.0000
  S   S100      1.0  0.39427  0.89813  0.04137  1.0000
  Fe  Fe51      1.0  0.37522  0.78023  0.21540  1.0000
  S   S101      1.0  0.39064  0.74778  0.23093  1.0000
  S   S102      1.0  0.37635  0.78352  0.16589  1.0000
  Fe  Fe52      1.0  0.36729  0.79595  0.27837  1.0000
  S   S103      1.0  0.38136  0.76435  0.29705  1.0000
  S   S104      1.0  0.35944  0.82669  0.30603  1.0000
  Fe  Fe53      1.0  0.40872  0.76787  0.26490  1.0000
  S   S105      1.0  0.44402  0.76902  0.28417  1.0000
  Fe  Fe54      1.0  0.36169  0.74720  0.26126  1.0000
  S   S106      1.0  0.34469  0.71418  0.26926  1.0000
  S   S107      1.0  0.39514  0.80006  0.24736  1.0000
  S   S108      1.0  0.34562  0.77893  0.24443  1.0000
  C   C271      1.0  0.42590  0.82894  0.13369  1.0000
  C   C272      1.0  0.29651  0.66817  0.26219  1.0000
  C   C273      1.0  0.31896  0.70136  0.26054  1.0000
  C   C274      1.0  0.30214  0.71160  0.24343  1.0000
  C   C275      1.0  0.28284  0.70011  0.23550  1.0000
  C   C276      1.0  0.27991  0.67824  0.24455  1.0000
  H   H275      1.0  0.30194  0.85462  0.45176  1.0000
  C   C277      1.0  0.31584  0.67963  0.27003  1.0000
  H   H276      1.0  0.30410  0.72828  0.23599  1.0000
  H   H277      1.0  0.27015  0.70819  0.22197  1.0000
  N   N24       1.0  0.32279  0.84241  0.48655  1.0000
  C   C278      1.0  0.35136  0.69897  0.19915  1.0000
  N   N25       1.0  0.42487  0.97893  0.03076  1.0000
  C   C279      1.0  0.46994  0.76687  0.26629  1.0000
  C   C280      1.0  0.47176  0.75934  0.23748  1.0000
  N   N26       1.0  0.33789  0.71254  0.18231  1.0000
  C   C281      1.0  0.31930  0.84860  0.45593  1.0000
  H   H278      1.0  0.45704  0.75489  0.22525  1.0000
  H   H279      1.0  0.48824  0.77807  0.30421  1.0000
  S   S109      1.0  0.38961  0.94784  0.47762  1.0000
  H   H280      1.0  0.45300  0.89790  0.47903  1.0000
  H   H281      1.0  0.40250  0.96466  0.05993  1.0000
  H   H282      1.0  0.39046  0.86403  0.16768  1.0000
  C   C282      1.0  0.19437  0.67908  0.31950  1.0000
  C   C283      1.0  0.36960  0.83353  0.40568  1.0000
  C   C284      1.0  0.36663  0.85225  0.38825  1.0000
  C   C285      1.0  0.36340  0.84986  0.35782  1.0000
  C   C286      1.0  0.36353  0.82883  0.34443  1.0000
  C   C287      1.0  0.36682  0.81016  0.36188  1.0000
  C   C288      1.0  0.36958  0.81252  0.39232  1.0000
  H   H283      1.0  0.36656  0.86853  0.39817  1.0000
  H   H284      1.0  0.36079  0.86442  0.34454  1.0000
  H   H285      1.0  0.36684  0.79388  0.35197  1.0000
  H   H286      1.0  0.37186  0.79792  0.40557  1.0000
  C   C289      1.0  0.36888  0.80605  0.14273  1.0000
  C   C290      1.0  0.35580  0.82423  0.15199  1.0000
  C   C291      1.0  0.35039  0.84165  0.13259  1.0000
  C   C292      1.0  0.35834  0.84134  0.10398  1.0000
  C   C293      1.0  0.37149  0.82319  0.09486  1.0000
  C   C294      1.0  0.37653  0.80561  0.11403  1.0000
  H   H287      1.0  0.34960  0.82473  0.17391  1.0000
  H   H288      1.0  0.34010  0.85554  0.13983  1.0000
  H   H289      1.0  0.37754  0.82255  0.07291  1.0000
  H   H290      1.0  0.38652  0.79159  0.10655  1.0000
  H   H291      1.0  0.33658  0.74203  0.15680  1.0000
  H   H292      1.0  0.32867  0.67146  0.28325  1.0000
  C   C295      1.0  0.43171  0.95773  0.01738  1.0000
  C   C296      1.0  0.35769  0.99059  0.02562  1.0000
  S   S110      1.0  0.35872  0.88914  0.49758  1.0000
  H   H293      1.0  0.40207  0.99050  0.45899  1.0000
  C   C297      1.0  0.36354  0.96932  0.01480  1.0000
  C   C298      1.0  0.22479  0.68743  0.28882  1.0000
  H   H294      1.0  0.39181  0.88310  0.12036  1.0000
  S   S111      1.0  0.25564  0.66423  0.23229  1.0000
  H   H295      1.0  0.36244  0.73633  0.17520  1.0000
  H   H296      1.0  0.36665  0.70495  0.20874  1.0000
  C   C299      1.0  0.48939  0.77233  0.28189  1.0000
  H   H297      1.0  0.43504  0.81341  0.13701  1.0000
  H   H298      1.0  0.33887  0.74603  0.19577  1.0000
  N   N27       1.0  0.42172  0.81629  0.34886  1.0000
  C   C300      1.0  0.41966  0.83423  0.36711  1.0000
  C   C301      1.0  0.42737  0.79587  0.35972  1.0000
  C   C302      1.0  0.42279  0.83187  0.39723  1.0000
  C   C303      1.0  0.43048  0.79289  0.38975  1.0000
  C   C304      1.0  0.42802  0.81102  0.40859  1.0000
  C   C305      1.0  0.41814  0.81874  0.31740  1.0000
  H   H299      1.0  0.41489  0.85037  0.35856  1.0000
  H   H300      1.0  0.42921  0.78172  0.34507  1.0000
  H   H301      1.0  0.42035  0.84596  0.41178  1.0000
  H   H302      1.0  0.43454  0.77659  0.39831  1.0000
  H   H303      1.0  0.42984  0.80895  0.43199  1.0000
  H   H304      1.0  0.43416  0.81691  0.30604  1.0000
  H   H305      1.0  0.40704  0.80578  0.30910  1.0000
  H   H306      1.0  0.40984  0.83486  0.31177  1.0000
  H   H307      1.0  0.29494  0.67881  0.17057  1.0000
  H   H308      1.0  0.43725  0.83254  0.08958  1.0000
  H   H309      1.0  0.19186  0.70194  0.28376  1.0000
  C   C306      1.0  0.40113  0.85725  0.15088  1.0000
  C   C307      1.0  0.48666  0.90485  0.46928  1.0000
  C   C308      1.0  0.42722  0.83958  0.10690  1.0000
  C   C309      1.0  0.20265  0.69072  0.29630  1.0000
  H   H310      1.0  0.41581  0.80869  0.18123  1.0000
  C   C310      1.0  0.41511  0.85929  0.10227  1.0000
  H   H311      1.0  0.41564  0.86740  0.08144  1.0000
  C   C311      1.0  0.47082  0.88277  0.02306  1.0000
  C   C312      1.0  0.23834  0.67239  0.30461  1.0000
  S   S112      1.0  0.39443  0.84554  0.02110  1.0000
  C   C313      1.0  0.40197  0.86823  0.12431  1.0000
  C   C314      1.0  0.41201  0.82674  0.18336  1.0000
  H   H312      1.0  0.23134  0.69595  0.27038  1.0000
  Fe  Fe55      1.0  0.41759  0.87332  0.02126  1.0000
  N   N28       1.0  0.41284  0.83775  0.15516  1.0000
  H   H313      1.0  0.30681  0.71651  0.15957  1.0000
  C   C315      1.0  0.31788  0.70548  0.17196  1.0000
  C   C316      1.0  0.34420  0.73531  0.17727  1.0000
  H   H314      1.0  0.39507  0.82837  0.19231  1.0000
  H   H315      1.0  0.42401  0.83400  0.19908  1.0000
  C   C317      1.0  0.38050  0.97491  0.48870  1.0000
  H   H316      1.0  0.35703  0.95484  0.02465  1.0000
  H   H317      1.0  0.13844  0.66302  0.00789  1.0000
  H   H318      1.0  0.48211  0.91532  0.45100  1.0000
  C   C318      1.0  0.32484  0.67018  0.19492  1.0000
  H   H319      1.0  0.42079  0.94422  0.02358  1.0000
  H   H320      1.0  0.34139  0.81272  0.47672  1.0000
  C   C319      1.0  0.47018  0.89491  0.48507  1.0000
  H   H321      1.0  0.34674  0.99228  0.04390  1.0000
  H   H322      1.0  0.17707  0.68114  0.32520  1.0000
  Fe  Fe56      1.0  0.38711  0.91256  0.49474  1.0000
  H   H323      1.0  0.32269  0.83440  0.44091  1.0000
  H   H324      1.0  0.33078  0.86178  0.45037  1.0000
  C   C320      1.0  0.49347  0.87797  0.02727  1.0000
  C   C321      1.0  0.49281  0.75683  0.22476  1.0000
  C   C322      1.0  0.46367  0.89931  0.00363  1.0000
  C   C323      1.0  0.34512  0.67758  0.20557  1.0000
  H   H325      1.0  0.44904  0.95308  0.02399  1.0000
  H   H326      1.0  0.49403  0.75045  0.20275  1.0000
  H   H327      1.0  0.35547  0.66726  0.21992  1.0000
  C   C324      1.0  0.20844  0.66433  0.33497  1.0000
  C   C325      1.0  0.38989  0.99323  0.47569  1.0000
  N   N29       1.0  0.23014  0.66119  0.32747  1.0000
  H   H328      1.0  0.42904  0.86676  0.58060  1.0000
  S   S113      1.0  0.40905  0.88290  0.97541  1.0000
  H   H329      1.0  0.47445  0.80638  0.76381  1.0000
  Fe  Fe57      1.0  0.37562  0.87739  0.53962  1.0000
  H   H330      1.0  0.45254  0.83339  0.56983  1.0000
  S   S114      1.0  0.35952  0.87087  0.58310  1.0000
  Fe  Fe58      1.0  0.38353  0.85699  0.97621  1.0000
  S   S115      1.0  0.38474  0.82884  0.94239  1.0000
  S   S116      1.0  0.39584  0.85103  0.51744  1.0000
  C   C326      1.0  0.37743  0.96694  0.99093  1.0000
  H   H331      1.0  0.35724  0.96488  0.52034  1.0000
  S   S117      1.0  0.40193  0.90272  0.53829  1.0000
  Fe  Fe59      1.0  0.38032  0.78027  0.71215  1.0000
  S   S118      1.0  0.39112  0.74549  0.72559  1.0000
  S   S119      1.0  0.38299  0.78717  0.66334  1.0000
  Fe  Fe60      1.0  0.37323  0.79471  0.77559  1.0000
  S   S120      1.0  0.38357  0.76139  0.79238  1.0000
  S   S121      1.0  0.36199  0.82276  0.80611  1.0000
  Fe  Fe61      1.0  0.41136  0.76248  0.76047  1.0000
  S   S122      1.0  0.44640  0.75411  0.77806  1.0000
  Fe  Fe62      1.0  0.36214  0.74733  0.75608  1.0000
  S   S123      1.0  0.33957  0.71988  0.77214  1.0000
  S   S124      1.0  0.40212  0.79686  0.74567  1.0000
  S   S125      1.0  0.35027  0.78110  0.74061  1.0000
  H   H332      1.0  0.44031  0.95227  0.51091  1.0000
  C   C327      1.0  0.46295  0.88146  0.90523  1.0000
  C   C328      1.0  0.31698  0.70342  0.75956  1.0000
  C   C329      1.0  0.30837  0.68784  0.77854  1.0000
  C   C330      1.0  0.29059  0.67443  0.76981  1.0000
  H   H333      1.0  0.34829  0.80297  0.52842  1.0000
  C   C331      1.0  0.28963  0.69190  0.72283  1.0000
  C   C332      1.0  0.30741  0.70531  0.73156  1.0000
  H   H334      1.0  0.31552  0.68615  0.80026  1.0000
  C   C333      1.0  0.31871  0.85118  0.53737  1.0000
  C   C334      1.0  0.44599  0.81785  0.61082  1.0000
  H   H335      1.0  0.31366  0.71715  0.71662  1.0000
  C   C335      1.0  0.47239  0.76148  0.72999  1.0000
  C   C336      1.0  0.47170  0.75523  0.75920  1.0000
  H   H336      1.0  0.43036  0.95878  0.99322  1.0000
  H   H337      1.0  0.47355  0.92245  0.97144  1.0000
  H   H338      1.0  0.45707  0.76483  0.71788  1.0000
  H   H339      1.0  0.46694  0.89397  0.88965  1.0000
  C   C337      1.0  0.47727  0.87692  0.92887  1.0000
  H   H340      1.0  0.48273  0.85795  0.96774  1.0000
  H   H341      1.0  0.45354  0.83765  0.98937  1.0000
  C   C338      1.0  0.48604  0.79758  0.80675  1.0000
  S   S126      1.0  0.38555  0.94066  0.97634  1.0000
  H   H342      1.0  0.12210  0.66295  0.59004  1.0000
  C   C339      1.0  0.38014  0.82887  0.90399  1.0000
  C   C340      1.0  0.36777  0.84566  0.88977  1.0000
  C   C341      1.0  0.36288  0.84384  0.85963  1.0000
  C   C342      1.0  0.37054  0.82543  0.84329  1.0000
  C   C343      1.0  0.38363  0.80906  0.85733  1.0000
  C   C344      1.0  0.38825  0.81072  0.88752  1.0000
  H   H343      1.0  0.36136  0.85970  0.90213  1.0000
  H   H344      1.0  0.35275  0.85662  0.84900  1.0000
  H   H345      1.0  0.38963  0.79479  0.84511  1.0000
  H   H346      1.0  0.39783  0.79762  0.89827  1.0000
  C   C345      1.0  0.37579  0.81060  0.64164  1.0000
  C   C346      1.0  0.36479  0.82946  0.65279  1.0000
  C   C347      1.0  0.35990  0.84776  0.63462  1.0000
  C   C348      1.0  0.36632  0.84760  0.60533  1.0000
  C   C349      1.0  0.37745  0.82877  0.59428  1.0000
  C   C350      1.0  0.38195  0.81035  0.61226  1.0000
  H   H347      1.0  0.35987  0.82989  0.67531  1.0000
  H   H348      1.0  0.35115  0.86216  0.64337  1.0000
  H   H349      1.0  0.38243  0.82829  0.57183  1.0000
  H   H350      1.0  0.39048  0.79586  0.60340  1.0000
  H   H351      1.0  0.40926  0.86965  0.62746  1.0000
  C   C351      1.0  0.49179  0.75067  0.77451  1.0000
  H   H352      1.0  0.49333  0.76754  0.69361  1.0000
  H   H353      1.0  0.11366  0.68579  0.97929  1.0000
  S   S127      1.0  0.45576  0.86767  0.52763  1.0000
  C   C352      1.0  0.41860  0.97173  0.53844  1.0000
  N   N30       1.0  0.32762  0.77755  0.83241  1.0000
  C   C353      1.0  0.33869  0.75862  0.84135  1.0000
  C   C354      1.0  0.32550  0.79533  0.85087  1.0000
  C   C355      1.0  0.34829  0.75731  0.86935  1.0000
  C   C356      1.0  0.33460  0.79447  0.87916  1.0000
  C   C357      1.0  0.34618  0.77538  0.88835  1.0000
  C   C358      1.0  0.31745  0.77884  0.80316  1.0000
  H   H354      1.0  0.34044  0.74450  0.82669  1.0000
  H   H355      1.0  0.31731  0.81056  0.84344  1.0000
  H   H356      1.0  0.35750  0.74246  0.87608  1.0000
  H   H357      1.0  0.33345  0.80885  0.89346  1.0000
  H   H358      1.0  0.35392  0.77485  0.90993  1.0000
  C   C359      1.0  0.44655  0.98709  0.50882  1.0000
  C   C360      1.0  0.28104  0.67631  0.74179  1.0000
  C   C361      1.0  0.42239  0.83809  0.64294  1.0000
  N   N31       1.0  0.43521  0.81962  0.63668  1.0000
  C   C362      1.0  0.43721  0.80127  0.65728  1.0000
  C   C363      1.0  0.43093  0.85364  0.59650  1.0000
  H   H359      1.0  0.41330  0.83927  0.66303  1.0000
  C   C364      1.0  0.47166  0.86111  0.94918  1.0000
  H   H360      1.0  0.14664  0.66643  0.91616  1.0000
  C   C365      1.0  0.33862  0.81782  0.52283  1.0000
  H   H361      1.0  0.45486  0.79764  0.66333  1.0000
  C   C366      1.0  0.48887  0.80475  0.77825  1.0000
  H   H362      1.0  0.32251  0.79409  0.79219  1.0000
  C   C367      1.0  0.49295  0.76309  0.71634  1.0000
  C   C368      1.0  0.42004  0.85536  0.62293  1.0000
  N   N32       1.0  0.45230  0.85017  0.94602  1.0000
  C   C369      1.0  0.43853  0.85401  0.92238  1.0000
  H   H363      1.0  0.28245  0.69367  0.70114  1.0000
  C   C370      1.0  0.44348  0.86987  0.90184  1.0000
  H   H364      1.0  0.42999  0.78625  0.64728  1.0000
  Fe  Fe63      1.0  0.38344  0.90611  0.99548  1.0000
  H   H365      1.0  0.42798  0.80485  0.67759  1.0000
  H   H366      1.0  0.42342  0.84505  0.91952  1.0000
  H   H367      1.0  0.45604  0.80318  0.60578  1.0000
  H   H368      1.0  0.43215  0.87321  0.88357  1.0000
  C   C371      1.0  0.33044  0.83173  0.54477  1.0000
  S   S128      1.0  0.35686  0.88049  0.99368  1.0000
  H   H369      1.0  0.46967  0.79351  0.81392  1.0000
  H   H370      1.0  0.33362  0.82777  0.56752  1.0000
  H   H371      1.0  0.39607  0.98437  0.95956  1.0000
  H   H372      1.0  0.29912  0.77908  0.80455  1.0000
  C   C372      1.0  0.15305  0.66193  0.93767  1.0000
  H   H373      1.0  0.45349  0.81702  0.96045  1.0000
  H   H374      1.0  0.32262  0.76452  0.78922  1.0000
  C   C373      1.0  0.44404  0.83483  0.59040  1.0000
  H   H375      1.0  0.11944  0.69108  0.94187  1.0000
  H   H376      1.0  0.40964  0.95759  0.54552  1.0000
  H   H377      1.0  0.10658  0.66583  0.95146  1.0000
  H   H378      1.0  0.49144  0.74566  0.79703  1.0000
  C   C374      1.0  0.47913  0.91017  0.98717  1.0000
  C   C375      1.0  0.38549  0.98602  0.97821  1.0000
  H   H379      1.0  0.30635  0.87174  0.50241  1.0000
  Fe  Fe64      1.0  0.42098  0.87685  0.51329  1.0000
  C   C376      1.0  0.44678  0.83349  0.96733  1.0000
  C   C377      1.0  0.31502  0.85631  0.50798  1.0000
  H   H380      1.0  0.31315  0.86251  0.55441  1.0000
  C   C378      1.0  0.11907  0.67795  0.95853  1.0000
  C   C379      1.0  0.36470  0.97873  0.51018  1.0000
  H   H381      1.0  0.42852  0.83261  0.96945  1.0000
  H   H382      1.0  0.14247  0.67162  0.63582  1.0000
  N   N33       1.0  0.14086  0.66666  0.96184  1.0000
  H   H383      1.0  0.28431  0.66261  0.78476  1.0000
  C   C380      1.0  0.43577  0.96875  0.51884  1.0000
  C   C381      1.0  0.47604  0.88107  0.50841  1.0000
  H   H384      1.0  0.44624  0.90353  0.00091  1.0000
  H   H385      1.0  0.49247  0.88583  0.93174  1.0000
  C   C382      1.0  0.41208  0.99313  0.54728  1.0000
  Fe  Fe65      1.0  0.59896  0.12592  0.02908  1.0000
  H   H386      1.0  0.49909  0.06253  0.45027  1.0000
  S   S129      1.0  0.60748  0.12855  0.07767  1.0000
  H   H387      1.0  0.67730  0.10504  0.42082  1.0000
  S   S130      1.0  0.57324  0.11695  0.45578  1.0000
  H   H388      1.0  0.90842  0.30238  0.50018  1.0000
  Fe  Fe66      1.0  0.60356  0.13673  0.46333  1.0000
  S   S131      1.0  0.62212  0.15495  0.42852  1.0000
  Fe  Fe67      1.0  0.58905  0.09193  0.48682  1.0000
  H   H389      1.0  0.65341  0.13512  0.04594  1.0000
  C   C383      1.0  0.66460  0.32235  0.27432  1.0000
  N   N34       1.0  0.53359  0.13832  0.07099  1.0000
  Fe  Fe68      1.0  0.59724  0.21260  0.27032  1.0000
  S   S132      1.0  0.58646  0.24794  0.27915  1.0000
  S   S133      1.0  0.58798  0.18521  0.30149  1.0000
  Fe  Fe69      1.0  0.60650  0.22215  0.20574  1.0000
  S   S134      1.0  0.59610  0.25806  0.21116  1.0000
  S   S135      1.0  0.61564  0.21327  0.15873  1.0000
  Fe  Fe70      1.0  0.61623  0.25740  0.25298  1.0000
  S   S136      1.0  0.63605  0.28748  0.26948  1.0000
  Fe  Fe71      1.0  0.56766  0.24580  0.23653  1.0000
  S   S137      1.0  0.53255  0.25779  0.22397  1.0000
  S   S138      1.0  0.62827  0.22177  0.24673  1.0000
  S   S139      1.0  0.57689  0.21025  0.22849  1.0000
  C   C384      1.0  0.61229  0.02721  0.50037  1.0000
  C   C385      1.0  0.50842  0.25372  0.24416  1.0000
  H   H390      1.0  0.56066  0.11732  0.08565  1.0000
  H   H391      1.0  0.52543  0.24709  0.28501  1.0000
  H   H392      1.0  0.66027  0.12674  0.40451  1.0000
  C   C386      1.0  0.57954  0.30327  0.28268  1.0000
  H   H393      1.0  0.53697  0.08619  0.09686  1.0000
  H   H394      1.0  0.62599  0.05038  0.44546  1.0000
  C   C387      1.0  0.65841  0.30380  0.25753  1.0000
  C   C388      1.0  0.67026  0.29883  0.23227  1.0000
  H   H395      1.0  0.49605  0.18745  0.30955  1.0000
  C   C389      1.0  0.58125  0.30933  0.25362  1.0000
  H   H396      1.0  0.66587  0.28469  0.21904  1.0000
  H   H397      1.0  0.53103  0.19146  0.28259  1.0000
  C   C390      1.0  0.61147  0.16454  0.39421  1.0000
  C   C391      1.0  0.62386  0.17925  0.37818  1.0000
  C   C392      1.0  0.61667  0.18628  0.35016  1.0000
  C   C393      1.0  0.59717  0.17829  0.33756  1.0000
  C   C394      1.0  0.58483  0.16351  0.35358  1.0000
  C   C395      1.0  0.59179  0.15683  0.38181  1.0000
  H   H398      1.0  0.63916  0.18526  0.38747  1.0000
  H   H399      1.0  0.62642  0.19753  0.33811  1.0000
  H   H400      1.0  0.56977  0.15717  0.34403  1.0000
  H   H401      1.0  0.58211  0.14546  0.39375  1.0000
  C   C396      1.0  0.60491  0.15251  0.10019  1.0000
  C   C397      1.0  0.60649  0.15018  0.13063  1.0000
  C   C398      1.0  0.60778  0.16883  0.14918  1.0000
  C   C399      1.0  0.60788  0.19003  0.13740  1.0000
  C   C400      1.0  0.60530  0.19237  0.10702  1.0000
  C   C401      1.0  0.60355  0.17376  0.08851  1.0000
  H   H402      1.0  0.60759  0.13383  0.13991  1.0000
  H   H403      1.0  0.61004  0.16674  0.17246  1.0000
  H   H404      1.0  0.60553  0.20869  0.09768  1.0000
  H   H405      1.0  0.60236  0.17587  0.06516  1.0000
  C   C402      1.0  0.50949  0.24882  0.27385  1.0000
  N   N35       1.0  0.65680  0.16328  0.07433  1.0000
  C   C403      1.0  0.68796  0.31205  0.22415  1.0000
  C   C404      1.0  0.64327  0.07970  0.43435  1.0000
  C   C405      1.0  0.51503  0.19284  0.27122  1.0000
  H   H406      1.0  0.66283  0.19004  0.15085  1.0000
  C   C406      1.0  0.53987  0.30192  0.27577  1.0000
  H   H407      1.0  0.52446  0.30489  0.20666  1.0000
  H   H408      1.0  0.72256  0.30161  0.27387  1.0000
  H   H409      1.0  0.50744  0.30289  0.23752  1.0000
  C   C407      1.0  0.62591  0.06507  0.43210  1.0000
  C   C408      1.0  0.49545  0.19052  0.28631  1.0000
  H   H410      1.0  0.59441  0.30104  0.29628  1.0000
  C   C409      1.0  0.66155  0.15955  0.12622  1.0000
  H   H411      1.0  0.65760  0.13239  0.09638  1.0000
  C   C410      1.0  0.65991  0.19569  0.10465  1.0000
  N   N36       1.0  0.54169  0.30807  0.24734  1.0000
  H   H412      1.0  0.65934  0.21354  0.10708  1.0000
  H   H413      1.0  0.54795  0.16875  0.08246  1.0000
  H   H414      1.0  0.88334  0.31939  0.49714  1.0000
  H   H415      1.0  0.49948  0.07478  0.01717  1.0000
  S   S140      1.0  0.57022  0.10449  0.01879  1.0000
  C   C411      1.0  0.72056  0.31729  0.31615  1.0000
  H   H416      1.0  0.52379  0.29858  0.28449  1.0000
  C   C412      1.0  0.54283  0.11919  0.08219  1.0000
  H   H417      1.0  0.65684  0.07616  0.44968  1.0000
  N   N37       1.0  0.64289  0.09847  0.41801  1.0000
  C   C413      1.0  0.60764  0.08912  0.39681  1.0000
  H   H418      1.0  0.65516  0.19618  0.05815  1.0000
  H   H419      1.0  0.75964  0.31592  0.26411  1.0000
  C   C414      1.0  0.60796  0.06989  0.41328  1.0000
  C   C415      1.0  0.51393  0.19759  0.24155  1.0000
  C   C416      1.0  0.66092  0.11391  0.42172  1.0000
  C   C417      1.0  0.75184  0.31953  0.28476  1.0000
  C   C418      1.0  0.58150  0.01090  0.47466  1.0000
  H   H420      1.0  0.63626  0.15880  0.03678  1.0000
  H   H421      1.0  0.65939  0.12269  0.44303  1.0000
  C   C419      1.0  0.66193  0.18246  0.12930  1.0000
  C   C420      1.0  0.49632  0.11849  0.44490  1.0000
  C   C421      1.0  0.65295  0.15348  0.04536  1.0000
  C   C422      1.0  0.50552  0.09695  0.44447  1.0000
  H   H422      1.0  0.61663  0.04132  0.01108  1.0000
  H   H423      1.0  0.66569  0.15866  0.03002  1.0000
  H   H424      1.0  0.59412  0.05892  0.41206  1.0000
  C   C423      1.0  0.54768  0.15666  0.06410  1.0000
  H   H425      1.0  0.50706  0.13221  0.44170  1.0000
  C   C424      1.0  0.52173  0.31169  0.22895  1.0000
  H   H426      1.0  0.62484  0.11836  0.38682  1.0000
  C   C425      1.0  0.65737  0.18577  0.07714  1.0000
  C   C426      1.0  0.61527  0.00560  0.01203  1.0000
  C   C427      1.0  0.59244  0.02988  0.48422  1.0000
  H   H427      1.0  0.59358  0.09327  0.38253  1.0000
  H   H428      1.0  0.52312  0.09409  0.44107  1.0000
  C   C428      1.0  0.65891  0.15016  0.09841  1.0000
  H   H429      1.0  0.54161  0.16505  0.04384  1.0000
  H   H430      1.0  0.66231  0.14918  0.14536  1.0000
  C   C429      1.0  0.62538  0.10328  0.39940  1.0000
  S   S141      1.0  0.62070  0.11057  0.49170  1.0000
  H   H431      1.0  0.56618  0.01270  0.46209  1.0000
  S   S142      1.0  0.58103  0.05634  0.47412  1.0000
  C   C430      1.0  0.55876  0.29938  0.29384  1.0000
  H   H432      1.0  0.56496  0.15072  0.06017  1.0000
  C   C431      1.0  0.52951  0.10155  0.08875  1.0000
  Fe  Fe72      1.0  0.56088  0.13398  0.49605  1.0000
  H   H433      1.0  0.69700  0.30779  0.20469  1.0000
  S   S143      1.0  0.52654  0.14874  0.50036  1.0000
  C   C432      1.0  0.50658  0.10382  0.08450  1.0000
  H   H434      1.0  0.52900  0.20015  0.22981  1.0000
  H   H435      1.0  0.55735  0.29409  0.31620  1.0000
  C   C433      1.0  0.51110  0.14082  0.06721  1.0000
  H   H436      1.0  0.70403  0.31169  0.32006  1.0000
  S   S144      1.0  0.58981  0.15585  0.50160  1.0000
  C   C434      1.0  0.73096  0.31161  0.29018  1.0000
  H   H437      1.0  0.65564  0.32652  0.29386  1.0000
  C   C435      1.0  0.56204  0.31169  0.23616  1.0000
  H   H438      1.0  0.59745  0.31183  0.24464  1.0000
  H   H439      1.0  0.62818  0.00383  0.02864  1.0000
  H   H440      1.0  0.50380  0.15595  0.05819  1.0000
  H   H441      1.0  0.56353  0.31618  0.21351  1.0000
  C   C436      1.0  0.49727  0.12367  0.07403  1.0000
  C   C437      1.0  0.51048  0.10625  0.00308  1.0000
  H   H442      1.0  0.49601  0.09019  0.08897  1.0000
  C   C438      1.0  0.60874  0.02692  0.00212  1.0000
  Fe  Fe73      1.0  0.60430  0.12863  0.52950  1.0000
  H   H443      1.0  0.53928  0.13285  0.56359  1.0000
  S   S145      1.0  0.61970  0.13395  0.57485  1.0000
  H   H444      1.0  0.76460  0.31301  0.77993  1.0000
  S   S146      1.0  0.57578  0.11736  0.94990  1.0000
  H   H445      1.0  0.57369  0.19488  0.80560  1.0000
  Fe  Fe74      1.0  0.60427  0.13778  0.96452  1.0000
  S   S147      1.0  0.62014  0.16381  0.93700  1.0000
  C   C439      1.0  0.66186  0.32068  0.75571  1.0000
  H   H446      1.0  0.71407  0.28459  0.73851  1.0000
  C   C440      1.0  0.50499  0.24586  0.74305  1.0000
  S   S148      1.0  0.57419  0.10794  0.52656  1.0000
  Fe  Fe75      1.0  0.61154  0.20385  0.77173  1.0000
  S   S149      1.0  0.59983  0.23599  0.79160  1.0000
  S   S150      1.0  0.61972  0.17288  0.79831  1.0000
  Fe  Fe76      1.0  0.59853  0.21862  0.70964  1.0000
  S   S151      1.0  0.58503  0.25150  0.72637  1.0000
  S   S152      1.0  0.59319  0.21387  0.66051  1.0000
  Fe  Fe77      1.0  0.61654  0.25219  0.75402  1.0000
  S   S153      1.0  0.63328  0.28600  0.75747  1.0000
  Fe  Fe78      1.0  0.56970  0.23248  0.76212  1.0000
  S   S154      1.0  0.53648  0.23218  0.78514  1.0000
  S   S155      1.0  0.63054  0.21993  0.73584  1.0000
  S   S156      1.0  0.58102  0.19983  0.74340  1.0000
  S   S157      1.0  0.61996  0.11088  0.99317  1.0000
  C   C441      1.0  0.50916  0.23653  0.77048  1.0000
  C   C442      1.0  0.50436  0.12816  0.99681  1.0000
  H   H447      1.0  0.55863  0.15415  0.55677  1.0000
  H   H448      1.0  0.51872  0.25037  0.72989  1.0000
  C   C443      1.0  0.51384  0.10713  0.51391  1.0000
  H   H449      1.0  0.72308  0.30628  0.80030  1.0000
  H   H450      1.0  0.56993  0.01224  0.95155  1.0000
  C   C444      1.0  0.65998  0.29757  0.75356  1.0000
  C   C445      1.0  0.67908  0.28469  0.74752  1.0000
  C   C446      1.0  0.61796  0.29926  0.68721  1.0000
  H   H451      1.0  0.56698  0.23660  0.89184  1.0000
  H   H452      1.0  0.67806  0.26692  0.74587  1.0000
  C   C447      1.0  0.69952  0.29481  0.74329  1.0000
  C   C448      1.0  0.61918  0.16603  0.89837  1.0000
  C   C449      1.0  0.62217  0.18675  0.88572  1.0000
  C   C450      1.0  0.62167  0.18926  0.85519  1.0000
  C   C451      1.0  0.61890  0.17090  0.83689  1.0000
  C   C452      1.0  0.61592  0.15018  0.84953  1.0000
  C   C453      1.0  0.61572  0.14779  0.88008  1.0000
  H   H453      1.0  0.62494  0.20095  0.89964  1.0000
  H   H454      1.0  0.62418  0.20527  0.84582  1.0000
  H   H455      1.0  0.61394  0.13584  0.83559  1.0000
  H   H456      1.0  0.61358  0.13171  0.88945  1.0000
  C   C454      1.0  0.61371  0.15716  0.59777  1.0000
  C   C455      1.0  0.62193  0.15725  0.62673  1.0000
  C   C456      1.0  0.61620  0.17464  0.64619  1.0000
  C   C457      1.0  0.60234  0.19225  0.63673  1.0000
  C   C458      1.0  0.59472  0.19250  0.60753  1.0000
  C   C459      1.0  0.60026  0.17503  0.58820  1.0000
  H   H457      1.0  0.63246  0.14357  0.63431  1.0000
  H   H458      1.0  0.62230  0.17425  0.66853  1.0000
  H   H459      1.0  0.58416  0.20613  0.59989  1.0000
  H   H460      1.0  0.59409  0.17540  0.56591  1.0000
  H   H461      1.0  0.52728  0.10025  0.00022  1.0000
  C   C460      1.0  0.62115  0.00580  0.50647  1.0000
  H   H462      1.0  0.60402  0.29230  0.69908  1.0000
  H   H463      1.0  0.63816  0.22861  0.65744  1.0000
  C   C461      1.0  0.56330  0.18419  0.81872  1.0000
  C   C462      1.0  0.56573  0.17488  0.87066  1.0000
  C   C463      1.0  0.59244  0.02949  0.98012  1.0000
  C   C464      1.0  0.56475  0.21259  0.85690  1.0000
  H   H464      1.0  0.56974  0.16699  0.81504  1.0000
  N   N38       1.0  0.56482  0.19065  0.84951  1.0000
  N   N39       1.0  0.63462  0.28189  0.68041  1.0000
  C   C465      1.0  0.65667  0.28631  0.68212  1.0000
  C   C466      1.0  0.62794  0.26157  0.67120  1.0000
  C   C467      1.0  0.67274  0.26988  0.67565  1.0000
  C   C468      1.0  0.64355  0.24479  0.66440  1.0000
  C   C469      1.0  0.66609  0.24897  0.66686  1.0000
  C   C470      1.0  0.72660  0.32161  0.81165  1.0000
  H   H465      1.0  0.62497  0.31206  0.70198  1.0000
  C   C471      1.0  0.49816  0.09191  0.52183  1.0000
  C   C472      1.0  0.58254  0.01048  0.96858  1.0000
  H   H466      1.0  0.54589  0.18603  0.81057  1.0000
  H   H467      1.0  0.66201  0.30246  0.68922  1.0000
  H   H468      1.0  0.76514  0.29674  0.81279  1.0000
  C   C473      1.0  0.49956  0.08348  0.93933  1.0000
  H   H469      1.0  0.67834  0.23600  0.66196  1.0000
  H   H470      1.0  0.50241  0.07440  0.52139  1.0000
  Fe  Fe79      1.0  0.58974  0.09127  0.98098  1.0000
  H   H471      1.0  0.56993  0.20798  0.93057  1.0000
  C   C474      1.0  0.70138  0.31793  0.74532  1.0000
  H   H472      1.0  0.52998  0.10124  0.50702  1.0000
  H   H473      1.0  0.53132  0.16115  0.56967  1.0000
  H   H474      1.0  0.56602  0.15749  0.86481  1.0000
  H   H475      1.0  0.56901  0.16834  0.91681  1.0000
  H   H476      1.0  0.62095  0.04160  0.50789  1.0000
  H   H477      1.0  0.61045  0.25816  0.66922  1.0000
  Fe  Fe80      1.0  0.55869  0.13160  0.98877  1.0000
  H   H478      1.0  0.50975  0.11570  0.92684  1.0000
  C   C475      1.0  0.56651  0.21920  0.88614  1.0000
  S   S158      1.0  0.58446  0.05573  0.96522  1.0000
  C   C476      1.0  0.56733  0.18091  0.90012  1.0000
  H   H479      1.0  0.56361  0.22507  0.84005  1.0000
  C   C477      1.0  0.56798  0.20320  0.90783  1.0000
  N   N40       1.0  0.55433  0.14714  0.60138  1.0000
  C   C478      1.0  0.56778  0.12933  0.60874  1.0000
  C   C479      1.0  0.55023  0.16374  0.62121  1.0000
  C   C480      1.0  0.57713  0.12754  0.63682  1.0000
  C   C481      1.0  0.55931  0.16249  0.64950  1.0000
  C   C482      1.0  0.57280  0.14423  0.65731  1.0000
  C   C483      1.0  0.54546  0.14897  0.57149  1.0000
  H   H480      1.0  0.57202  0.11677  0.59257  1.0000
  H   H481      1.0  0.54050  0.17838  0.61498  1.0000
  H   H482      1.0  0.58843  0.11379  0.64216  1.0000
  H   H483      1.0  0.55681  0.17610  0.66480  1.0000
  H   H484      1.0  0.58066  0.14350  0.67880  1.0000
  H   H485      1.0  0.69022  0.27335  0.67781  1.0000
  H   H486      1.0  0.61155  0.30716  0.66686  1.0000
  C   C484      1.0  0.50807  0.12969  0.51318  1.0000
  H   H487      1.0  0.78261  0.32004  0.81010  1.0000
  C   C485      1.0  0.76603  0.31372  0.80414  1.0000
  S   S159      1.0  0.52419  0.14656  0.98613  1.0000
  H   H488      1.0  0.63664  0.00392  0.51865  1.0000
  H   H489      1.0  0.51636  0.07647  0.94086  1.0000
  S   S160      1.0  0.58590  0.15393  0.00170  1.0000
  C   C486      1.0  0.49584  0.10547  0.93129  1.0000
  C   C487      1.0  0.90144  0.31952  0.50206  1.0000
  Fe  Fe81      1.0  0.87215  0.59770  0.02474  1.0000
  C   C488      1.0  0.76217  0.38893  0.11435  1.0000
  S   S161      1.0  0.86141  0.58918  0.07072  1.0000
  H   H490      1.0  0.82453  0.51225  0.06682  1.0000
  S   S162      1.0  0.89735  0.59391  0.44724  1.0000
  H   H491      1.0  0.87024  0.64158  0.37056  1.0000
  Fe  Fe82      1.0  0.86576  0.60836  0.46484  1.0000
  S   S163      1.0  0.83999  0.62630  0.43556  1.0000
  H   H492      1.0  0.69582  0.60887  0.20406  1.0000
  C   C489      1.0  0.90562  0.49028  0.47771  1.0000
  C   C490      1.0  0.68815  0.57212  0.25774  1.0000
  S   S164      1.0  0.93494  0.36861  0.48165  1.0000
  H   H493      1.0  0.68397  0.57152  0.28057  1.0000
  S   S165      1.0  0.87768  0.41607  0.03880  1.0000
  C   C491      1.0  0.88563  0.51440  0.04478  1.0000
  Fe  Fe83      1.0  0.85755  0.40272  0.47506  1.0000
  C   C492      1.0  0.90609  0.62512  0.07560  1.0000
  S   S166      1.0  0.83466  0.41564  0.43807  1.0000
  Fe  Fe84      1.0  0.86021  0.38422  0.03414  1.0000
  S   S167      1.0  0.84823  0.36605  0.07379  1.0000
  C   C493      1.0  0.91519  0.60618  0.08889  1.0000
  H   H494      1.0  0.83986  0.54793  0.05280  1.0000
  H   H495      1.0  0.96647  0.58296  0.43173  1.0000
  S   S168      1.0  0.89154  0.41635  0.48016  1.0000
  Fe  Fe85      1.0  0.78128  0.38748  0.28082  1.0000
  S   S169      1.0  0.74471  0.39234  0.28830  1.0000
  S   S170      1.0  0.80576  0.37325  0.31511  1.0000
  Fe  Fe86      1.0  0.77660  0.40096  0.21622  1.0000
  S   S171      1.0  0.73972  0.40696  0.21973  1.0000
  S   S172      1.0  0.79090  0.41239  0.17343  1.0000
  Fe  Fe87      1.0  0.74813  0.42371  0.26235  1.0000
  S   S173      1.0  0.73548  0.45755  0.27839  1.0000
  Fe  Fe88      1.0  0.73936  0.37502  0.24489  1.0000
  C   C494      1.0  0.78513  0.35337  0.08935  1.0000
  S   S174      1.0  0.78488  0.41953  0.25759  1.0000
  S   S175      1.0  0.77607  0.36822  0.23884  1.0000
  Fe  Fe89      1.0  0.78289  0.60759  0.27188  1.0000
  S   S176      1.0  0.74746  0.59668  0.26770  1.0000
  S   S177      1.0  0.80548  0.59467  0.30942  1.0000
  Fe  Fe90      1.0  0.78395  0.62073  0.20680  1.0000
  S   S178      1.0  0.74908  0.61022  0.19919  1.0000
  S   S179      1.0  0.80180  0.63606  0.16883  1.0000
  Fe  Fe91      1.0  0.74076  0.62795  0.24131  1.0000
  H   H496      1.0  0.80942  0.64637  0.39375  1.0000
  Fe  Fe92      1.0  0.75847  0.58040  0.22611  1.0000
  S   S180      1.0  0.75258  0.54565  0.20873  1.0000
  S   S181      1.0  0.77569  0.63990  0.24808  1.0000
  S   S182      1.0  0.79383  0.58990  0.23083  1.0000
  C   C495      1.0  0.91976  0.63888  0.06051  1.0000
  C   C496      1.0  0.74026  0.48196  0.25886  1.0000
  C   C497      1.0  0.73718  0.50269  0.27264  1.0000
  C   C498      1.0  0.74143  0.52237  0.25791  1.0000
  C   C499      1.0  0.74810  0.52149  0.22892  1.0000
  C   C500      1.0  0.75075  0.50081  0.21502  1.0000
  C   C501      1.0  0.74720  0.48113  0.23001  1.0000
  H   H497      1.0  0.73178  0.50346  0.29494  1.0000
  H   H498      1.0  0.73929  0.53818  0.26884  1.0000
  H   H499      1.0  0.75582  0.49996  0.19256  1.0000
  H   H500      1.0  0.74958  0.46532  0.21912  1.0000
  H   H501      1.0  0.91282  0.65343  0.04961  1.0000
  C   C502      1.0  0.83468  0.37981  0.10309  1.0000
  C   C503      1.0  0.82932  0.36776  0.12785  1.0000
  C   C504      1.0  0.81668  0.37765  0.15028  1.0000
  C   C505      1.0  0.80926  0.39972  0.14807  1.0000
  C   C506      1.0  0.81522  0.41193  0.12375  1.0000
  C   C507      1.0  0.82787  0.40207  0.10138  1.0000
  H   H502      1.0  0.83463  0.35056  0.12942  1.0000
  H   H503      1.0  0.81235  0.36810  0.16895  1.0000
  H   H504      1.0  0.80957  0.42901  0.12187  1.0000
  H   H505      1.0  0.83186  0.41152  0.08246  1.0000
  C   C508      1.0  0.82676  0.40331  0.40414  1.0000
  C   C509      1.0  0.81151  0.41483  0.38567  1.0000
  C   C510      1.0  0.80491  0.40592  0.35841  1.0000
  C   C511      1.0  0.81359  0.38536  0.34919  1.0000
  C   C512      1.0  0.82876  0.37379  0.36770  1.0000
  C   C513      1.0  0.83532  0.38268  0.39501  1.0000
  H   H506      1.0  0.80472  0.43077  0.39251  1.0000
  H   H507      1.0  0.79319  0.41501  0.34450  1.0000
  H   H508      1.0  0.83560  0.35789  0.36081  1.0000
  H   H509      1.0  0.84708  0.37362  0.40888  1.0000
  H   H510      1.0  0.97813  0.36257  0.45743  1.0000
  H   H511      1.0  0.86983  0.47740  0.41449  1.0000
  H   H512      1.0  0.70313  0.59107  0.15938  1.0000
  S   S183      1.0  0.90667  0.58461  0.01523  1.0000
  C   C514      1.0  0.97436  0.61593  0.48691  1.0000
  C   C515      1.0  0.83041  0.61724  0.40059  1.0000
  C   C516      1.0  0.83781  0.59716  0.38831  1.0000
  C   C517      1.0  0.83005  0.59070  0.36038  1.0000
  C   C518      1.0  0.81485  0.60420  0.34428  1.0000
  C   C519      1.0  0.80757  0.62437  0.35647  1.0000
  C   C520      1.0  0.81532  0.63082  0.38446  1.0000
  H   H513      1.0  0.84941  0.58653  0.40038  1.0000
  H   H514      1.0  0.83588  0.57511  0.35117  1.0000
  H   H515      1.0  0.78112  0.34676  0.35556  1.0000
  C   C521      1.0  0.84377  0.60237  0.09675  1.0000
  C   C522      1.0  0.83641  0.62445  0.09437  1.0000
  C   C523      1.0  0.82347  0.63441  0.11651  1.0000
  C   C524      1.0  0.81740  0.62239  0.14102  1.0000
  C   C525      1.0  0.82448  0.60021  0.14311  1.0000
  C   C526      1.0  0.83773  0.59035  0.12124  1.0000
  H   H516      1.0  0.84086  0.63395  0.07572  1.0000
  H   H517      1.0  0.81810  0.65158  0.11466  1.0000
  H   H518      1.0  0.82007  0.59077  0.16185  1.0000
  H   H519      1.0  0.84337  0.57330  0.12342  1.0000
  N   N41       1.0  0.69967  0.57383  0.19951  1.0000
  C   C527      1.0  0.78381  0.37356  0.07499  1.0000
  H   H520      1.0  0.90759  0.45664  0.49172  1.0000
  C   C528      1.0  0.90016  0.51213  0.48546  1.0000
  H   H521      1.0  0.76702  0.36994  0.17401  1.0000
  H   H522      1.0  0.99120  0.63415  0.45449  1.0000
  C   C529      1.0  0.84174  0.51273  0.06071  1.0000
  H   H523      1.0  0.93091  0.37548  0.06198  1.0000
  C   C530      1.0  0.69312  0.55268  0.24228  1.0000
  C   C531      1.0  0.68894  0.59241  0.24379  1.0000
  C   C532      1.0  0.98281  0.41298  0.01460  1.0000
  H   H524      1.0  0.90890  0.32983  0.48520  1.0000
  S   S184      1.0  0.88589  0.36901  0.00410  1.0000
  C   C533      1.0  0.99474  0.42177  0.46249  1.0000
  N   N42       1.0  0.96427  0.36282  0.05657  1.0000
  C   C534      1.0  0.88400  0.63659  0.38591  1.0000
  C   C535      1.0  0.95510  0.55899  0.46172  1.0000
  C   C536      1.0  0.77478  0.35138  0.11613  1.0000
  C   C537      1.0  0.96137  0.54361  0.48301  1.0000
  N   N43       1.0  0.88609  0.65227  0.41030  1.0000
  C   C538      1.0  0.93791  0.60122  0.08678  1.0000
  C   C539      1.0  0.94246  0.63357  0.05912  1.0000
  H   H525      1.0  0.84801  0.45000  0.47855  1.0000
  S   S185      1.0  0.71767  0.34582  0.23022  1.0000
  C   C540      1.0  0.70677  0.57461  0.16921  1.0000
  H   H526      1.0  0.96191  0.39354  0.07967  1.0000
  C   C541      1.0  0.87232  0.53368  0.04473  1.0000
  H   H527      1.0  0.88692  0.47947  0.05216  1.0000
  Fe  Fe93      1.0  0.90201  0.40201  0.00630  1.0000
  H   H528      1.0  0.82852  0.47137  0.05999  1.0000
  S   S186      1.0  0.88365  0.62653  0.50128  1.0000
  C   C542      1.0  0.85026  0.53292  0.05282  1.0000
  C   C543      1.0  0.84700  0.46788  0.47875  1.0000
  C   C544      1.0  0.68223  0.33565  0.26611  1.0000
  H   H529      1.0  0.96064  0.41709  0.44947  1.0000
  H   H530      1.0  0.86962  0.45214  0.43432  1.0000
  S   S187      1.0  0.90043  0.53253  0.45891  1.0000
  S   S188      1.0  0.85881  0.57895  0.49245  1.0000
  H   H531      1.0  0.84467  0.46189  0.41578  1.0000
  N   N44       1.0  0.85257  0.47935  0.45467  1.0000
  N   N45       1.0  0.95121  0.61482  0.07195  1.0000
  C   C545      1.0  0.98045  0.36729  0.48007  1.0000
  H   H532      1.0  0.79585  0.63491  0.34445  1.0000
  H   H533      1.0  0.94483  0.58636  0.09695  1.0000
  C   C546      1.0  0.73140  0.33068  0.33659  1.0000
  H   H534      1.0  0.69300  0.53680  0.25299  1.0000
  Fe  Fe94      1.0  0.90252  0.38355  0.49868  1.0000
  C   C547      1.0  0.69483  0.59297  0.21452  1.0000
  H   H535      1.0  0.74729  0.35034  0.16036  1.0000
  H   H536      1.0  0.85540  0.45851  0.06074  1.0000
  H   H537      1.0  0.79500  0.33971  0.08040  1.0000
  H   H538      1.0  0.91832  0.63969  0.42309  1.0000
  H   H539      1.0  0.93471  0.34588  0.06401  1.0000
  H   H540      1.0  0.74011  0.37925  0.16058  1.0000
  H   H541      1.0  0.89953  0.63535  0.37342  1.0000
  C   C548      1.0  0.69889  0.55386  0.21301  1.0000
  H   H542      1.0  0.70350  0.53874  0.20141  1.0000
  C   C549      1.0  0.97282  0.38051  0.07121  1.0000
  H   H543      1.0  0.90261  0.51479  0.03760  1.0000
  S   S189      1.0  0.94754  0.62456  0.47359  1.0000
  N   N46       1.0  0.76333  0.36900  0.12815  1.0000
  H   H544      1.0  0.87897  0.54915  0.03802  1.0000
  C   C550      1.0  0.90317  0.47336  0.49774  1.0000
  C   C551      1.0  0.90486  0.65149  0.42761  1.0000
  H   H545      1.0  0.88030  0.62005  0.39440  1.0000
  N   N47       1.0  0.85483  0.49382  0.06038  1.0000
  N   N48       1.0  0.79046  0.52790  0.29935  1.0000
  C   C552      1.0  0.79774  0.53722  0.27449  1.0000
  C   C553      1.0  0.78821  0.50553  0.30081  1.0000
  C   C554      1.0  0.80234  0.52418  0.24989  1.0000
  C   C555      1.0  0.79287  0.49195  0.27671  1.0000
  C   C556      1.0  0.79984  0.50139  0.25106  1.0000
  C   C557      1.0  0.78547  0.54217  0.32452  1.0000
  H   H546      1.0  0.79972  0.55492  0.27351  1.0000
  H   H547      1.0  0.78222  0.49805  0.32035  1.0000
  H   H548      1.0  0.80719  0.53182  0.22984  1.0000
  H   H549      1.0  0.79025  0.47431  0.27756  1.0000
  H   H550      1.0  0.80272  0.49113  0.23189  1.0000
  H   H551      1.0  0.77646  0.53344  0.34150  1.0000
  H   H552      1.0  0.80108  0.54846  0.33427  1.0000
  H   H553      1.0  0.77490  0.55670  0.31760  1.0000
  H   H554      1.0  0.84526  0.47203  0.09337  1.0000
  C   C558      1.0  0.69419  0.33057  0.24095  1.0000
  C   C559      1.0  0.84558  0.47294  0.06925  1.0000
  C   C560      1.0  0.99281  0.59011  0.00276  1.0000
  H   H555      1.0  0.77852  0.33877  0.30133  1.0000
  H   H556      1.0  0.90454  0.59529  0.10038  1.0000
  C   C561      1.0  0.75396  0.36698  0.15714  1.0000
  H   H557      1.0  0.77188  0.40746  0.07707  1.0000
  C   C562      1.0  0.85950  0.46721  0.42843  1.0000
  H   H558      1.0  0.69822  0.56207  0.15568  1.0000
  S   S190      1.0  0.70682  0.64711  0.23662  1.0000
  Fe  Fe95      1.0  0.91501  0.60916  0.48560  1.0000
  H   H559      1.0  0.68664  0.34978  0.27935  1.0000
  H   H560      1.0  0.85559  0.51112  0.43574  1.0000
  H   H561      1.0  0.98090  0.42803  0.02734  1.0000
  Fe  Fe96      1.0  0.89194  0.56601  0.47731  1.0000
  S   S191      1.0  0.86895  0.36885  0.49017  1.0000
  C   C563      1.0  0.96387  0.40180  0.00519  1.0000
  H   H562      1.0  0.91128  0.48638  0.45600  1.0000
  C   C564      1.0  0.84412  0.51362  0.47954  1.0000
  C   C565      1.0  0.76336  0.35204  0.35287  1.0000
  C   C566      1.0  0.77220  0.39146  0.08746  1.0000
  H   H563      1.0  0.72496  0.57115  0.16835  1.0000
  H   H564      1.0  0.68544  0.60771  0.25566  1.0000
  C   C567      1.0  0.87659  0.49448  0.05286  1.0000
  C   C568      1.0  0.97196  0.42178  0.46700  1.0000
  C   C569      1.0  0.94022  0.36087  0.05295  1.0000
  H   H565      1.0  0.79265  0.37556  0.05489  1.0000
  H   H566      1.0  0.75428  0.40325  0.12472  1.0000
  N   N49       1.0  0.75217  0.33789  0.33144  1.0000
  H   H567      1.0  0.93561  0.35995  0.02939  1.0000
  C   C570      1.0  0.76230  0.33267  0.30578  1.0000
  H   H568      1.0  0.84360  0.53154  0.47977  1.0000
  C   C571      1.0  0.97128  0.57046  0.44764  1.0000
  H   H569      1.0  0.76261  0.36945  0.34534  1.0000
  C   C572      1.0  0.85094  0.50194  0.45467  1.0000
  H   H570      1.0  0.77657  0.33589  0.12769  1.0000
  C   C573      1.0  0.96184  0.37174  0.49730  1.0000
  C   C574      1.0  0.97505  0.60945  0.07069  1.0000
  H   H571      1.0  0.95291  0.64432  0.04716  1.0000
  H   H572      1.0  0.93770  0.56215  0.45635  1.0000
  C   C575      1.0  0.96384  0.42706  0.49451  1.0000
  H   H573      1.0  0.88840  0.62893  0.07677  1.0000
  H   H574      1.0  0.97131  0.33330  0.03229  1.0000
  C   C576      1.0  0.97808  0.34696  0.04462  1.0000
  H   H575      1.0  0.72305  0.33532  0.35651  1.0000
  H   H576      1.0  0.75584  0.35143  0.37467  1.0000
  C   C577      1.0  0.99364  0.56636  0.45506  1.0000
  S   S192      1.0  0.93757  0.41148  0.01767  1.0000
  H   H577      1.0  0.51735  0.32960  0.22770  1.0000
  H   H578      1.0  0.98342  0.62001  0.05492  1.0000
  H   H579      1.0  0.97795  0.59206  0.06334  1.0000
  H   H580      1.0  0.98304  0.61181  0.09248  1.0000
  C   C578      1.0  0.98389  0.53997  0.49000  1.0000
  H   H581      1.0  0.94875  0.53472  0.49407  1.0000
  C   C579      1.0  0.99324  0.62322  0.47292  1.0000
  H   H582      1.0  0.94621  0.42652  0.49841  1.0000
  Fe  Fe97      1.0  0.87858  0.59596  0.52788  1.0000
  H   H583      1.0  0.83130  0.61191  0.71778  1.0000
  S   S193      1.0  0.87209  0.59463  0.57691  1.0000
  C   C580      1.0  0.90068  0.65564  0.93033  1.0000
  S   S194      1.0  0.89701  0.59733  0.94611  1.0000
  C   C581      1.0  0.79110  0.45893  0.69488  1.0000
  Fe  Fe98      1.0  0.86331  0.60968  0.95996  1.0000
  S   S195      1.0  0.83626  0.62535  0.93023  1.0000
  C   C582      1.0  0.73518  0.36143  0.83914  1.0000
  H   H584      1.0  0.92333  0.62712  0.87354  1.0000
  C   C583      1.0  0.75245  0.34745  0.82934  1.0000
  H   H585      1.0  0.79114  0.63661  0.84075  1.0000
  Fe  Fe99      1.0  0.88246  0.42464  0.52610  1.0000
  S   S196      1.0  0.89559  0.39273  0.54522  1.0000
  S   S197      1.0  0.88865  0.45686  0.54897  1.0000
  Fe  Fe100     1.0  0.86436  0.38367  0.96748  1.0000
  C   C584      1.0  0.89043  0.64216  0.87387  1.0000
  S   S198      1.0  0.85769  0.36713  0.92342  1.0000
  Fe  Fe101     1.0  0.86115  0.38107  0.53576  1.0000
  S   S199      1.0  0.84029  0.36116  0.56600  1.0000
  H   H586      1.0  0.69513  0.57567  0.71568  1.0000
  H   H587      1.0  0.83447  0.51094  0.52423  1.0000
  C   C585      1.0  0.91604  0.34463  0.58684  1.0000
  S   S200      1.0  0.88250  0.41539  0.96761  1.0000
  Fe  Fe102     1.0  0.77241  0.39071  0.78771  1.0000
  S   S201      1.0  0.73639  0.39240  0.77307  1.0000
  S   S202      1.0  0.77945  0.39840  0.83583  1.0000
  Fe  Fe103     1.0  0.78837  0.38414  0.72451  1.0000
  S   S203      1.0  0.75360  0.38484  0.70621  1.0000
  S   S204      1.0  0.81972  0.38730  0.69816  1.0000
  Fe  Fe104     1.0  0.74792  0.41389  0.73682  1.0000
  S   S205      1.0  0.73331  0.44603  0.71772  1.0000
  Fe  Fe105     1.0  0.74512  0.36316  0.74410  1.0000
  H   H588      1.0  0.69976  0.36630  0.84157  1.0000
  S   S206      1.0  0.78290  0.41397  0.75343  1.0000
  S   S207      1.0  0.78090  0.36058  0.76064  1.0000
  Fe  Fe106     1.0  0.78819  0.61510  0.76464  1.0000
  S   S208      1.0  0.75444  0.60558  0.77889  1.0000
  S   S209      1.0  0.81919  0.62229  0.79247  1.0000
  Fe  Fe107     1.0  0.77676  0.60676  0.69980  1.0000
  S   S210      1.0  0.74253  0.59586  0.71036  1.0000
  S   S211      1.0  0.78510  0.61096  0.65176  1.0000
  Fe  Fe108     1.0  0.74050  0.62558  0.74071  1.0000
  H   H589      1.0  0.72117  0.55694  0.80891  1.0000
  Fe  Fe109     1.0  0.75900  0.57691  0.74729  1.0000
  S   S212      1.0  0.75413  0.54262  0.76622  1.0000
  S   S213      1.0  0.77418  0.63713  0.72852  1.0000
  S   S214      1.0  0.79325  0.58576  0.73462  1.0000
  C   C586      1.0  0.89370  0.49211  0.97694  1.0000
  C   C587      1.0  0.74052  0.47272  0.73061  1.0000
  C   C588      1.0  0.75027  0.47583  0.75821  1.0000
  C   C589      1.0  0.75468  0.49731  0.76839  1.0000
  C   C590      1.0  0.75002  0.51591  0.75090  1.0000
  C   C591      1.0  0.74094  0.51276  0.72289  1.0000
  C   C592      1.0  0.73601  0.49128  0.71295  1.0000
  H   H590      1.0  0.75378  0.46176  0.77209  1.0000
  H   H591      1.0  0.76158  0.49955  0.79015  1.0000
  H   H592      1.0  0.73714  0.52688  0.70921  1.0000
  H   H593      1.0  0.72846  0.48907  0.69156  1.0000
  C   C593      1.0  0.92763  0.33321  0.53885  1.0000
  C   C594      1.0  0.83422  0.36928  0.60236  1.0000
  C   C595      1.0  0.81584  0.36056  0.61595  1.0000
  C   C596      1.0  0.81089  0.36617  0.64508  1.0000
  C   C597      1.0  0.82464  0.38012  0.66117  1.0000
  C   C598      1.0  0.84314  0.38864  0.64763  1.0000
  C   C599      1.0  0.84774  0.38354  0.61828  1.0000
  H   H594      1.0  0.80537  0.34939  0.60390  1.0000
  H   H595      1.0  0.79670  0.35935  0.65525  1.0000
  H   H596      1.0  0.85394  0.39936  0.65992  1.0000
  H   H597      1.0  0.86200  0.39027  0.60822  1.0000
  C   C600      1.0  0.83514  0.37496  0.89979  1.0000
  C   C601      1.0  0.81878  0.39046  0.90832  1.0000
  C   C602      1.0  0.80162  0.39701  0.88861  1.0000
  C   C603      1.0  0.80070  0.38834  0.86008  1.0000
  C   C604      1.0  0.81687  0.37259  0.85161  1.0000
  C   C605      1.0  0.83395  0.36589  0.87145  1.0000
  H   H598      1.0  0.81939  0.39745  0.93009  1.0000
  H   H599      1.0  0.78915  0.40914  0.89541  1.0000
  H   H600      1.0  0.81642  0.36582  0.82972  1.0000
  H   H601      1.0  0.84653  0.35387  0.86468  1.0000
  H   H602      1.0  0.94074  0.33099  0.52316  1.0000
  H   H603      1.0  0.68665  0.60410  0.71857  1.0000
  H   H604      1.0  0.95095  0.38134  0.54004  1.0000
  Fe  Fe110     1.0  0.91009  0.61387  0.98675  1.0000
  N   N50       1.0  0.90627  0.32848  0.53123  1.0000
  C   C606      1.0  0.83043  0.62091  0.89236  1.0000
  C   C607      1.0  0.84575  0.61052  0.87382  1.0000
  C   C608      1.0  0.84175  0.61029  0.84334  1.0000
  C   C609      1.0  0.82198  0.61957  0.83107  1.0000
  C   C610      1.0  0.80625  0.62906  0.84978  1.0000
  C   C611      1.0  0.81059  0.62996  0.88012  1.0000
  H   H605      1.0  0.86104  0.60334  0.88285  1.0000
  H   H606      1.0  0.85411  0.60301  0.82913  1.0000
  C   C612      1.0  0.82440  0.64686  0.67326  1.0000
  C   C613      1.0  0.84677  0.59650  0.59606  1.0000
  C   C614      1.0  0.82742  0.60627  0.58386  1.0000
  C   C615      1.0  0.80849  0.60980  0.60101  1.0000
  C   C616      1.0  0.80857  0.60357  0.63048  1.0000
  C   C617      1.0  0.82766  0.59309  0.64241  1.0000
  C   C618      1.0  0.84664  0.58964  0.62529  1.0000
  H   H607      1.0  0.82722  0.61167  0.56147  1.0000
  H   H608      1.0  0.79380  0.61785  0.59151  1.0000
  H   H609      1.0  0.82796  0.58806  0.66495  1.0000
  H   H610      1.0  0.86148  0.58199  0.63492  1.0000
  H   H611      1.0  0.99011  0.35849  0.97065  1.0000
  Fe  Fe111     1.0  0.85715  0.42659  0.99991  1.0000
  C   C619      1.0  0.96510  0.37768  0.52658  1.0000
  H   H612      1.0  0.68336  0.34855  0.75341  1.0000
  H   H613      1.0  0.83719  0.43704  0.93862  1.0000
  H   H614      1.0  0.69083  0.62190  0.81847  1.0000
  C   C620      1.0  0.86435  0.63688  0.64672  1.0000
  H   H615      1.0  0.88466  0.50404  0.55525  1.0000
  H   H616      1.0  0.83933  0.41310  0.81677  1.0000
  C   C621      1.0  0.98698  0.63476  0.98969  1.0000
  C   C622      1.0  0.84368  0.44907  0.92312  1.0000
  C   C623      1.0  0.84828  0.50153  0.98182  1.0000
  H   H617      1.0  0.81330  0.45811  0.88113  1.0000
  S   S215      1.0  0.72796  0.32953  0.74040  1.0000
  S   S216      1.0  0.87665  0.62874  0.99907  1.0000
  H   H618      1.0  0.83070  0.50520  0.98359  1.0000
  H   H619      1.0  0.88104  0.34230  0.59430  1.0000
  C   C624      1.0  0.97873  0.43199  0.51729  1.0000
  H   H620      1.0  0.73882  0.37712  0.84955  1.0000
  C   C625      1.0  0.89434  0.33960  0.57897  1.0000
  H   H621      1.0  0.91976  0.35123  0.60841  1.0000
  C   C626      1.0  0.89502  0.47818  0.52541  1.0000
  S   S217      1.0  0.94122  0.63414  0.98619  1.0000
  H   H622      1.0  0.76938  0.35254  0.83245  1.0000
  H   H623      1.0  0.66734  0.58304  0.72718  1.0000
  C   C627      1.0  0.83753  0.62893  0.71841  1.0000
  C   C628      1.0  0.85759  0.41448  0.85767  1.0000
  S   S218      1.0  0.85657  0.57980  0.98674  1.0000
  C   C629      1.0  0.97132  0.59921  0.99722  1.0000
  H   H624      1.0  0.80832  0.64983  0.68289  1.0000
  S   S219      1.0  0.90373  0.53453  0.96548  1.0000
  C   C630      1.0  0.82605  0.44616  0.87451  1.0000
  C   C631      1.0  0.98812  0.37383  0.98275  1.0000
  H   H625      1.0  0.87961  0.63191  0.63603  1.0000
  N   N51       1.0  0.84125  0.63635  0.68868  1.0000
  N   N52       1.0  0.79347  0.44430  0.66940  1.0000
  C   C632      1.0  0.81130  0.44602  0.65181  1.0000
  C   C633      1.0  0.77722  0.42985  0.66247  1.0000
  C   C634      1.0  0.81335  0.43280  0.62676  1.0000
  H   H626      1.0  0.76624  0.40435  0.63285  1.0000
  S   S220      1.0  0.83758  0.39588  0.99737  1.0000
  H   H627      1.0  0.82414  0.45753  0.65721  1.0000
  H   H628      1.0  0.82775  0.43379  0.61319  1.0000
  H   H629      1.0  0.67774  0.62016  0.76716  1.0000
  H   H630      1.0  0.96298  0.59614  0.52180  1.0000
  H   H631      1.0  0.80750  0.46317  0.70442  1.0000
  N   N53       1.0  0.69249  0.58818  0.75928  1.0000
  C   C635      1.0  0.68718  0.60619  0.77630  1.0000
  C   C636      1.0  0.70405  0.57043  0.77095  1.0000
  C   C637      1.0  0.69442  0.60722  0.80543  1.0000
  C   C638      1.0  0.71136  0.57080  0.80009  1.0000
  C   C639      1.0  0.70667  0.58940  0.81733  1.0000
  C   C640      1.0  0.83901  0.50205  0.50448  1.0000
  H   H632      1.0  0.76296  0.42867  0.67619  1.0000
  C   C641      1.0  0.87952  0.47543  0.98459  1.0000
  H   H633      1.0  0.85586  0.53471  0.97025  1.0000
  C   C642      1.0  0.88528  0.51363  0.97230  1.0000
  H   H634      1.0  0.88635  0.45911  0.98924  1.0000
  H   H635      1.0  0.83371  0.46477  0.92506  1.0000
  C   C643      1.0  0.89328  0.51722  0.51370  1.0000
  C   C644      1.0  0.85681  0.48013  0.98705  1.0000
  H   H636      1.0  0.71279  0.59010  0.83973  1.0000
  C   C645      1.0  0.86098  0.63118  0.67573  1.0000
  S   S221      1.0  0.84761  0.41379  0.52012  1.0000
  H   H637      1.0  0.78165  0.47431  0.68871  1.0000
  H   H638      1.0  0.82519  0.63987  0.72967  1.0000
  C   C646      1.0  0.86252  0.51828  0.97445  1.0000
  H   H639      1.0  0.86955  0.40149  0.85179  1.0000
  C   C647      1.0  0.71329  0.35535  0.83468  1.0000
  C   C648      1.0  0.84063  0.42096  0.83808  1.0000
  H   H640      1.0  0.87111  0.41829  0.90100  1.0000
  H   H641      1.0  0.91132  0.48846  0.97538  1.0000
  C   C649      1.0  0.89074  0.50020  0.53372  1.0000
  C   C650      1.0  0.85839  0.42406  0.88552  1.0000
  H   H642      1.0  0.64729  0.33091  0.76038  1.0000
  S   S222      1.0  0.91145  0.58011  0.51458  1.0000
  H   H643      1.0  0.78200  0.45084  0.71234  1.0000
  C   C651      1.0  0.82470  0.43684  0.84653  1.0000
  H   H644      1.0  0.94980  0.34532  0.57248  1.0000
  N   N54       1.0  0.84289  0.43988  0.89347  1.0000
  H   H645      1.0  0.81093  0.44128  0.83185  1.0000
  H   H646      1.0  0.88595  0.63657  0.85204  1.0000
  C   C652      1.0  0.68496  0.58764  0.72869  1.0000
  Fe  Fe112     1.0  0.89125  0.56896  0.97571  1.0000
  S   S223      1.0  0.70704  0.64551  0.73525  1.0000
  H   H647      1.0  0.88911  0.53413  0.51984  1.0000
  H   H648      1.0  0.85299  0.62899  0.73201  1.0000
  H   H649      1.0  0.98484  0.65216  0.98487  1.0000
  H   H650      1.0  0.86096  0.45281  0.92985  1.0000
  C   C653      1.0  0.77885  0.41623  0.63776  1.0000
  H   H651      1.0  0.79871  0.40703  0.60082  1.0000
  C   C654      1.0  0.79701  0.41779  0.61977  1.0000
  C   C655      1.0  0.97730  0.60185  0.51074  1.0000
  C   C656      1.0  0.68235  0.33079  0.75171  1.0000
  H   H652      1.0  0.70815  0.55601  0.75761  1.0000
  C   C657      1.0  0.84728  0.64769  0.63091  1.0000
  C   C658      1.0  0.84042  0.47902  0.50412  1.0000
  H   H653      1.0  0.79861  0.63810  0.89416  1.0000
  C   C659      1.0  0.96823  0.62166  0.99093  1.0000
  C   C660      1.0  0.91133  0.63684  0.88594  1.0000
  H   H654      1.0  0.95223  0.37372  0.98099  1.0000
  C   C661      1.0  0.91660  0.64377  0.91426  1.0000
  H   H655      1.0  0.87399  0.62197  0.68749  1.0000
  H   H656      1.0  0.69197  0.33046  0.81689  1.0000
  C   C662      1.0  0.96661  0.38241  0.98861  1.0000
  C   C663      1.0  0.93285  0.34136  0.56672  1.0000
  H   H657      1.0  0.83701  0.46981  0.52357  1.0000
  H   H658      1.0  0.97233  0.43531  0.53883  1.0000
  H   H659      1.0  0.84928  0.65113  0.60798  1.0000
  H   H660      1.0  0.93273  0.63951  0.92401  1.0000
  C   C664      1.0  0.87498  0.65421  0.89047  1.0000
  C   C665      1.0  0.70892  0.33526  0.82095  1.0000
  C   C666      1.0  0.82719  0.65280  0.64424  1.0000
  C   C667      1.0  0.98676  0.37825  0.53871  1.0000
  C   C668      1.0  0.88972  0.33143  0.55093  1.0000
  H   H661      1.0  0.98868  0.52811  0.50671  1.0000
  N   N55       1.0  0.74800  0.32789  0.81561  1.0000
  H   H662      1.0  0.95713  0.58885  0.99815  1.0000
  S   S224      1.0  0.83909  0.45951  0.99740  1.0000
  H   H663      1.0  0.98913  0.38206  0.56163  1.0000
  H   H664      1.0  0.85860  0.65785  0.88110  1.0000
  H   H665      1.0  0.87271  0.32778  0.54501  1.0000
  Fe  Fe113     1.0  0.60668  0.88147  0.46615  1.0000
  H   H666      1.0  0.51924  0.81569  0.13483  1.0000
  S   S225      1.0  0.62305  0.85543  0.43642  1.0000
  C   C669      1.0  0.56018  0.77966  0.15722  1.0000
  H   H667      1.0  0.55785  0.87767  0.42240  1.0000
  H   H668      1.0  0.71558  0.68331  0.27882  1.0000
  C   C670      1.0  0.54420  0.86585  0.42072  1.0000
  S   S226      1.0  0.57549  0.87162  0.07619  1.0000
  Fe  Fe114     1.0  0.56322  0.90588  0.47635  1.0000
  H   H669      1.0  0.52637  0.88490  0.01401  1.0000
  H   H670      1.0  0.65620  0.90177  0.08519  1.0000
  S   S227      1.0  0.59336  0.91494  0.45219  1.0000
  Fe  Fe115     1.0  0.59820  0.80317  0.27503  1.0000
  S   S228      1.0  0.59074  0.76749  0.28274  1.0000
  S   S229      1.0  0.59102  0.83220  0.30625  1.0000
  Fe  Fe116     1.0  0.60944  0.79430  0.21037  1.0000
  S   S230      1.0  0.60274  0.75817  0.21406  1.0000
  S   S231      1.0  0.62319  0.80512  0.16691  1.0000
  Fe  Fe117     1.0  0.57244  0.76954  0.23923  1.0000
  S   S232      1.0  0.53844  0.75778  0.22363  1.0000
  Fe  Fe118     1.0  0.62170  0.75904  0.25680  1.0000
  S   S233      1.0  0.65206  0.73681  0.27095  1.0000
  S   S234      1.0  0.57835  0.80546  0.23267  1.0000
  S   S235      1.0  0.62996  0.79496  0.25196  1.0000
  C   C671      1.0  0.66659  0.71144  0.26141  1.0000
  C   C672      1.0  0.68719  0.70622  0.27530  1.0000
  Fe  Fe119     1.0  0.58313  0.88506  0.03104  1.0000
  H   H671      1.0  0.67026  0.72199  0.16363  1.0000
  C   C673      1.0  0.67130  0.67736  0.23282  1.0000
  C   C674      1.0  0.65880  0.69683  0.23997  1.0000
  C   C675      1.0  0.56849  0.80720  0.37918  1.0000
  C   C676      1.0  0.50901  0.90126  0.47713  1.0000
  H   H672      1.0  0.64305  0.70045  0.22904  1.0000
  C   C677      1.0  0.51227  0.76213  0.24045  1.0000
  C   C678      1.0  0.51039  0.77016  0.26902  1.0000
  H   H673      1.0  0.52517  0.77421  0.28143  1.0000
  H   H674      1.0  0.59638  0.89659  0.13281  1.0000
  S   S236      1.0  0.56753  0.91912  0.02515  1.0000
  H   H675      1.0  0.57263  0.83568  0.44291  1.0000
  C   C679      1.0  0.58976  0.85369  0.10126  1.0000
  C   C680      1.0  0.60935  0.84199  0.09442  1.0000
  C   C681      1.0  0.61957  0.82747  0.11495  1.0000
  C   C682      1.0  0.61032  0.82446  0.14245  1.0000
  C   C683      1.0  0.59089  0.83641  0.14939  1.0000
  C   C684      1.0  0.58071  0.85093  0.12892  1.0000
  H   H676      1.0  0.61651  0.84391  0.07325  1.0000
  H   H677      1.0  0.63461  0.81831  0.10935  1.0000
  H   H678      1.0  0.58360  0.83431  0.17046  1.0000
  H   H679      1.0  0.56560  0.85997  0.13454  1.0000
  C   C685      1.0  0.61532  0.85004  0.39943  1.0000
  C   C686      1.0  0.60043  0.86400  0.38398  1.0000
  C   C687      1.0  0.59382  0.85859  0.35519  1.0000
  C   C688      1.0  0.60183  0.83909  0.34148  1.0000
  C   C689      1.0  0.61707  0.82532  0.35670  1.0000
  C   C690      1.0  0.62383  0.83084  0.38546  1.0000
  H   H680      1.0  0.59401  0.87899  0.39423  1.0000
  H   H681      1.0  0.58216  0.86945  0.34357  1.0000
  H   H682      1.0  0.62342  0.81029  0.34649  1.0000
  H   H683      1.0  0.63546  0.81998  0.39715  1.0000
  H   H684      1.0  0.68373  0.79731  0.24216  1.0000
  H   H685      1.0  0.52815  0.81652  0.07520  1.0000
  C   C691      1.0  0.63950  0.90769  0.08999  1.0000
  S   S237      1.0  0.52950  0.91318  0.45668  1.0000
  C   C692      1.0  0.50893  0.88896  0.01103  1.0000
  C   C693      1.0  0.60802  0.93242  0.08048  1.0000
  H   H686      1.0  0.58735  0.80172  0.41909  1.0000
  H   H687      1.0  0.56455  0.76858  0.17500  1.0000
  H   H688      1.0  0.85615  0.69160  0.44641  1.0000
  C   C694      1.0  0.62749  0.89743  0.11129  1.0000
  H   H689      1.0  0.66487  0.66616  0.21645  1.0000
  H   H690      1.0  0.57995  0.79799  0.09373  1.0000
  H   H691      1.0  0.89040  0.69075  0.47777  1.0000
  H   H692      1.0  0.53475  0.85209  0.36632  1.0000
  C   C695      1.0  0.60585  0.90505  0.11683  1.0000
  C   C696      1.0  0.54561  0.84067  0.37839  1.0000
  H   H693      1.0  0.54936  0.81830  0.34162  1.0000
  H   H694      1.0  0.53838  0.86258  0.44302  1.0000
  S   S238      1.0  0.57548  0.87165  0.48741  1.0000
  N   N56       1.0  0.54886  0.80814  0.11175  1.0000
  N   N57       1.0  0.59636  0.92228  0.10141  1.0000
  C   C697      1.0  0.53477  0.80616  0.13443  1.0000
  H   H695      1.0  0.69345  0.71723  0.29202  1.0000
  H   H696      1.0  0.58158  0.97513  0.47340  1.0000
  C   C698      1.0  0.69986  0.68694  0.26781  1.0000
  N   N58       1.0  0.68460  0.76468  0.22370  1.0000
  C   C699      1.0  0.69556  0.74452  0.22317  1.0000
  C   C700      1.0  0.66875  0.76990  0.20287  1.0000
  C   C701      1.0  0.69079  0.72899  0.20135  1.0000
  C   C702      1.0  0.66344  0.75474  0.18085  1.0000
  C   C703      1.0  0.67451  0.73411  0.18020  1.0000
  C   C704      1.0  0.68890  0.78008  0.24787  1.0000
  H   H697      1.0  0.70750  0.74003  0.24030  1.0000
  H   H698      1.0  0.65987  0.78578  0.20333  1.0000
  H   H699      1.0  0.69907  0.71277  0.20161  1.0000
  H   H700      1.0  0.65057  0.75894  0.16475  1.0000
  H   H701      1.0  0.55632  0.82495  0.07237  1.0000
  H   H702      1.0  0.53814  0.83980  0.09619  1.0000
  H   H703      1.0  0.67945  0.77521  0.26717  1.0000
  H   H704      1.0  0.70681  0.77988  0.25393  1.0000
  Fe  Fe120     1.0  0.60537  0.92730  0.49600  1.0000
  C   C705      1.0  0.56851  0.79614  0.11133  1.0000
  H   H705      1.0  0.53011  0.87409  0.40864  1.0000
  C   C706      1.0  0.90681  0.66555  0.45184  1.0000
  C   C707      1.0  0.88929  0.68018  0.45860  1.0000
  C   C708      1.0  0.57451  0.78184  0.13414  1.0000
  C   C709      1.0  0.54021  0.79189  0.15749  1.0000
  H   H706      1.0  0.60044  0.94587  0.06790  1.0000
  C   C710      1.0  0.69197  0.67222  0.24658  1.0000
  H   H707      1.0  0.63465  0.88332  0.12301  1.0000
  N   N59       1.0  0.55201  0.84533  0.40652  1.0000
  S   S239      1.0  0.61476  0.89470  0.01009  1.0000
  H   H708      1.0  0.52913  0.79027  0.17563  1.0000
  C   C711      1.0  0.62978  0.92540  0.07459  1.0000
  C   C712      1.0  0.54253  0.82299  0.08768  1.0000
  C   C713      1.0  0.55367  0.82151  0.36434  1.0000
  C   C714      1.0  0.56668  0.83147  0.42115  1.0000
  H   H709      1.0  0.63882  0.93341  0.05773  1.0000
  H   H710      1.0  0.57560  0.79282  0.36807  1.0000
  H   H711      1.0  0.59039  0.77286  0.13427  1.0000
  C   C715      1.0  0.87016  0.68076  0.44096  1.0000
  H   H712      1.0  0.56904  0.94570  0.09780  1.0000
  C   C716      1.0  0.57506  0.81217  0.40777  1.0000
  H   H713      1.0  0.85359  0.66663  0.40374  1.0000
  C   C717      1.0  0.59020  0.98952  0.48106  1.0000
  C   C718      1.0  0.57312  0.92885  0.10617  1.0000
  H   H714      1.0  0.56219  0.91703  0.09465  1.0000
  H   H715      1.0  0.56945  0.92887  0.12977  1.0000
  S   S240      1.0  0.61496  0.96000  0.01246  1.0000
  C   C719      1.0  0.51485  0.88790  0.50094  1.0000
  C   C720      1.0  0.61021  0.98681  0.49680  1.0000
  H   H716      1.0  0.92165  0.66469  0.46568  1.0000
  H   H717      1.0  0.49904  0.86534  0.04252  1.0000
  C   C721      1.0  0.86888  0.66669  0.41667  1.0000
  Fe  Fe121     1.0  0.59863  0.88374  0.96742  1.0000
  H   H718      1.0  0.59894  0.94825  0.88315  1.0000
  S   S241      1.0  0.61871  0.86416  0.93367  1.0000
  C   C722      1.0  0.63630  0.91944  0.92424  1.0000
  C   C723      1.0  0.51245  0.81585  0.73840  1.0000
  C   C724      1.0  0.59184  0.92582  0.60219  1.0000
  Fe  Fe122     1.0  0.58917  0.88657  0.52883  1.0000
  S   S242      1.0  0.57933  0.87230  0.57264  1.0000
  H   H719      1.0  0.58837  0.97370  0.58760  1.0000
  H   H720      1.0  0.63688  0.96981  0.95763  1.0000
  C   C725      1.0  0.86380  0.67308  0.93578  1.0000
  S   S243      1.0  0.58434  0.91770  0.95735  1.0000
  Fe  Fe123     1.0  0.59517  0.79963  0.77804  1.0000
  S   S244      1.0  0.58835  0.76323  0.77712  1.0000
  S   S245      1.0  0.58108  0.82168  0.81482  1.0000
  Fe  Fe124     1.0  0.61021  0.79851  0.71348  1.0000
  S   S246      1.0  0.60418  0.76218  0.70888  1.0000
  S   S247      1.0  0.62626  0.81672  0.67628  1.0000
  Fe  Fe125     1.0  0.57247  0.76998  0.73300  1.0000
  S   S248      1.0  0.53845  0.76175  0.71371  1.0000
  Fe  Fe126     1.0  0.62082  0.75837  0.75320  1.0000
  S   S249      1.0  0.65115  0.73544  0.76590  1.0000
  S   S250      1.0  0.57790  0.80643  0.73474  1.0000
  S   S251      1.0  0.62835  0.79473  0.75686  1.0000
  C   C726      1.0  0.66602  0.71000  0.75746  1.0000
  C   C727      1.0  0.65826  0.69462  0.73696  1.0000
  C   C728      1.0  0.67103  0.67515  0.73053  1.0000
  H   H721      1.0  0.86890  0.69037  0.93891  1.0000
  C   C729      1.0  0.61143  0.94476  0.89998  1.0000
  C   C730      1.0  0.68685  0.70553  0.77112  1.0000
  H   H722      1.0  0.64235  0.69766  0.72616  1.0000
  C   C731      1.0  0.50456  0.79452  0.82523  1.0000
  H   H723      1.0  0.69314  0.71717  0.78704  1.0000
  C   C732      1.0  0.51305  0.75911  0.73190  1.0000
  C   C733      1.0  0.61440  0.90657  0.88203  1.0000
  H   H724      1.0  0.54414  0.80919  0.77886  1.0000
  H   H725      1.0  0.52766  0.74956  0.77324  1.0000
  H   H726      1.0  0.84701  0.67317  0.92525  1.0000
  H   H727      1.0  0.62718  0.89291  0.88085  1.0000
  C   C734      1.0  0.59260  0.85529  0.59980  1.0000
  C   C735      1.0  0.58000  0.84824  0.62316  1.0000
  C   C736      1.0  0.58990  0.83602  0.64634  1.0000
  C   C737      1.0  0.61268  0.83097  0.64670  1.0000
  C   C738      1.0  0.62531  0.83799  0.62331  1.0000
  C   C739      1.0  0.61533  0.84991  0.59988  1.0000
  H   H728      1.0  0.56242  0.85234  0.62340  1.0000
  H   H729      1.0  0.57995  0.83080  0.66413  1.0000
  H   H730      1.0  0.64294  0.83417  0.62331  1.0000
  H   H731      1.0  0.62525  0.85519  0.58209  1.0000
  C   C740      1.0  0.60782  0.85155  0.90136  1.0000
  C   C741      1.0  0.58541  0.85393  0.89316  1.0000
  C   C742      1.0  0.57763  0.84460  0.86670  1.0000
  C   C743      1.0  0.59204  0.83265  0.84813  1.0000
  C   C744      1.0  0.61444  0.83016  0.85640  1.0000
  C   C745      1.0  0.62226  0.83963  0.88280  1.0000
  H   H732      1.0  0.57408  0.86305  0.90712  1.0000
  H   H733      1.0  0.56029  0.84667  0.86055  1.0000
  H   H734      1.0  0.62574  0.82103  0.84241  1.0000
  H   H735      1.0  0.63963  0.83768  0.88886  1.0000
  C   C746      1.0  0.50174  0.90462  0.99041  1.0000
  H   H736      1.0  0.65305  0.91918  0.58062  1.0000
  H   H737      1.0  0.61162  0.91294  0.85960  1.0000
  H   H738      1.0  0.62962  0.95052  0.56241  1.0000
  S   S252      1.0  0.56827  0.87181  0.98905  1.0000
  S   S253      1.0  0.62220  0.96015  0.50467  1.0000
  H   H739      1.0  0.59886  0.89949  0.88966  1.0000
  H   H740      1.0  0.63718  0.89204  0.61410  1.0000
  C   C747      1.0  0.61704  0.96155  0.91971  1.0000
  S   S254      1.0  0.52068  0.91602  0.96713  1.0000
  N   N60       1.0  0.67725  0.75690  0.70743  1.0000
  C   C748      1.0  0.68097  0.73540  0.69885  1.0000
  C   C749      1.0  0.66287  0.77044  0.69188  1.0000
  C   C750      1.0  0.66936  0.72669  0.67489  1.0000
  C   C751      1.0  0.65124  0.76237  0.66753  1.0000
  C   C752      1.0  0.65434  0.74029  0.65922  1.0000
  C   C753      1.0  0.68915  0.76582  0.73289  1.0000
  H   H741      1.0  0.69249  0.72466  0.71102  1.0000
  H   H742      1.0  0.66009  0.78754  0.69851  1.0000
  H   H743      1.0  0.67181  0.70942  0.66885  1.0000
  H   H744      1.0  0.63956  0.77314  0.65559  1.0000
  H   H745      1.0  0.64502  0.73374  0.64079  1.0000
  H   H746      1.0  0.70279  0.77617  0.72583  1.0000
  H   H747      1.0  0.67756  0.77589  0.74657  1.0000
  H   H748      1.0  0.69602  0.75240  0.74717  1.0000
  C   C754      1.0  0.63595  0.92109  0.58720  1.0000
  N   N61       1.0  0.62126  0.92411  0.90219  1.0000
  C   C755      1.0  0.52556  0.79892  0.81517  1.0000
  H   H749      1.0  0.50268  0.78845  0.84714  1.0000
  C   C756      1.0  0.60501  0.90851  0.61392  1.0000
  C   C757      1.0  0.62710  0.90594  0.60599  1.0000
  C   C758      1.0  0.69189  0.67072  0.74416  1.0000
  H   H750      1.0  0.64354  0.90287  0.92663  1.0000
  C   C759      1.0  0.64221  0.93581  0.94441  1.0000
  C   C760      1.0  0.58685  0.95926  0.57273  1.0000
  H   H751      1.0  0.53202  0.88538  0.50750  1.0000
  H   H752      1.0  0.54018  0.79668  0.82922  1.0000
  H   H753      1.0  0.59783  0.89655  0.62804  1.0000
  H   H754      1.0  0.52753  0.80776  0.72898  1.0000
  C   C761      1.0  0.63262  0.95702  0.94193  1.0000
  N   N62       1.0  0.60062  0.94058  0.58370  1.0000
  H   H755      1.0  0.56916  0.95489  0.57050  1.0000
  H   H756      1.0  0.71562  0.68314  0.77532  1.0000
  H   H757      1.0  0.58092  0.97484  0.96975  1.0000
  C   C762      1.0  0.69972  0.68618  0.76448  1.0000
  N   N63       1.0  0.50960  0.80847  0.76835  1.0000
  Fe  Fe127     1.0  0.55525  0.90658  0.98205  1.0000
  H   H758      1.0  0.65379  0.93199  0.96221  1.0000
  H   H759      1.0  0.59198  0.96407  0.55064  1.0000
  C   C763      1.0  0.62249  0.93863  0.57660  1.0000
  C   C764      1.0  0.52776  0.80599  0.78653  1.0000
  H   H760      1.0  0.51412  0.83402  0.73807  1.0000
  C   C765      1.0  0.51236  0.75296  0.76112  1.0000
  H   H761      1.0  0.60907  0.97787  0.91822  1.0000
  C   C766      1.0  0.60533  0.98663  0.00048  1.0000
  S   S255      1.0  0.57407  0.92037  0.51905  1.0000
  H   H762      1.0  0.57444  0.92706  0.60754  1.0000
  S   S256      1.0  0.62167  0.89431  0.50868  1.0000
  H   H763      1.0  0.86210  0.66518  0.95731  1.0000
  H   H764      1.0  0.49835  0.81112  0.72395  1.0000
  H   H765      1.0  0.50300  0.86715  0.53463  1.0000
  C   C767      1.0  0.58876  0.98922  0.97885  1.0000
  H   H766      1.0  0.66465  0.66342  0.71480  1.0000
  Fe  Fe128     1.0  0.59779  0.92790  0.00125  1.0000
  C   C768      1.0  0.49838  0.87767  0.51642  1.0000
  H   H767      1.0  0.81340  0.66014  0.63174  1.0000
  H   H768      1.0  0.90480  0.66057  0.95256  1.0000
  N   N64       1.0  0.88013  0.66056  0.91845  1.0000
