data_image0
_chemical_formula_structural       FeCSHCH2CNSFeS2FeS2FeSFeS3FeS2FeS2FeSFeS3CHCHC7H4C4H3C6H5C4HCHC2HCH4C2H3CHC2H2C3HNC6H5CH2NC4H3CH8C3H6NH4C3HCH3CNHCH2NSC2SFeS2FeS2FeSFeS3FeS2FeS2FeSFeS3CHCFeC2NHCHC3HSH2CH2C6H5C2H2C6H7C2SH3CFeCHNH3C2H3C3H3CHC3NHCH2NC5HCHNH2SH7C3FeCH3SCH2C3HC5HCHC3H2FeCSCHCSHFeS2FeS2FeSFeS3FeS2FeS2FeSFeS3CHCH2CHCH2C6H5CH2CHCH2CH3C6H4C3H2C3HC2NHNC2HNH2NC6H6CHNSCNC2NSC3H2CH5C4HCFeHCHC2H2CHC3HC2H2CH4NC2H3C2H2C2H2C4H2C3SCFeSFeS2FeS2FeSFeS3FeS2FeS2FeSFeS3C4HC3H2C2H2C3HC2HC6H4C7H4C2NCH2CH5C3HC2H3SCH4C3N2H2SH7FeHCHC2H2CHCH5NSCH3C4H2CH2C5SHFeSH2CSFeSHCH2C2H2CSC2HCHCSHCNC3HSH3C3HSCHCS2FeHNC4SHC2FeHCSCFeHCH4FeHNCHC3HSC2SC3SFeH6CH2CH3CHC2HFeHC2SHC2HCSCFe2SC2FeHSH2CSHNCH2SH4C2HSCSFeH2S2C2HFeHSCSCSFeH8CHFeC2HCHCNC4H4C2SC2HCH2SHC3HSHCFeH2FeHSHFeSHSFeS2FeS2FeSFeS3FeSHFeS2FeSFeS3C6H5C2NH2C2H3C3H2C2H3CHCH2C6H4C2HCH3CHCHNHC2HNC4H4C7HCSC2SH5C3NCHCHC2HCHCHCH3CHC3H4NH2C5H2CHCHC2FeSFeS2FeS2FeSFeS3FeS2FeS2FeSFeCS2C3HC3H2C6H6C2H5C2NC3H3SC8H7CH2C2SC3H3C4HCH3NSFeH3C2NHCHCSHCH3NC2HCH3C3HCHCH2CH2CH3C3HCHNSFeSFeS2FeS2FeSFeS3FeS2FeSHFeSFeS3CHCH2C6H4C2H2CHCH2C4HC7H4CH3NCH5CFeC3H3NHC5HC2NC6H9CSH2NHC5H5CH2CHCHCHSHSC3HCHNCFeCSNH3NSFeS2FeS2FeSFeS3FeS2FeS2FeSFeS3CHCH2CHCH2C6H5CH2CH2CH2C6H4CH4SHC2NC6H5CHC2HC2HCHCH2C2NC5H6C2HFeHCH2CHNCSHC3HCH2C6HC2HCH9CHC2HC
_chemical_formula_sum              "Fe96 C576 S192 H576 N48"
_cell_length_a       62.4021
_cell_length_b       62.212
_cell_length_c       34.5439
_cell_angle_alpha    92.1226
_cell_angle_beta     91.4946
_cell_angle_gamma    87.985

_space_group_name_H-M_alt    "P 1"
_space_group_IT_number       1

loop_
  _space_group_symop_operation_xyz
  'x, y, z'

loop_
  _atom_site_type_symbol
  _atom_site_label
  _atom_site_symmetry_multiplicity
  _atom_site_fract_x
  _atom_site_fract_y
  _atom_site_fract_z
  _atom_site_occupancy
  Fe  Fe1       1.0  0.09582  0.36075  0.03563  1.0000
  C   C1        1.0  0.31385  0.10740  0.18564  1.0000
  S   S1        1.0  0.10970  0.34898  0.09356  1.0000
  H   H1        1.0  0.14270  0.14730  0.35658  1.0000
  C   C2        1.0  0.00565  0.25795  0.35070  1.0000
  H   H2        1.0  0.02173  0.23474  0.24905  1.0000
  H   H3        1.0  0.14548  0.18757  0.41586  1.0000
  C   C3        1.0  0.15674  0.23972  0.21857  1.0000
  N   N1        1.0  0.14006  0.22784  0.19713  1.0000
  S   S2        1.0  0.06828  0.38469  0.03012  1.0000
  Fe  Fe2       1.0  0.08968  0.25643  0.34603  1.0000
  S   S3        1.0  0.09066  0.22048  0.34556  1.0000
  S   S4        1.0  0.08807  0.27551  0.40367  1.0000
  Fe  Fe3       1.0  0.08558  0.25748  0.25583  1.0000
  S   S5        1.0  0.08596  0.22112  0.25091  1.0000
  S   S6        1.0  0.07835  0.27329  0.19752  1.0000
  Fe  Fe4       1.0  0.06361  0.22340  0.30126  1.0000
  S   S7        1.0  0.03300  0.20607  0.31195  1.0000
  Fe  Fe5       1.0  0.11293  0.22198  0.29553  1.0000
  S   S8        1.0  0.14699  0.20695  0.29356  1.0000
  S   S9        1.0  0.06168  0.25933  0.30378  1.0000
  S   S10       1.0  0.11360  0.25833  0.29831  1.0000
  Fe  Fe6       1.0  0.25471  0.10634  0.34711  1.0000
  S   S11       1.0  0.22947  0.08332  0.32714  1.0000
  S   S12       1.0  0.24712  0.11904  0.40827  1.0000
  Fe  Fe7       1.0  0.27398  0.10587  0.26433  1.0000
  S   S13       1.0  0.24898  0.08355  0.24010  1.0000
  S   S14       1.0  0.30136  0.11835  0.22852  1.0000
  Fe  Fe8       1.0  0.22529  0.10413  0.27538  1.0000
  S   S15       1.0  0.19074  0.11407  0.25816  1.0000
  Fe  Fe9       1.0  0.25550  0.06544  0.29477  1.0000
  S   S16       1.0  0.26574  0.03009  0.29663  1.0000
  S   S17       1.0  0.24971  0.12775  0.29606  1.0000
  S   S18       1.0  0.28133  0.08703  0.31812  1.0000
  C   C4        1.0  0.00810  0.21567  0.29231  1.0000
  H   H4        1.0  0.02816  0.23816  0.40408  1.0000
  C   C5        1.0  0.14117  0.20582  0.19444  1.0000
  H   H5        1.0  0.29001  0.08414  0.17098  1.0000
  C   C6        1.0  0.02638  0.43755  0.02527  1.0000
  C   C7        1.0  0.15852  0.18097  0.28273  1.0000
  C   C8        1.0  0.14628  0.16351  0.27017  1.0000
  C   C9        1.0  0.15641  0.14324  0.26204  1.0000
  C   C10       1.0  0.17880  0.14015  0.26671  1.0000
  C   C11       1.0  0.19097  0.15770  0.27897  1.0000
  C   C12       1.0  0.18089  0.17797  0.28675  1.0000
  H   H6        1.0  0.12905  0.16558  0.26677  1.0000
  H   H7        1.0  0.14684  0.12977  0.25250  1.0000
  H   H8        1.0  0.20819  0.15565  0.28253  1.0000
  H   H9        1.0  0.19055  0.19137  0.29623  1.0000
  C   C13       1.0  0.25969  0.11336  0.45356  1.0000
  C   C14       1.0  0.09307  0.26380  0.44941  1.0000
  C   C15       1.0  0.22819  0.01161  0.31759  1.0000
  C   C16       1.0  0.25008  0.00879  0.31051  1.0000
  H   H10       1.0  0.29831  0.04393  0.41267  1.0000
  H   H11       1.0  0.22062  0.02751  0.31676  1.0000
  H   H12       1.0  0.29610  0.10817  0.05806  1.0000
  C   C17       1.0  0.10058  0.32805  0.12235  1.0000
  C   C18       1.0  0.08342  0.31532  0.11042  1.0000
  C   C19       1.0  0.07694  0.29871  0.13386  1.0000
  C   C20       1.0  0.08741  0.29461  0.16959  1.0000
  C   C21       1.0  0.10473  0.30719  0.18136  1.0000
  C   C22       1.0  0.11127  0.32377  0.15782  1.0000
  H   H13       1.0  0.07498  0.31836  0.08331  1.0000
  H   H14       1.0  0.06351  0.28912  0.12443  1.0000
  H   H15       1.0  0.11291  0.30435  0.20878  1.0000
  H   H16       1.0  0.12453  0.33354  0.16746  1.0000
  H   H17       1.0  0.16277  0.25261  0.20079  1.0000
  C   C23       1.0  0.01160  0.23204  0.40189  1.0000
  C   C24       1.0  0.22777  0.00255  0.21932  1.0000
  C   C25       1.0  0.10170  0.24284  0.45232  1.0000
  C   C26       1.0  0.00941  0.37704  0.02207  1.0000
  H   H18       1.0  0.30538  0.13263  0.10830  1.0000
  C   C27       1.0  0.17423  0.13243  0.35829  1.0000
  H   H19       1.0  0.02556  0.37682  0.03369  1.0000
  C   C28       1.0  0.15520  0.33463  0.05320  1.0000
  C   C29       1.0  0.26542  0.05539  0.40899  1.0000
  H   H20       1.0  0.23418  0.06697  0.48642  1.0000
  C   C30       1.0  0.28412  0.04873  0.42877  1.0000
  H   H21       1.0  0.15274  0.33341  0.08403  1.0000
  H   H22       1.0  0.23296  0.06779  0.41477  1.0000
  H   H23       1.0  0.17057  0.22901  0.22714  1.0000
  H   H24       1.0  0.30332  0.15907  0.08871  1.0000
  C   C31       1.0  0.28442  0.04857  0.46932  1.0000
  C   C32       1.0  0.12305  0.23899  0.18086  1.0000
  H   H25       1.0  0.13590  0.18513  0.36604  1.0000
  H   H26       1.0  0.15448  0.19692  0.20781  1.0000
  H   H27       1.0  0.08210  0.29219  0.48179  1.0000
  C   C33       1.0  0.30549  0.11670  0.03796  1.0000
  H   H28       1.0  0.10532  0.23338  0.42632  1.0000
  C   C34       1.0  0.15040  0.18691  0.38519  1.0000
  C   C35       1.0  0.24735  0.06194  0.42987  1.0000
  H   H29       1.0  0.12565  0.17692  0.17396  1.0000
  H   H30       1.0  0.09294  0.23705  0.14885  1.0000
  C   C36       1.0  0.13028  0.30531  0.04023  1.0000
  C   C37       1.0  0.28108  0.10602  0.45696  1.0000
  C   C38       1.0  0.99315  0.38825  0.04244  1.0000
  H   H31       1.0  0.16912  0.11720  0.34545  1.0000
  N   N2        1.0  0.16610  0.16915  0.37846  1.0000
  C   C39       1.0  0.15943  0.14958  0.36435  1.0000
  C   C40       1.0  0.18730  0.17205  0.38770  1.0000
  C   C41       1.0  0.99223  0.27066  0.32713  1.0000
  C   C42       1.0  0.20251  0.15523  0.38204  1.0000
  C   C43       1.0  0.19588  0.13537  0.36706  1.0000
  C   C44       1.0  0.16839  0.35059  0.04072  1.0000
  H   H32       1.0  0.29050  0.10346  0.43124  1.0000
  H   H33       1.0  0.19260  0.18751  0.39904  1.0000
  H   H34       1.0  0.09460  0.19703  0.14391  1.0000
  H   H35       1.0  0.21940  0.15753  0.38881  1.0000
  H   H36       1.0  0.20758  0.12239  0.36165  1.0000
  C   C45       1.0  0.07746  0.48347  0.00294  1.0000
  H   H37       1.0  0.00580  0.23077  0.43179  1.0000
  H   H38       1.0  0.11300  0.21812  0.49074  1.0000
  N   N3        1.0  0.99735  0.24626  0.37916  1.0000
  C   C46       1.0  0.00708  0.22973  0.26160  1.0000
  C   C47       1.0  0.10664  0.22810  0.16095  1.0000
  C   C48       1.0  0.08864  0.27591  0.48372  1.0000
  C   C49       1.0  0.10754  0.20566  0.15833  1.0000
  H   H39       1.0  0.15719  0.20256  0.37815  1.0000
  H   H40       1.0  0.15006  0.24704  0.24570  1.0000
  H   H41       1.0  0.17603  0.36147  0.06165  1.0000
  C   C50       1.0  0.12491  0.19439  0.17519  1.0000
  H   H42       1.0  0.23637  0.01708  0.23000  1.0000
  H   H43       1.0  0.14650  0.48348  0.02304  1.0000
  H   H44       1.0  0.02268  0.25694  0.34532  1.0000
  H   H45       1.0  0.12183  0.25643  0.18388  1.0000
  H   H46       1.0  0.01248  0.21577  0.38748  1.0000
  H   H47       1.0  0.03957  0.42652  0.03555  1.0000
  H   H48       1.0  0.19885  0.99577  0.32883  1.0000
  H   H49       1.0  0.26501  0.05566  0.37754  1.0000
  C   C51       1.0  0.10610  0.23425  0.48897  1.0000
  C   C52       1.0  0.24776  0.11687  0.48732  1.0000
  C   C53       1.0  0.30475  0.09104  0.16236  1.0000
  H   H50       1.0  0.01514  0.44016  0.04955  1.0000
  H   H51       1.0  0.30720  0.09747  0.49641  1.0000
  H   H52       1.0  0.23124  0.12267  0.48502  1.0000
  H   H53       1.0  0.03344  0.45308  0.01845  1.0000
  H   H54       1.0  0.99698  0.39698  0.06927  1.0000
  H   H55       1.0  0.29907  0.04357  0.48454  1.0000
  N   N4        1.0  0.31594  0.13483  0.04997  1.0000
  H   H56       1.0  0.27042  0.00045  0.21419  1.0000
  H   H57       1.0  0.11344  0.31150  0.03667  1.0000
  H   H58       1.0  0.13229  0.28983  0.02346  1.0000
  H   H59       1.0  0.98952  0.19818  0.33161  1.0000
  C   C54       1.0  0.24819  0.06153  0.47038  1.0000
  C   C55       1.0  0.29051  0.10269  0.49394  1.0000
  C   C56       1.0  0.31326  0.14394  0.08939  1.0000
  H   H60       1.0  0.11633  0.47460  0.06439  1.0000
  C   C57       1.0  0.21589  0.99361  0.32422  1.0000
  H   H61       1.0  0.21379  0.00118  0.23826  1.0000
  H   H62       1.0  0.13303  0.30209  0.07145  1.0000
  H   H63       1.0  0.99886  0.27938  0.30388  1.0000
  C   C58       1.0  0.30756  0.10829  0.00006  1.0000
  N   N5        1.0  0.26661  0.05501  0.48958  1.0000
  H   H64       1.0  0.22197  0.00503  0.18912  1.0000
  C   C59       1.0  0.31453  0.08379  0.12753  1.0000
  H   H65       1.0  0.06407  0.48111  0.02137  1.0000
  H   H66       1.0  0.30715  0.07128  0.10975  1.0000
  N   N6        1.0  0.14494  0.32127  0.02697  1.0000
  S   S19       1.0  0.08157  0.43908  0.00032  1.0000
  C   C60       1.0  0.17117  0.35273  0.00111  1.0000
  C   C61       1.0  0.32011  0.11875  0.97429  1.0000
  S   S20       1.0  0.12156  0.33871  0.90366  1.0000
  Fe  Fe10      1.0  0.10094  0.24329  0.63164  1.0000
  S   S21       1.0  0.09776  0.21208  0.66160  1.0000
  S   S22       1.0  0.10822  0.23455  0.56836  1.0000
  Fe  Fe11      1.0  0.09503  0.26931  0.70918  1.0000
  S   S23       1.0  0.09190  0.23959  0.74316  1.0000
  S   S24       1.0  0.08785  0.30227  0.73833  1.0000
  Fe  Fe12      1.0  0.11950  0.22584  0.70785  1.0000
  S   S25       1.0  0.14926  0.20883  0.73384  1.0000
  Fe  Fe13      1.0  0.07056  0.22874  0.69326  1.0000
  S   S26       1.0  0.03929  0.21170  0.69820  1.0000
  S   S27       1.0  0.12420  0.25651  0.67696  1.0000
  S   S28       1.0  0.07215  0.25894  0.66046  1.0000
  Fe  Fe14      1.0  0.24611  0.06054  0.65908  1.0000
  S   S29       1.0  0.28057  0.06917  0.66464  1.0000
  S   S30       1.0  0.23596  0.02780  0.63557  1.0000
  Fe  Fe15      1.0  0.23029  0.10798  0.67189  1.0000
  S   S31       1.0  0.26410  0.11985  0.67840  1.0000
  S   S32       1.0  0.19816  0.12585  0.66082  1.0000
  Fe  Fe16      1.0  0.27126  0.09705  0.62731  1.0000
  S   S33       1.0  0.29086  0.10155  0.57367  1.0000
  Fe  Fe17      1.0  0.27057  0.09074  0.71546  1.0000
  S   S34       1.0  0.28778  0.08459  0.77405  1.0000
  S   S35       1.0  0.23752  0.08710  0.61903  1.0000
  S   S36       1.0  0.23606  0.08028  0.71164  1.0000
  C   C62       1.0  0.27854  0.10618  0.52770  1.0000
  H   H67       1.0  0.01824  0.28375  0.77283  1.0000
  C   C63       1.0  0.09288  0.26724  0.52048  1.0000
  Fe  Fe18      1.0  0.10256  0.35937  0.94760  1.0000
  C   C64       1.0  0.05354  0.20516  0.59140  1.0000
  C   C65       1.0  0.05795  0.29460  0.83923  1.0000
  N   N7        1.0  0.04672  0.30794  0.86443  1.0000
  H   H68       1.0  0.24767  0.11595  0.54984  1.0000
  C   C66       1.0  0.01485  0.22695  0.69946  1.0000
  H   H69       1.0  0.02944  0.25781  0.70018  1.0000
  C   C67       1.0  0.10181  0.24638  0.52323  1.0000
  C   C68       1.0  0.18443  0.22188  0.66268  1.0000
  C   C69       1.0  0.31265  0.08546  0.84093  1.0000
  H   H70       1.0  0.15264  0.21113  0.58433  1.0000
  S   S37       1.0  0.11669  0.37958  0.99748  1.0000
  H   H71       1.0  0.20987  0.22332  0.70613  1.0000
  H   H72       1.0  0.05756  0.33552  0.89600  1.0000
  C   C70       1.0  0.16072  0.33900  0.97460  1.0000
  H   H73       1.0  0.28327  0.05691  0.54445  1.0000
  H   H74       1.0  0.08967  0.27685  0.54654  1.0000
  C   C71       1.0  0.16190  0.18482  0.71498  1.0000
  C   C72       1.0  0.18141  0.17739  0.73196  1.0000
  C   C73       1.0  0.19269  0.15918  0.71622  1.0000
  C   C74       1.0  0.18444  0.14820  0.68339  1.0000
  C   C75       1.0  0.16466  0.15528  0.66709  1.0000
  C   C76       1.0  0.15346  0.17350  0.68271  1.0000
  H   H75       1.0  0.18800  0.18599  0.75708  1.0000
  H   H76       1.0  0.20784  0.15387  0.72918  1.0000
  H   H77       1.0  0.15805  0.14676  0.64189  1.0000
  H   H78       1.0  0.13834  0.17882  0.66969  1.0000
  H   H79       1.0  0.17537  0.23532  0.67594  1.0000
  C   C77       1.0  0.23677  0.00488  0.66437  1.0000
  C   C78       1.0  0.24019  0.00655  0.70454  1.0000
  H   H80       1.0  0.04887  0.31424  0.92531  1.0000
  H   H81       1.0  0.24342  0.02203  0.71838  1.0000
  C   C79       1.0  0.11140  0.32837  0.85835  1.0000
  C   C80       1.0  0.12099  0.30956  0.84161  1.0000
  C   C81       1.0  0.11384  0.30119  0.80516  1.0000
  C   C82       1.0  0.09731  0.31186  0.78459  1.0000
  C   C83       1.0  0.08773  0.33069  0.80135  1.0000
  C   C84       1.0  0.09454  0.33877  0.83819  1.0000
  H   H82       1.0  0.13413  0.30144  0.85676  1.0000
  H   H83       1.0  0.12139  0.28672  0.79264  1.0000
  H   H84       1.0  0.07497  0.33910  0.78564  1.0000
  H   H85       1.0  0.08719  0.35341  0.85037  1.0000
  H   H86       1.0  0.21466  0.17148  0.62067  1.0000
  H   H87       1.0  0.02807  0.40140  0.90668  1.0000
  H   H88       1.0  0.19484  0.01894  0.67922  1.0000
  C   C85       1.0  0.15553  0.21809  0.61403  1.0000
  C   C86       1.0  0.30627  0.09677  0.80775  1.0000
  S   S38       1.0  0.07577  0.38354  0.93602  1.0000
  H   H89       1.0  0.07035  0.20888  0.58493  1.0000
  H   H90       1.0  0.22983  0.19125  0.67824  1.0000
  H   H91       1.0  0.13883  0.31325  0.96715  1.0000
  C   C87       1.0  0.17713  0.09844  0.73511  1.0000
  Fe  Fe19      1.0  0.08803  0.40254  0.98874  1.0000
  C   C88       1.0  0.02618  0.29049  0.79867  1.0000
  H   H92       1.0  0.31062  0.12559  0.77672  1.0000
  N   N8        1.0  0.03928  0.22438  0.59051  1.0000
  H   H93       1.0  0.18109  0.36523  0.99091  1.0000
  H   H94       1.0  0.99544  0.19892  0.69847  1.0000
  H   H95       1.0  0.19511  0.02655  0.75024  1.0000
  C   C89       1.0  0.99487  0.26112  0.69732  1.0000
  C   C90       1.0  0.18707  0.19330  0.61534  1.0000
  H   H96       1.0  0.11547  0.45528  0.95165  1.0000
  H   H97       1.0  0.03797  0.27592  0.56224  1.0000
  H   H98       1.0  0.99787  0.30766  0.81933  1.0000
  C   C91       1.0  0.01187  0.26058  0.58890  1.0000
  C   C92       1.0  0.14742  0.32340  0.98809  1.0000
  C   C93       1.0  0.02541  0.31266  0.85760  1.0000
  H   H99       1.0  0.18028  0.18422  0.59090  1.0000
  H   H100      1.0  0.18754  0.04866  0.63435  1.0000
  H   H101      1.0  0.04531  0.41845  0.96474  1.0000
  C   C94       1.0  0.25702  0.11305  0.52414  1.0000
  H   H102      1.0  0.07489  0.29097  0.84434  1.0000
  C   C95       1.0  0.20657  0.18605  0.63197  1.0000
  C   C96       1.0  0.03241  0.26122  0.57397  1.0000
  C   C97       1.0  0.01454  0.24943  0.69933  1.0000
  N   N9        1.0  0.17640  0.21115  0.63053  1.0000
  H   H103      1.0  0.30564  0.07019  0.84597  1.0000
  C   C98       1.0  0.08906  0.46540  0.98755  1.0000
  H   H104      1.0  0.19245  0.10698  0.73869  1.0000
  H   H105      1.0  0.05706  0.27575  0.78539  1.0000
  N   N10       1.0  0.18139  0.07646  0.71973  1.0000
  C   C99       1.0  0.18184  0.07247  0.68051  1.0000
  C   C100      1.0  0.18629  0.06031  0.74470  1.0000
  C   C101      1.0  0.18663  0.05173  0.66541  1.0000
  C   C102      1.0  0.19103  0.03935  0.73055  1.0000
  C   C103      1.0  0.19097  0.03506  0.69065  1.0000
  H   H106      1.0  0.26174  0.03806  0.54086  1.0000
  C   C104      1.0  0.26696  0.05400  0.53197  1.0000
  H   H107      1.0  0.18678  0.06362  0.77575  1.0000
  N   N11       1.0  0.01575  0.42824  0.99054  1.0000
  H   H108      1.0  0.16914  0.09849  0.76346  1.0000
  H   H109      1.0  0.05378  0.19831  0.62074  1.0000
  S   S39       1.0  0.08399  0.33933  0.98661  1.0000
  H   H110      1.0  0.16642  0.10772  0.71505  1.0000
  H   H111      1.0  0.14254  0.21307  0.63271  1.0000
  H   H112      1.0  0.32042  0.04420  0.79298  1.0000
  H   H113      1.0  0.25623  0.06673  0.54515  1.0000
  H   H114      1.0  0.99476  0.27850  0.69658  1.0000
  H   H115      1.0  0.15438  0.23589  0.61193  1.0000
  H   H116      1.0  0.04791  0.19285  0.56978  1.0000
  C   C105      1.0  0.20390  0.21511  0.67999  1.0000
  C   C106      1.0  0.99533  0.21631  0.69830  1.0000
  C   C107      1.0  0.21504  0.19709  0.66443  1.0000
  Fe  Fe20      1.0  0.05810  0.36461  0.97807  1.0000
  C   C108      1.0  0.02798  0.41894  0.96178  1.0000
  H   H117      1.0  0.17879  0.08539  0.66065  1.0000
  H   H118      1.0  0.06187  0.24346  0.56326  1.0000
  H   H119      1.0  0.01657  0.32329  0.87766  1.0000
  S   S40       1.0  0.02523  0.35443  0.95865  1.0000
  C   C109      1.0  0.00468  0.36617  0.98690  1.0000
  H   H120      1.0  0.07440  0.31184  0.90208  1.0000
  H   H121      1.0  0.00129  0.27481  0.58914  1.0000
  C   C110      1.0  0.05747  0.31777  0.89860  1.0000
  C   C111      1.0  0.01831  0.40953  0.92865  1.0000
  C   C112      1.0  0.04592  0.24280  0.57473  1.0000
  H   H122      1.0  0.01390  0.20898  0.61758  1.0000
  C   C113      1.0  0.01907  0.22352  0.60465  1.0000
  C   C114      1.0  0.04791  0.28582  0.80587  1.0000
  C   C115      1.0  0.10638  0.46890  0.96385  1.0000
  C   C116      1.0  0.01479  0.30393  0.82473  1.0000
  C   C117      1.0  0.99599  0.41007  0.92472  1.0000
  H   H123      1.0  0.16241  0.34077  0.94367  1.0000
  C   C118      1.0  0.00505  0.24156  0.60396  1.0000
  H   H124      1.0  0.29989  0.09348  0.99105  1.0000
  C   C119      1.0  0.99386  0.42927  0.98657  1.0000
  C   C120      1.0  0.11211  0.49013  0.95617  1.0000
  C   C121      1.0  0.31536  0.11663  0.80198  1.0000
  H   H125      1.0  0.32196  0.11238  0.94488  1.0000
  H   H126      1.0  0.98919  0.24094  0.61605  1.0000
  Fe  Fe21      1.0  0.09507  0.60653  0.03931  1.0000
  C   C122      1.0  0.02033  0.65422  0.05291  1.0000
  S   S41       1.0  0.11275  0.62686  0.08554  1.0000
  C   C123      1.0  0.13803  0.55616  0.05148  1.0000
  H   H127      1.0  0.09615  0.50401  0.09979  1.0000
  C   C124      1.0  0.07371  0.71369  0.45871  1.0000
  S   S42       1.0  0.08247  0.57324  0.04286  1.0000
  H   H128      1.0  0.28938  0.84030  0.12394  1.0000
  Fe  Fe22      1.0  0.24894  0.88451  0.26980  1.0000
  S   S43       1.0  0.21369  0.89474  0.27002  1.0000
  S   S44       1.0  0.26231  0.88765  0.20887  1.0000
  Fe  Fe23      1.0  0.25008  0.88111  0.35874  1.0000
  S   S45       1.0  0.21583  0.89185  0.36320  1.0000
  S   S46       1.0  0.26878  0.87466  0.41503  1.0000
  Fe  Fe24      1.0  0.20965  0.86879  0.31276  1.0000
  S   S47       1.0  0.18072  0.84930  0.32752  1.0000
  Fe  Fe25      1.0  0.22308  0.91646  0.32035  1.0000
  S   S48       1.0  0.20929  0.95042  0.32917  1.0000
  S   S49       1.0  0.24414  0.85685  0.30958  1.0000
  S   S50       1.0  0.25812  0.90754  0.31896  1.0000
  Fe  Fe26      1.0  0.08184  0.70782  0.26904  1.0000
  S   S51       1.0  0.07652  0.74079  0.24519  1.0000
  S   S52       1.0  0.07317  0.67711  0.23381  1.0000
  Fe  Fe27      1.0  0.09340  0.72662  0.35125  1.0000
  S   S53       1.0  0.08871  0.76052  0.33201  1.0000
  S   S54       1.0  0.10768  0.72333  0.41243  1.0000
  Fe  Fe28      1.0  0.05912  0.74863  0.30048  1.0000
  S   S55       1.0  0.02853  0.76935  0.30570  1.0000
  Fe  Fe29      1.0  0.10662  0.74962  0.27918  1.0000
  S   S56       1.0  0.13431  0.76695  0.25348  1.0000
  S   S57       1.0  0.06267  0.71533  0.32320  1.0000
  S   S58       1.0  0.11307  0.71596  0.29955  1.0000
  C   C125      1.0  0.30460  0.87199  0.19943  1.0000
  H   H129      1.0  0.12905  0.67986  0.39883  1.0000
  C   C126      1.0  0.00094  0.73570  0.29466  1.0000
  H   H130      1.0  0.08423  0.69130  0.02775  1.0000
  H   H131      1.0  0.01508  0.72547  0.28995  1.0000
  C   C127      1.0  0.22541  0.97279  0.32373  1.0000
  H   H132      1.0  0.27667  0.98584  0.30619  1.0000
  C   C128      1.0  0.24743  0.97015  0.31801  1.0000
  H   H133      1.0  0.23924  0.92912  0.22664  1.0000
  H   H134      1.0  0.25497  0.95427  0.31766  1.0000
  C   C129      1.0  0.16790  0.82672  0.30553  1.0000
  C   C130      1.0  0.17499  0.81654  0.27120  1.0000
  C   C131      1.0  0.16454  0.79827  0.25567  1.0000
  C   C132      1.0  0.14701  0.78991  0.27435  1.0000
  C   C133      1.0  0.14012  0.79997  0.30894  1.0000
  C   C134      1.0  0.15051  0.81826  0.32437  1.0000
  H   H135      1.0  0.18837  0.82282  0.25642  1.0000
  H   H136      1.0  0.16995  0.79062  0.22887  1.0000
  H   H137      1.0  0.12669  0.79374  0.32359  1.0000
  H   H138      1.0  0.14494  0.82598  0.35100  1.0000
  H   H139      1.0  0.01020  0.77721  0.38831  1.0000
  C   C135      1.0  0.27699  0.96635  0.21601  1.0000
  H   H140      1.0  0.21599  0.96217  0.22789  1.0000
  H   H141      1.0  0.06474  0.71004  0.43219  1.0000
  C   C136      1.0  0.11810  0.67289  0.37727  1.0000
  H   H142      1.0  0.27849  0.93171  0.21911  1.0000
  C   C137      1.0  0.25611  0.87491  0.46060  1.0000
  H   H143      1.0  0.22389  0.87493  0.43704  1.0000
  H   H144      1.0  0.30351  0.86490  0.22740  1.0000
  C   C138      1.0  0.00302  0.75773  0.30248  1.0000
  H   H145      1.0  0.05533  0.75341  0.44693  1.0000
  H   H146      1.0  0.20714  0.82904  0.44307  1.0000
  H   H147      1.0  0.09982  0.79995  0.41365  1.0000
  C   C139      1.0  0.10070  0.64182  0.12479  1.0000
  C   C140      1.0  0.11181  0.65883  0.14320  1.0000
  C   C141      1.0  0.10325  0.67044  0.17553  1.0000
  C   C142      1.0  0.08365  0.66483  0.19046  1.0000
  C   C143      1.0  0.07247  0.64794  0.17181  1.0000
  C   C144      1.0  0.08078  0.63666  0.13896  1.0000
  H   H148      1.0  0.12721  0.66300  0.13251  1.0000
  H   H149      1.0  0.11205  0.68344  0.18931  1.0000
  H   H150      1.0  0.05736  0.64335  0.18317  1.0000
  H   H151      1.0  0.07209  0.62354  0.12535  1.0000
  C   C145      1.0  0.28714  0.88406  0.18450  1.0000
  C   C146      1.0  0.02231  0.76652  0.40292  1.0000
  C   C147      1.0  0.31268  0.84477  0.02233  1.0000
  H   H152      1.0  0.28186  0.94488  0.43830  1.0000
  H   H153      1.0  0.29415  0.96768  0.21296  1.0000
  C   C148      1.0  0.11563  0.52900  0.07897  1.0000
  C   C149      1.0  0.08997  0.65685  0.32083  1.0000
  C   C150      1.0  0.26863  0.87485  0.49509  1.0000
  H   H154      1.0  0.02387  0.75145  0.38470  1.0000
  C   C151      1.0  0.30784  0.89003  0.12652  1.0000
  C   C152      1.0  0.23311  0.96348  0.22416  1.0000
  N   N12       1.0  0.29261  0.85318  0.02994  1.0000
  H   H155      1.0  0.10748  0.64324  0.25657  1.0000
  N   N13       1.0  0.25222  0.93037  0.44727  1.0000
  C   C153      1.0  0.21491  0.93768  0.43229  1.0000
  C   C154      1.0  0.10979  0.50767  0.08267  1.0000
  H   H156      1.0  0.03660  0.65637  0.10877  1.0000
  N   N14       1.0  0.24183  0.98318  0.22068  1.0000
  H   H157      1.0  0.26872  0.85908  0.07263  1.0000
  H   H158      1.0  0.09093  0.67585  0.41444  1.0000
  N   N15       1.0  0.22096  0.82078  0.38846  1.0000
  C   C155      1.0  0.21666  0.80882  0.35528  1.0000
  C   C156      1.0  0.24167  0.82509  0.39922  1.0000
  C   C157      1.0  0.23333  0.80077  0.33200  1.0000
  C   C158      1.0  0.25874  0.81732  0.37665  1.0000
  C   C159      1.0  0.25451  0.80506  0.34283  1.0000
  C   C160      1.0  0.20336  0.83012  0.41159  1.0000
  H   H159      1.0  0.20025  0.80571  0.34629  1.0000
  H   H160      1.0  0.24510  0.83481  0.42515  1.0000
  H   H161      1.0  0.22973  0.79165  0.30537  1.0000
  H   H162      1.0  0.27507  0.82131  0.38497  1.0000
  H   H163      1.0  0.26758  0.79927  0.32467  1.0000
  H   H164      1.0  0.18811  0.82184  0.40507  1.0000
  C   C161      1.0  0.06790  0.80288  0.38858  1.0000
  H   H165      1.0  0.07409  0.51831  0.00746  1.0000
  N   N16       1.0  0.13239  0.53373  0.05630  1.0000
  S   S59       1.0  0.06467  0.62027  0.01441  1.0000
  C   C162      1.0  1.00000  0.59150  0.01362  1.0000
  N   N17       1.0  0.11114  0.65886  0.31260  1.0000
  C   C163      1.0  0.20984  0.93357  0.47036  1.0000
  C   C164      1.0  0.23378  0.87496  0.46305  1.0000
  N   N18       1.0  0.05715  0.67133  0.02453  1.0000
  S   S60       1.0  0.02161  0.57964  0.03906  1.0000
  C   C165      1.0  0.03735  0.65949  0.07813  1.0000
  C   C166      1.0  0.22620  0.92826  0.49699  1.0000
  C   C167      1.0  0.09660  0.67076  0.38599  1.0000
  H   H166      1.0  0.12012  0.66873  0.25755  1.0000
  H   H167      1.0  0.20062  0.84731  0.40457  1.0000
  C   C168      1.0  0.08239  0.66275  0.35762  1.0000
  H   H168      1.0  0.27557  0.90241  0.13601  1.0000
  H   H169      1.0  0.08922  0.66410  0.00886  1.0000
  H   H170      1.0  0.07871  0.65102  0.29871  1.0000
  H   H171      1.0  0.14169  0.66936  0.33322  1.0000
  H   H172      1.0  0.27558  0.92290  0.40442  1.0000
  C   C169      1.0  0.07923  0.77581  0.43369  1.0000
  C   C170      1.0  0.08381  0.79366  0.41247  1.0000
  C   C171      1.0  0.28893  0.89305  0.14794  1.0000
  C   C172      1.0  0.14347  0.51764  0.03651  1.0000
  H   H173      1.0  0.15563  0.55793  0.05489  1.0000
  C   C173      1.0  0.12512  0.66695  0.34015  1.0000
  Fe  Fe30      1.0  0.05296  0.58694  0.01344  1.0000
  H   H174      1.0  0.06928  0.67128  0.08291  1.0000
  C   C174      1.0  0.11877  0.65365  0.27346  1.0000
  H   H175      1.0  0.09162  0.76811  0.45154  1.0000
  C   C175      1.0  0.28422  0.85164  0.06592  1.0000
  C   C176      1.0  0.09471  0.72068  0.45702  1.0000
  H   H176      1.0  0.00627  0.64679  0.06368  1.0000
  H   H177      1.0  0.13020  0.56737  0.07307  1.0000
  C   C177      1.0  0.29576  0.84089  0.09506  1.0000
  H   H178      1.0  0.13463  0.64501  0.27449  1.0000
  C   C178      1.0  0.23634  0.93612  0.42124  1.0000
  C   C179      1.0  0.24617  0.94473  0.22374  1.0000
  C   C180      1.0  0.26823  0.94620  0.21957  1.0000
  H   H179      1.0  0.30886  0.89701  0.09846  1.0000
  C   C181      1.0  0.04760  0.79399  0.38613  1.0000
  C   C182      1.0  0.05872  0.76741  0.43067  1.0000
  H   H180      1.0  0.04826  0.70532  0.49605  1.0000
  H   H181      1.0  0.13286  0.56123  0.02205  1.0000
  C   C183      1.0  0.05577  0.66805  0.06335  1.0000
  H   H182      1.0  0.01611  0.76275  0.43165  1.0000
  H   H183      1.0  0.10642  0.54176  0.09381  1.0000
  H   H184      1.0  0.28413  0.91706  0.45244  1.0000
  H   H185      1.0  0.15595  0.52150  0.01689  1.0000
  N   N19       1.0  0.04323  0.77649  0.40710  1.0000
  C   C184      1.0  0.26347  0.98479  0.21649  1.0000
  C   C185      1.0  0.07751  0.67802  0.00935  1.0000
  H   H186      1.0  0.06552  0.66155  0.36377  1.0000
  H   H187      1.0  0.20236  0.94189  0.41123  1.0000
  H   H188      1.0  0.07144  0.81635  0.37098  1.0000
  C   C186      1.0  0.25971  0.98809  0.31156  1.0000
  C   C187      1.0  0.27457  0.92887  0.43510  1.0000
  H   H189      1.0  0.24012  0.93932  0.39155  1.0000
  H   H190      1.0  0.03555  0.80083  0.36648  1.0000
  C   C188      1.0  0.02174  0.65790  0.01347  1.0000
  C   C189      1.0  0.13817  0.49612  0.03980  1.0000
  H   H191      1.0  0.28594  0.87463  0.49362  1.0000
  H   H192      1.0  0.12246  0.73050  0.49081  1.0000
  C   C190      1.0  0.12118  0.49115  0.06295  1.0000
  C   C191      1.0  0.06440  0.71105  0.49493  1.0000
  C   C192      1.0  0.10615  0.72522  0.49181  1.0000
  C   C193      1.0  0.31615  0.83211  0.08742  1.0000
  H   H193      1.0  0.26332  0.86687  0.00623  1.0000
  H   H194      1.0  0.19326  0.93443  0.47916  1.0000
  C   C194      1.0  0.24745  0.92688  0.48494  1.0000
  C   C195      1.0  0.28063  0.86487  0.99981  1.0000
  C   C196      1.0  0.04040  0.66651  0.99965  1.0000
  S   S61       1.0  0.06285  0.57968  0.95221  1.0000
  C   C197      1.0  0.29889  0.86812  0.79771  1.0000
  Fe  Fe31      1.0  0.07783  0.61247  0.95521  1.0000
  S   S62       1.0  0.07291  0.64321  0.91991  1.0000
  Fe  Fe32      1.0  0.23316  0.87895  0.64252  1.0000
  S   S63       1.0  0.20585  0.89487  0.67570  1.0000
  S   S64       1.0  0.22298  0.87511  0.57843  1.0000
  Fe  Fe33      1.0  0.25911  0.87169  0.71898  1.0000
  S   S65       1.0  0.23257  0.88566  0.75530  1.0000
  S   S66       1.0  0.29217  0.86501  0.74733  1.0000
  Fe  Fe34      1.0  0.21015  0.86706  0.71527  1.0000
  S   S67       1.0  0.17937  0.85201  0.73488  1.0000
  Fe  Fe35      1.0  0.23095  0.91170  0.71183  1.0000
  S   S68       1.0  0.23248  0.94553  0.73861  1.0000
  S   S69       1.0  0.23690  0.85069  0.68175  1.0000
  S   S70       1.0  0.25793  0.89820  0.67584  1.0000
  Fe  Fe36      1.0  0.10635  0.74669  0.68984  1.0000
  S   S71       1.0  0.10670  0.71229  0.66604  1.0000
  S   S72       1.0  0.13909  0.76190  0.68417  1.0000
  Fe  Fe37      1.0  0.05869  0.74508  0.70737  1.0000
  S   S73       1.0  0.05622  0.71126  0.68415  1.0000
  S   S74       1.0  0.02909  0.76032  0.73519  1.0000
  Fe  Fe38      1.0  0.08697  0.70485  0.71750  1.0000
  S   S75       1.0  0.09277  0.67308  0.74877  1.0000
  Fe  Fe39      1.0  0.07592  0.72174  0.63496  1.0000
  S   S76       1.0  0.06367  0.71119  0.57456  1.0000
  S   S77       1.0  0.08880  0.73838  0.74350  1.0000
  S   S78       1.0  0.07627  0.75637  0.65605  1.0000
  C   C198      1.0  0.00387  0.75628  0.71197  1.0000
  C   C199      1.0  0.17506  0.81168  0.59646  1.0000
  C   C200      1.0  0.00237  0.74645  0.67499  1.0000
  C   C201      1.0  0.12388  0.82843  0.64527  1.0000
  H   H195      1.0  0.01681  0.74191  0.65958  1.0000
  C   C202      1.0  0.07586  0.71558  0.52978  1.0000
  C   C203      1.0  0.26833  0.92628  0.82602  1.0000
  C   C204      1.0  0.09674  0.72288  0.52801  1.0000
  H   H196      1.0  0.28738  0.88103  0.99708  1.0000
  H   H197      1.0  0.10577  0.72630  0.55455  1.0000
  C   C205      1.0  0.23463  0.96802  0.70933  1.0000
  C   C206      1.0  0.23159  0.96630  0.66911  1.0000
  H   H198      1.0  0.22245  0.92475  0.52661  1.0000
  H   H199      1.0  0.22817  0.95086  0.65532  1.0000
  C   C207      1.0  0.14891  0.72329  0.75218  1.0000
  C   C208      1.0  0.23654  0.87504  0.53388  1.0000
  C   C209      1.0  0.23896  0.98820  0.72694  1.0000
  H   H200      1.0  0.05762  0.66099  0.69031  1.0000
  C   C210      1.0  0.25890  0.87513  0.53162  1.0000
  C   C211      1.0  0.10064  0.50820  0.97191  1.0000
  H   H201      1.0  0.26869  0.87514  0.55795  1.0000
  C   C212      1.0  0.16924  0.82610  0.72333  1.0000
  C   C213      1.0  0.18068  0.81060  0.70109  1.0000
  C   C214      1.0  0.17142  0.79079  0.69056  1.0000
  C   C215      1.0  0.15053  0.78632  0.70161  1.0000
  C   C216      1.0  0.13930  0.80155  0.72479  1.0000
  C   C217      1.0  0.14866  0.82129  0.73564  1.0000
  H   H202      1.0  0.19659  0.81397  0.69169  1.0000
  H   H203      1.0  0.18036  0.77904  0.67298  1.0000
  H   H204      1.0  0.12328  0.79832  0.73378  1.0000
  H   H205      1.0  0.13974  0.83311  0.75313  1.0000
  C   C218      1.0  0.14943  0.68495  0.73314  1.0000
  C   C219      1.0  0.07906  0.65112  0.87231  1.0000
  C   C220      1.0  0.07480  0.67266  0.86231  1.0000
  C   C221      1.0  0.07904  0.67973  0.82493  1.0000
  C   C222      1.0  0.08744  0.66527  0.79678  1.0000
  C   C223      1.0  0.09185  0.64380  0.80681  1.0000
  C   C224      1.0  0.08774  0.63675  0.84428  1.0000
  H   H206      1.0  0.06811  0.68396  0.88367  1.0000
  H   H207      1.0  0.07566  0.69634  0.81790  1.0000
  H   H208      1.0  0.09843  0.63242  0.78543  1.0000
  H   H209      1.0  0.09112  0.62016  0.85137  1.0000
  C   C225      1.0  0.17795  0.84802  0.62217  1.0000
  C   C226      1.0  0.01266  0.67641  0.69219  1.0000
  N   N20       1.0  0.28677  0.92334  0.80563  1.0000
  C   C227      1.0  0.14372  0.74054  0.77777  1.0000
  H   H210      1.0  0.12992  0.68249  0.80068  1.0000
  H   H211      1.0  0.13832  0.67145  0.73512  1.0000
  C   C228      1.0  0.28324  0.86898  0.82606  1.0000
  H   H212      1.0  0.16605  0.67896  0.73967  1.0000
  H   H213      1.0  0.12879  0.74998  0.83159  1.0000
  H   H214      1.0  0.26651  0.86783  0.81748  1.0000
  H   H215      1.0  0.14827  0.69014  0.70267  1.0000
  H   H216      1.0  0.01136  0.66799  0.66421  1.0000
  C   C229      1.0  0.30630  0.92228  0.82453  1.0000
  C   C230      1.0  0.12824  0.71566  0.82014  1.0000
  C   C231      1.0  0.31094  0.87182  0.87770  1.0000
  H   H217      1.0  0.30010  0.91413  0.75065  1.0000
  C   C232      1.0  0.28543  0.92194  0.76324  1.0000
  C   C233      1.0  0.26913  0.92760  0.86657  1.0000
  H   H218      1.0  0.20305  0.83086  0.59128  1.0000
  H   H219      1.0  0.11243  0.83534  0.62357  1.0000
  H   H220      1.0  0.15081  0.86084  0.65329  1.0000
  S   S79       1.0  0.10983  0.53463  0.96429  1.0000
  C   C234      1.0  0.28897  0.92616  0.88614  1.0000
  H   H221      1.0  0.31963  0.84660  0.99421  1.0000
  H   H222      1.0  0.28263  0.93821  0.75149  1.0000
  H   H223      1.0  0.14535  0.79673  0.60710  1.0000
  H   H224      1.0  0.12242  0.83783  0.67315  1.0000
  C   C235      1.0  0.13320  0.73668  0.81184  1.0000
  C   C236      1.0  0.28926  0.87052  0.86572  1.0000
  C   C237      1.0  0.13381  0.69879  0.79402  1.0000
  N   N21       1.0  0.14582  0.82882  0.63116  1.0000
  N   N22       1.0  0.14360  0.70280  0.76016  1.0000
  H   H225      1.0  0.18198  0.79760  0.58141  1.0000
  H   H226      1.0  0.14756  0.75683  0.77076  1.0000
  S   S80       1.0  0.10919  0.59947  0.98047  1.0000
  H   H227      1.0  0.11996  0.71241  0.84644  1.0000
  H   H228      1.0  0.01964  0.60704  0.97336  1.0000
  H   H229      1.0  0.18708  0.86241  0.62677  1.0000
  H   H230      1.0  0.15697  0.72647  0.72563  1.0000
  H   H231      1.0  0.11931  0.81172  0.65095  1.0000
  H   H232      1.0  0.27699  0.87063  0.88726  1.0000
  H   H233      1.0  0.00882  0.65333  0.99352  1.0000
  Fe  Fe40      1.0  0.09327  0.56709  0.98176  1.0000
  H   H234      1.0  0.12566  0.49257  0.93812  1.0000
  C   C238      1.0  0.23248  0.98471  0.64679  1.0000
  H   H235      1.0  0.25445  0.92951  0.88263  1.0000
  C   C239      1.0  0.15732  0.84706  0.63671  1.0000
  C   C240      1.0  0.15433  0.81132  0.61099  1.0000
  H   H236      1.0  0.04181  0.66823  0.96867  1.0000
  H   H237      1.0  0.01901  0.70901  0.78873  1.0000
  C   C241      1.0  0.03122  0.68257  0.75226  1.0000
  H   H238      1.0  0.25287  0.92738  0.81084  1.0000
  C   C242      1.0  0.18690  0.83022  0.60210  1.0000
  H   H239      1.0  0.20680  0.87475  0.50074  1.0000
  H   H240      1.0  0.05244  0.64691  0.73347  1.0000
  H   H241      1.0  0.27192  0.91179  0.75352  1.0000
  H   H242      1.0  0.04454  0.67894  0.77192  1.0000
  H   H243      1.0  0.28990  0.92670  0.91759  1.0000
  N   N23       1.0  0.02888  0.67110  0.71792  1.0000
  S   S81       1.0  0.31736  0.87310  0.92836  1.0000
  C   C243      1.0  0.04477  0.65412  0.70731  1.0000
  H   H244      1.0  0.24133  0.98963  0.75805  1.0000
  H   H245      1.0  0.03728  0.64091  0.68985  1.0000
  H   H246      1.0  0.32090  0.91973  0.80838  1.0000
  C   C244      1.0  0.32059  0.86942  0.80965  1.0000
  C   C245      1.0  0.01679  0.69952  0.76201  1.0000
  C   C246      1.0  0.00348  0.60443  0.98227  1.0000
  C   C247      1.0  0.99778  0.69308  0.70125  1.0000
  H   H247      1.0  0.22968  0.98333  0.61578  1.0000
  H   H248      1.0  0.28193  0.85605  0.97129  1.0000
  C   C248      1.0  0.99984  0.70458  0.73650  1.0000
  H   H249      1.0  0.26003  0.92242  0.50570  1.0000
  H   H250      1.0  0.07555  0.68361  0.97921  1.0000
  C   C249      1.0  0.08311  0.50467  0.99508  1.0000
  C   C250      1.0  0.30770  0.92366  0.86504  1.0000
  C   C251      1.0  0.22410  0.87482  0.49936  1.0000
  C   C252      1.0  0.54226  0.05539  0.02969  1.0000
  C   C253      1.0  0.33307  0.11610  0.17366  1.0000
  S   S82       1.0  0.40194  0.06926  0.02137  1.0000
  H   H251      1.0  0.35773  0.11559  0.13040  1.0000
  Fe  Fe41      1.0  0.37061  0.08857  0.02530  1.0000
  S   S83       1.0  0.34414  0.08381  0.06946  1.0000
  H   H252      1.0  0.49035  0.11890  0.05253  1.0000
  H   H253      1.0  0.54742  0.07188  0.02941  1.0000
  C   C254      1.0  0.34299  0.10868  0.13900  1.0000
  S   S84       1.0  0.59875  0.08088  0.02712  1.0000
  Fe  Fe42      1.0  0.61927  0.10927  0.04282  1.0000
  S   S85       1.0  0.62505  0.11439  0.10823  1.0000
  H   H254      1.0  0.49811  0.02588  0.01312  1.0000
  C   C255      1.0  0.52092  0.05074  0.02109  1.0000
  H   H255      1.0  0.56179  0.00460  0.04328  1.0000
  H   H256      1.0  0.63661  0.11059  0.18877  1.0000
  C   C256      1.0  0.55011  0.01752  0.03765  1.0000
  C   C257      1.0  0.52234  0.99076  0.02683  1.0000
  H   H257      1.0  0.57372  0.04202  0.04400  1.0000
  H   H258      1.0  0.40267  0.01228  0.05216  1.0000
  C   C258      1.0  0.51464  0.02936  0.02060  1.0000
  S   S86       1.0  0.44981  0.10827  0.01590  1.0000
  C   C259      1.0  0.64935  0.11972  0.13455  1.0000
  C   C260      1.0  0.49396  0.11195  0.02417  1.0000
  H   H259      1.0  0.65132  0.05025  0.18858  1.0000
  C   C261      1.0  0.32848  0.14505  0.02496  1.0000
  H   H260      1.0  0.34470  0.00766  0.02910  1.0000
  C   C262      1.0  0.33363  0.09263  0.11537  1.0000
  S   S87       1.0  0.38483  0.11841  0.00229  1.0000
  H   H261      1.0  0.52829  0.11559  0.03200  1.0000
  C   C263      1.0  0.55698  0.03870  0.03805  1.0000
  N   N24       1.0  0.52915  0.01310  0.02909  1.0000
  C   C264      1.0  0.51560  0.11009  0.01255  1.0000
  C   C265      1.0  0.40948  0.99856  0.03585  1.0000
  C   C266      1.0  0.65049  0.11631  0.17465  1.0000
  H   H262      1.0  0.34035  0.12870  0.19139  1.0000
  S   S88       1.0  0.60198  0.13048  0.99895  1.0000
  H   H263      1.0  0.32916  0.14731  0.10315  1.0000
  H   H264      1.0  0.33698  0.15926  0.03460  1.0000
  H   H265      1.0  0.63755  0.06927  0.12877  1.0000
  C   C267      1.0  0.42294  0.00220  0.00518  1.0000
  C   C268      1.0  0.35452  0.00216  0.00506  1.0000
  C   C269      1.0  0.47693  0.10511  0.99949  1.0000
  H   H266      1.0  0.50935  0.06359  0.01442  1.0000
  S   S89       1.0  0.64546  0.09895  0.00243  1.0000
  C   C270      1.0  0.65379  0.06504  0.11763  1.0000
  H   H267      1.0  0.65398  0.04847  0.10452  1.0000
  C   C271      1.0  0.48205  0.09623  0.96285  1.0000
  S   S90       1.0  0.35759  0.12385  0.89401  1.0000
  S   S91       1.0  0.40691  0.08813  0.93332  1.0000
  Fe  Fe43      1.0  0.62705  0.11737  0.95694  1.0000
  H   H268      1.0  0.34084  0.14515  0.96694  1.0000
  N   N25       1.0  0.60342  0.14809  0.85230  1.0000
  C   C272      1.0  0.37596  0.06331  0.84509  1.0000
  C   C273      1.0  0.58195  0.11751  0.83631  1.0000
  C   C274      1.0  0.50367  0.09456  0.95108  1.0000
  C   C275      1.0  0.38157  0.08322  0.83188  1.0000
  S   S92       1.0  0.60722  0.08985  0.93595  1.0000
  H   H269      1.0  0.59949  0.16259  0.90876  1.0000
  C   C276      1.0  0.37898  0.00994  0.95441  1.0000
  C   C277      1.0  0.52067  0.10149  0.97571  1.0000
  Fe  Fe44      1.0  0.58303  0.10115  0.98096  1.0000
  H   H270      1.0  0.46930  0.09092  0.94334  1.0000
  C   C278      1.0  0.35570  0.07921  0.77919  1.0000
  S   S93       1.0  0.54773  0.09864  0.95900  1.0000
  C   C279      1.0  0.36614  0.01698  0.98527  1.0000
  Fe  Fe45      1.0  0.37494  0.10533  0.94250  1.0000
  H   H271      1.0  0.50722  0.08784  0.92255  1.0000
  C   C280      1.0  0.36012  0.05172  0.82497  1.0000
  H   H272      1.0  0.34010  0.03199  0.76041  1.0000
  H   H273      1.0  0.36540  0.03377  0.99445  1.0000
  H   H274      1.0  0.34742  0.08590  0.75413  1.0000
  H   H275      1.0  0.59469  0.04310  0.95639  1.0000
  Fe  Fe46      1.0  0.41589  0.09823  0.99466  1.0000
  H   H276      1.0  0.64401  0.09466  0.79261  1.0000
  N   N26       1.0  0.35014  0.05977  0.79258  1.0000
  C   C281      1.0  0.33329  0.04744  0.77254  1.0000
  H   H277      1.0  0.63293  0.10332  0.86026  1.0000
  C   C282      1.0  0.33746  0.11328  0.86164  1.0000
  C   C283      1.0  0.57266  0.11950  0.87263  1.0000
  C   C284      1.0  0.61968  0.02070  0.97496  1.0000
  H   H278      1.0  0.56623  0.01634  0.95575  1.0000
  S   S94       1.0  0.39498  0.02797  0.93164  1.0000
  C   C285      1.0  0.59726  0.13215  0.82642  1.0000
  C   C286      1.0  0.57887  0.13592  0.89867  1.0000
  S   S95       1.0  0.64684  0.13667  0.91677  1.0000
  C   C287      1.0  0.33070  0.13721  0.98673  1.0000
  C   C288      1.0  0.61882  0.16381  0.84080  1.0000
  C   C289      1.0  0.58249  0.01165  0.96429  1.0000
  S   S96       1.0  0.35924  0.07707  0.96570  1.0000
  Fe  Fe47      1.0  0.39144  0.06070  0.96043  1.0000
  H   H279      1.0  0.61021  0.17772  0.82754  1.0000
  H   H280      1.0  0.57176  0.13744  0.92706  1.0000
  H   H281      1.0  0.60444  0.13050  0.79812  1.0000
  H   H282      1.0  0.63038  0.15647  0.81973  1.0000
  H   H283      1.0  0.39329  0.09274  0.84794  1.0000
  H   H284      1.0  0.38356  0.05707  0.87118  1.0000
  C   C290      1.0  0.32828  0.09348  0.86738  1.0000
  H   H285      1.0  0.64089  0.99499  0.99403  1.0000
  H   H286      1.0  0.56079  0.10825  0.88086  1.0000
  C   C291      1.0  0.59442  0.15012  0.88804  1.0000
  H   H287      1.0  0.37527  0.10698  0.78891  1.0000
  H   H288      1.0  0.33761  0.14026  0.82421  1.0000
  H   H289      1.0  0.57733  0.10468  0.81599  1.0000
  C   C292      1.0  0.59858  0.02679  0.96457  1.0000
  H   H290      1.0  0.62857  0.16967  0.86622  1.0000
  C   C293      1.0  0.37148  0.09121  0.79863  1.0000
  C   C294      1.0  0.65237  0.10672  0.80993  1.0000
  H   H291      1.0  0.35563  0.03642  0.83587  1.0000
  Fe  Fe48      1.0  0.62401  0.07235  0.98387  1.0000
  H   H292      1.0  0.33325  0.08425  0.89213  1.0000
  C   C295      1.0  0.33070  0.12490  0.82897  1.0000
  C   C296      1.0  0.64604  0.11161  0.84828  1.0000
  S   S97       1.0  0.63969  0.03967  0.97632  1.0000
  H   H293      1.0  0.32543  0.05645  0.74848  1.0000
  C   C297      1.0  0.62464  0.99958  0.98543  1.0000
  C   C298      1.0  0.58733  0.99060  0.97545  1.0000
  H   H294      1.0  0.42623  0.01853  0.99763  1.0000
  C   C299      1.0  0.48274  0.87555  0.02612  1.0000
  S   S98       1.0  0.57207  0.92327  0.04456  1.0000
  C   C300      1.0  0.32515  0.87758  0.14102  1.0000
  Fe  Fe49      1.0  0.35380  0.92736  0.01220  1.0000
  Fe  Fe50      1.0  0.60466  0.90675  0.03646  1.0000
  S   S99       1.0  0.63618  0.90428  0.07286  1.0000
  C   C301      1.0  0.63621  0.90033  0.19153  1.0000
  C   C302      1.0  0.64378  0.90417  0.12319  1.0000
  Fe  Fe51      1.0  0.35595  0.88564  0.05507  1.0000
  H   H295      1.0  0.65244  0.85369  0.25603  1.0000
  S   S100      1.0  0.34848  0.87141  0.11329  1.0000
  H   H296      1.0  0.38189  0.95923  0.07266  1.0000
  H   H297      1.0  0.37725  0.98745  0.07811  1.0000
  C   C303      1.0  0.46066  0.88007  0.01821  1.0000
  S   S101      1.0  0.37874  0.91268  0.05173  1.0000
  H   H298      1.0  0.62468  0.89788  0.21368  1.0000
  N   N27       1.0  0.40425  0.97807  0.04410  1.0000
  C   C304      1.0  0.62910  0.90133  0.15237  1.0000
  H   H299      1.0  0.61230  0.89965  0.14477  1.0000
  H   H300      1.0  0.33665  0.85897  0.18921  1.0000
  S   S102      1.0  0.33025  0.90177  0.01948  1.0000
  H   H301      1.0  0.34096  0.82818  0.04529  1.0000
  H   H302      1.0  0.50650  0.98933  0.04025  1.0000
  H   H303      1.0  0.53398  0.97984  0.04209  1.0000
  H   H304      1.0  0.39964  0.97470  0.10418  1.0000
  C   C305      1.0  0.39020  0.97470  0.07652  1.0000
  C   C306      1.0  0.41267  0.96081  0.02317  1.0000
  H   H305      1.0  0.40886  0.94452  0.02987  1.0000
  S   S103      1.0  0.52651  0.88072  0.02038  1.0000
  C   C307      1.0  0.49879  0.88811  0.01122  1.0000
  S   S104      1.0  0.59052  0.87871  0.00241  1.0000
  Fe  Fe52      1.0  0.55815  0.89669  0.00627  1.0000
  H   H306      1.0  0.44867  0.87018  0.02998  1.0000
  H   H307      1.0  0.48740  0.86218  0.04403  1.0000
  S   S105      1.0  0.37029  0.86721  0.00340  1.0000
  S   S106      1.0  0.34286  0.96182  0.02190  1.0000
  C   C308      1.0  0.32474  0.83411  0.05091  1.0000
  C   C309      1.0  0.32340  0.86865  0.17766  1.0000
  H   H308      1.0  0.32576  0.82479  0.11037  1.0000
  Fe  Fe53      1.0  0.59586  0.89740  0.94887  1.0000
  H   H309      1.0  0.33286  0.86861  0.78804  1.0000
  S   S107      1.0  0.61294  0.88040  0.89766  1.0000
  C   C310      1.0  0.55085  0.84595  0.94367  1.0000
  S   S108      1.0  0.56252  0.91266  0.94990  1.0000
  C   C311      1.0  0.47027  0.90961  0.97962  1.0000
  S   S109      1.0  0.36710  0.91243  0.95764  1.0000
  Fe  Fe54      1.0  0.34521  0.88533  0.96711  1.0000
  H   H310      1.0  0.48992  0.86680  0.93516  1.0000
  H   H311      1.0  0.64706  0.94025  0.83453  1.0000
  H   H312      1.0  0.55675  0.83601  0.96708  1.0000
  H   H313      1.0  0.56836  0.87324  0.86789  1.0000
  H   H314      1.0  0.32315  0.92206  0.88006  1.0000
  H   H315      1.0  0.34334  0.87229  0.85799  1.0000
  H   H316      1.0  0.64228  0.86131  0.84204  1.0000
  H   H317      1.0  0.62208  0.92508  0.88045  1.0000
  C   C312      1.0  0.35605  0.98024  0.99455  1.0000
  H   H318      1.0  0.58204  0.84933  0.91951  1.0000
  Fe  Fe55      1.0  0.57757  0.93836  0.98782  1.0000
  C   C313      1.0  0.63193  0.91440  0.86234  1.0000
  C   C314      1.0  0.64333  0.87858  0.84064  1.0000
  H   H319      1.0  0.49668  0.88925  0.90773  1.0000
  C   C315      1.0  0.64614  0.92298  0.83618  1.0000
  H   H320      1.0  0.50434  0.91518  0.97630  1.0000
  C   C316      1.0  0.38009  0.98811  0.94323  1.0000
  N   N28       1.0  0.52165  0.86528  0.91236  1.0000
  C   C317      1.0  0.53543  0.87276  0.88620  1.0000
  C   C318      1.0  0.52905  0.85182  0.94055  1.0000
  C   C319      1.0  0.55731  0.86697  0.88815  1.0000
  C   C320      1.0  0.56502  0.85353  0.91718  1.0000
  H   H321      1.0  0.37005  0.95645  0.95517  1.0000
  H   H322      1.0  0.39011  0.98260  0.91952  1.0000
  H   H323      1.0  0.52961  0.88351  0.86395  1.0000
  H   H324      1.0  0.46564  0.92274  0.96120  1.0000
  C   C321      1.0  0.63044  0.89211  0.86480  1.0000
  C   C322      1.0  0.36878  0.97325  0.96352  1.0000
  S   S110      1.0  0.56656  0.97249  0.97779  1.0000
  C   C323      1.0  0.60840  0.98461  0.98621  1.0000
  C   C324      1.0  0.49233  0.90534  0.98812  1.0000
  H   H325      1.0  0.49134  0.86364  0.88322  1.0000
  C   C325      1.0  0.49878  0.87148  0.90938  1.0000
  H   H326      1.0  0.51824  0.84618  0.96182  1.0000
  H   H327      1.0  0.65283  0.87879  0.94522  1.0000
  S   S111      1.0  0.42657  0.90299  0.98161  1.0000
  H   H328      1.0  0.43202  0.95009  0.97489  1.0000
  C   C326      1.0  0.32659  0.87152  0.84935  1.0000
  C   C327      1.0  0.42599  0.96387  0.99206  1.0000
  C   C328      1.0  0.43099  0.98473  0.98286  1.0000
  H   H329      1.0  0.64732  0.88964  0.99255  1.0000
  S   S112      1.0  0.61094  0.92447  0.98224  1.0000
  H   H330      1.0  0.44069  0.98743  0.95801  1.0000
  C   C329      1.0  0.45420  0.89707  0.99461  1.0000
  Fe  Fe56      1.0  0.39158  0.89603  0.99767  1.0000
  H   H331      1.0  0.61214  0.96865  0.99596  1.0000
  H   H332      1.0  0.52141  0.98501  0.99598  1.0000
  Fe  Fe57      1.0  0.87830  0.37680  0.03603  1.0000
  H   H333      1.0  0.94462  0.25945  0.36614  1.0000
  S   S113      1.0  0.86309  0.35023  0.06965  1.0000
  H   H334      1.0  0.93482  0.32206  0.22054  1.0000
  Fe  Fe58      1.0  0.92034  0.39800  0.02367  1.0000
  S   S114      1.0  0.95247  0.40500  0.05043  1.0000
  H   H335      1.0  0.91906  0.28820  0.21959  1.0000
  S   S115      1.0  0.89017  0.41005  0.05218  1.0000
  Fe  Fe59      1.0  0.88169  0.28507  0.27174  1.0000
  S   S116      1.0  0.88203  0.25314  0.23956  1.0000
  S   S117      1.0  0.88174  0.31780  0.24241  1.0000
  Fe  Fe60      1.0  0.89341  0.26300  0.35074  1.0000
  S   S118      1.0  0.89525  0.22990  0.32183  1.0000
  S   S119      1.0  0.90680  0.26757  0.41287  1.0000
  Fe  Fe61      1.0  0.91238  0.24563  0.27411  1.0000
  S   S120      1.0  0.94306  0.23919  0.24096  1.0000
  Fe  Fe62      1.0  0.86469  0.24065  0.29049  1.0000
  S   S121      1.0  0.83269  0.22354  0.28392  1.0000
  S   S122      1.0  0.91241  0.27780  0.30475  1.0000
  S   S123      1.0  0.86235  0.27349  0.32119  1.0000
  Fe  Fe63      1.0  0.72328  0.12247  0.26434  1.0000
  S   S124      1.0  0.75009  0.09786  0.25580  1.0000
  H   H336      1.0  0.93306  0.27385  0.18113  1.0000
  Fe  Fe64      1.0  0.73012  0.12200  0.35433  1.0000
  S   S125      1.0  0.75695  0.09726  0.35004  1.0000
  S   S126      1.0  0.72324  0.13742  0.41392  1.0000
  Fe  Fe65      1.0  0.76817  0.11725  0.30158  1.0000
  S   S127      1.0  0.80290  0.12700  0.29649  1.0000
  Fe  Fe66      1.0  0.73586  0.08086  0.30475  1.0000
  S   S128      1.0  0.72178  0.04767  0.30248  1.0000
  S   S129      1.0  0.74229  0.14271  0.30775  1.0000
  S   S130      1.0  0.70814  0.10478  0.31157  1.0000
  C   C330      1.0  0.82522  0.19678  0.29165  1.0000
  C   C331      1.0  0.84018  0.17956  0.29411  1.0000
  C   C332      1.0  0.83313  0.15831  0.29622  1.0000
  C   C333      1.0  0.81112  0.15408  0.29632  1.0000
  C   C334      1.0  0.79623  0.17138  0.29512  1.0000
  C   C335      1.0  0.80325  0.19254  0.29256  1.0000
  H   H337      1.0  0.85714  0.18254  0.29318  1.0000
  H   H338      1.0  0.84482  0.14505  0.29710  1.0000
  H   H339      1.0  0.77928  0.16851  0.29531  1.0000
  H   H340      1.0  0.79155  0.20574  0.29064  1.0000
  H   H341      1.0  0.91818  0.32809  0.08063  1.0000
  C   C336      1.0  0.72840  0.10109  0.45860  1.0000
  C   C337      1.0  0.72545  0.12349  0.45813  1.0000
  N   N29       1.0  0.78306  0.16554  0.20370  1.0000
  H   H342      1.0  0.72950  0.09184  0.43156  1.0000
  H   H343      1.0  0.72151  0.15250  0.49374  1.0000
  C   C338      1.0  0.87127  0.26386  0.45949  1.0000
  C   C339      1.0  0.89353  0.26560  0.45761  1.0000
  H   H344      1.0  0.82659  0.17206  0.38470  1.0000
  H   H345      1.0  0.86162  0.26348  0.43302  1.0000
  H   H346      1.0  0.66674  0.13009  0.08605  1.0000
  C   C340      1.0  0.75562  0.01837  0.28786  1.0000
  C   C341      1.0  0.73352  0.02193  0.29202  1.0000
  C   C342      1.0  0.72007  0.00431  0.29022  1.0000
  H   H347      1.0  0.76614  0.03184  0.28927  1.0000
  H   H348      1.0  0.70295  0.00692  0.29334  1.0000
  C   C343      1.0  0.71334  0.01717  0.38984  1.0000
  C   C344      1.0  0.96785  0.23059  0.26236  1.0000
  H   H349      1.0  0.93772  0.45077  0.03057  1.0000
  H   H350      1.0  0.78123  0.99444  0.27940  1.0000
  H   H351      1.0  0.93340  0.35909  0.11792  1.0000
  C   C345      1.0  0.97207  0.38853  0.02772  1.0000
  H   H352      1.0  0.74148  0.03553  0.38262  1.0000
  C   C346      1.0  0.92245  0.32666  0.11110  1.0000
  H   H353      1.0  0.76169  0.19303  0.20136  1.0000
  H   H354      1.0  0.75185  0.15834  0.22282  1.0000
  C   C347      1.0  0.86889  0.34133  0.11761  1.0000
  C   C348      1.0  0.87814  0.35465  0.14651  1.0000
  C   C349      1.0  0.88162  0.34724  0.18445  1.0000
  C   C350      1.0  0.87636  0.32627  0.19404  1.0000
  C   C351      1.0  0.86738  0.31282  0.16500  1.0000
  C   C352      1.0  0.86348  0.32039  0.12723  1.0000
  H   H355      1.0  0.88216  0.37086  0.13990  1.0000
  H   H356      1.0  0.88843  0.35788  0.20661  1.0000
  H   H357      1.0  0.86302  0.29674  0.17185  1.0000
  H   H358      1.0  0.85608  0.30998  0.10536  1.0000
  C   C353      1.0  0.96886  0.21693  0.29368  1.0000
  C   C354      1.0  0.68167  0.05902  0.21412  1.0000
  H   H359      1.0  0.66990  0.11780  0.22759  1.0000
  C   C355      1.0  0.77610  0.19358  0.39171  1.0000
  H   H360      1.0  0.80043  0.12019  0.38338  1.0000
  H   H361      1.0  0.95420  0.21176  0.30590  1.0000
  H   H362      1.0  0.98640  0.24723  0.22182  1.0000
  C   C356      1.0  0.98703  0.23685  0.24630  1.0000
  H   H363      1.0  0.71929  0.08618  0.16843  1.0000
  C   C357      1.0  0.68898  0.07633  0.14302  1.0000
  H   H364      1.0  0.80686  0.20716  0.38259  1.0000
  N   N30       1.0  0.67002  0.06669  0.14900  1.0000
  H   H365      1.0  0.79083  0.21884  0.19650  1.0000
  C   C358      1.0  0.92193  0.45946  0.03296  1.0000
  C   C359      1.0  0.76581  0.15046  0.20793  1.0000
  H   H366      1.0  0.96895  0.23700  0.40656  1.0000
  N   N31       1.0  0.92344  0.30608  0.16874  1.0000
  C   C360      1.0  0.93172  0.32312  0.18961  1.0000
  C   C361      1.0  0.91892  0.30760  0.12994  1.0000
  C   C362      1.0  0.93557  0.34237  0.17164  1.0000
  C   C363      1.0  0.91987  0.28582  0.18761  1.0000
  H   H367      1.0  0.77134  0.13676  0.22584  1.0000
  H   H368      1.0  0.80775  0.14093  0.20530  1.0000
  H   H369      1.0  0.91660  0.45901  0.06337  1.0000
  H   H370      1.0  0.91206  0.29420  0.11358  1.0000
  C   C364      1.0  0.93089  0.34411  0.13212  1.0000
  C   C365      1.0  0.97016  0.27128  0.33276  1.0000
  C   C366      1.0  0.68720  0.12846  0.17919  1.0000
  C   C367      1.0  0.79831  0.19263  0.38758  1.0000
  C   C368      1.0  0.66739  0.12725  0.11678  1.0000
  C   C369      1.0  0.68607  0.13186  0.13908  1.0000
  C   C370      1.0  0.80939  0.17270  0.38871  1.0000
  H   H371      1.0  0.69971  0.13819  0.12515  1.0000
  C   C371      1.0  0.80389  0.15795  0.20227  1.0000
  S   S131      1.0  0.90954  0.36460  0.01190  1.0000
  C   C372      1.0  0.81588  0.19417  0.19689  1.0000
  C   C373      1.0  0.74882  0.00128  0.38148  1.0000
  S   S132      1.0  0.71114  0.13479  0.20584  1.0000
  H   H372      1.0  0.90430  0.27914  0.17778  1.0000
  H   H373      1.0  0.76020  0.14415  0.17907  1.0000
  H   H374      1.0  0.83717  0.16622  0.19974  1.0000
  H   H375      1.0  0.87345  0.47522  0.04745  1.0000
  H   H376      1.0  0.82482  0.13331  0.37651  1.0000
  C   C374      1.0  0.79456  0.20169  0.19737  1.0000
  C   C375      1.0  0.77822  0.18704  0.20052  1.0000
  C   C376      1.0  0.82061  0.17215  0.19905  1.0000
  N   N32       1.0  0.79860  0.15423  0.39342  1.0000
  C   C377      1.0  0.77690  0.15509  0.39836  1.0000
  H   H377      1.0  0.70259  0.03127  0.39112  1.0000
  C   C378      1.0  0.76531  0.17472  0.39734  1.0000
  H   H378      1.0  0.90983  0.45065  0.01497  1.0000
  C   C379      1.0  0.97569  0.24667  0.38472  1.0000
  C   C380      1.0  0.81047  0.13351  0.39499  1.0000
  H   H379      1.0  0.76837  0.14051  0.40290  1.0000
  C   C381      1.0  0.66936  0.12039  0.19678  1.0000
  H   H380      1.0  0.74803  0.17520  0.40080  1.0000
  C   C382      1.0  0.87252  0.48729  0.02568  1.0000
  H   H381      1.0  0.98410  0.43629  0.00960  1.0000
  C   C383      1.0  0.96180  0.25929  0.36183  1.0000
  H   H382      1.0  0.81550  0.13029  0.42534  1.0000
  H   H383      1.0  0.76726  0.20888  0.39042  1.0000
  H   H384      1.0  0.82875  0.20547  0.19620  1.0000
  C   C384      1.0  0.70089  0.06907  0.20840  1.0000
  H   H385      1.0  0.94171  0.35599  0.18843  1.0000
  C   C385      1.0  0.73525  0.01958  0.38521  1.0000
  C   C386      1.0  0.90577  0.26624  0.49245  1.0000
  C   C387      1.0  0.70462  0.07779  0.17269  1.0000
  H   H386      1.0  0.95953  0.28064  0.31406  1.0000
  H   H387      1.0  0.69186  0.08352  0.11559  1.0000
  H   H388      1.0  0.68832  0.99448  0.39520  1.0000
  H   H389      1.0  0.76569  0.00330  0.37640  1.0000
  N   N33       1.0  0.92333  0.48161  0.02032  1.0000
  H   H390      1.0  0.71278  0.07021  0.23176  1.0000
  H   H391      1.0  0.92297  0.26763  0.49140  1.0000
  C   C388      1.0  0.76412  0.99718  0.28241  1.0000
  C   C389      1.0  0.66630  0.05795  0.18389  1.0000
  C   C390      1.0  0.72392  0.13520  0.49369  1.0000
  C   C391      1.0  0.70534  0.99657  0.39176  1.0000
  C   C392      1.0  0.72936  0.09056  0.49415  1.0000
  H   H392      1.0  0.73127  0.07322  0.49408  1.0000
  H   H393      1.0  0.67878  0.05222  0.24195  1.0000
  C   C393      1.0  0.86145  0.26301  0.49576  1.0000
  H   H394      1.0  0.84421  0.26195  0.49681  1.0000
  C   C394      1.0  0.98891  0.20922  0.30813  1.0000
  H   H395      1.0  0.65650  0.07652  0.09445  1.0000
  C   C395      1.0  0.70373  0.07061  0.79816  1.0000
  C   C396      1.0  0.88287  0.33721  0.65490  1.0000
  Fe  Fe67      1.0  0.89720  0.37596  0.95416  1.0000
  S   S133      1.0  0.90713  0.35315  0.90342  1.0000
  Fe  Fe68      1.0  0.87574  0.27652  0.72146  1.0000
  S   S134      1.0  0.89729  0.24915  0.74120  1.0000
  S   S135      1.0  0.86064  0.30307  0.76110  1.0000
  Fe  Fe69      1.0  0.87688  0.25980  0.63508  1.0000
  S   S136      1.0  0.89910  0.23198  0.64944  1.0000
  S   S137      1.0  0.86047  0.26316  0.57557  1.0000
  Fe  Fe70      1.0  0.87744  0.22806  0.70007  1.0000
  S   S138      1.0  0.86572  0.19442  0.71122  1.0000
  Fe  Fe71      1.0  0.91669  0.25559  0.68882  1.0000
  S   S139      1.0  0.95131  0.26609  0.69010  1.0000
  S   S140      1.0  0.85459  0.25497  0.68409  1.0000
  S   S141      1.0  0.89564  0.28385  0.67075  1.0000
  Fe  Fe72      1.0  0.75234  0.13065  0.69694  1.0000
  S   S142      1.0  0.71992  0.13233  0.66557  1.0000
  S   S143      1.0  0.76909  0.16304  0.69899  1.0000
  Fe  Fe73      1.0  0.74736  0.08285  0.71365  1.0000
  S   S144      1.0  0.71579  0.08212  0.68234  1.0000
  S   S145      1.0  0.75427  0.05258  0.74730  1.0000
  Fe  Fe74      1.0  0.73085  0.10101  0.63645  1.0000
  S   S146      1.0  0.72816  0.08788  0.57352  1.0000
  Fe  Fe75      1.0  0.70804  0.11319  0.71488  1.0000
  C   C397      1.0  0.69763  0.08674  0.86316  1.0000
  S   S147      1.0  0.76348  0.09977  0.66603  1.0000
  S   S148      1.0  0.73944  0.11361  0.74779  1.0000
  C   C398      1.0  0.72768  0.10223  0.52973  1.0000
  C   C399      1.0  0.72515  0.12467  0.52930  1.0000
  C   C400      1.0  0.83015  0.31479  0.67961  1.0000
  H   H396      1.0  0.72368  0.13388  0.55634  1.0000
  C   C401      1.0  0.87372  0.26361  0.53055  1.0000
  C   C402      1.0  0.80243  0.15728  0.61454  1.0000
  C   C403      1.0  0.89598  0.26513  0.52869  1.0000
  H   H397      1.0  0.71683  0.05803  0.79777  1.0000
  H   H398      1.0  0.90565  0.26566  0.55513  1.0000
  C   C404      1.0  0.83862  0.18622  0.71117  1.0000
  C   C405      1.0  0.82131  0.20073  0.70523  1.0000
  C   C406      1.0  0.80017  0.19336  0.70290  1.0000
  C   C407      1.0  0.79598  0.17141  0.70614  1.0000
  C   C408      1.0  0.81325  0.15694  0.71284  1.0000
  C   C409      1.0  0.83442  0.16434  0.71544  1.0000
  H   H399      1.0  0.82419  0.21760  0.70221  1.0000
  H   H400      1.0  0.78694  0.20471  0.69796  1.0000
  H   H401      1.0  0.81033  0.14003  0.71558  1.0000
  H   H402      1.0  0.84766  0.15298  0.72026  1.0000
  H   H403      1.0  0.95091  0.37712  0.98162  1.0000
  H   H404      1.0  0.68102  0.15101  0.87101  1.0000
  C   C410      1.0  0.74522  0.00955  0.74476  1.0000
  C   C411      1.0  0.75303  0.02668  0.72439  1.0000
  H   H405      1.0  0.81988  0.32736  0.93334  1.0000
  H   H406      1.0  0.86853  0.28690  0.85621  1.0000
  H   H407      1.0  0.83164  0.13890  0.62613  1.0000
  H   H408      1.0  0.73930  0.01254  0.77368  1.0000
  H   H409      1.0  0.89405  0.29010  0.87981  1.0000
  C   C412      1.0  0.84893  0.33027  0.96791  1.0000
  C   C413      1.0  0.83668  0.32246  0.93642  1.0000
  N   N34       1.0  0.84889  0.32035  0.65777  1.0000
  C   C414      1.0  0.97534  0.25050  0.69550  1.0000
  C   C415      1.0  0.86995  0.48092  0.98655  1.0000
  C   C416      1.0  0.84251  0.21091  0.61020  1.0000
  H   H410      1.0  0.82800  0.32559  0.70570  1.0000
  H   H411      1.0  0.96066  0.21970  0.69492  1.0000
  H   H412      1.0  0.71078  0.08630  0.79238  1.0000
  S   S149      1.0  0.67553  0.11176  0.74429  1.0000
  C   C417      1.0  0.66831  0.05579  0.87817  1.0000
  C   C418      1.0  0.97561  0.22803  0.69629  1.0000
  C   C419      1.0  0.89383  0.34043  0.86290  1.0000
  C   C420      1.0  0.90584  0.32627  0.83842  1.0000
  C   C421      1.0  0.89601  0.31492  0.80699  1.0000
  C   C422      1.0  0.87398  0.31770  0.79939  1.0000
  C   C423      1.0  0.86199  0.33212  0.82346  1.0000
  C   C424      1.0  0.87182  0.34339  0.85509  1.0000
  H   H413      1.0  0.92288  0.32388  0.84405  1.0000
  H   H414      1.0  0.90548  0.30392  0.78878  1.0000
  H   H415      1.0  0.84496  0.33448  0.81783  1.0000
  H   H416      1.0  0.86238  0.35429  0.87349  1.0000
  H   H417      1.0  0.97963  0.35721  0.94593  1.0000
  H   H418      1.0  0.70887  0.09908  0.85741  1.0000
  H   H419      1.0  0.87628  0.27011  0.89610  1.0000
  C   C425      1.0  0.76094  0.02257  0.68724  1.0000
  H   H420      1.0  0.67514  0.04330  0.82078  1.0000
  H   H421      1.0  0.81527  0.31605  0.66138  1.0000
  C   C426      1.0  0.76171  0.00142  0.67122  1.0000
  C   C427      1.0  0.85093  0.31264  0.62040  1.0000
  S   S150      1.0  0.91129  0.40863  0.96433  1.0000
  C   C428      1.0  0.87054  0.32403  0.97139  1.0000
  C   C429      1.0  0.98366  0.42019  0.95364  1.0000
  C   C430      1.0  0.87704  0.28655  0.88491  1.0000
  H   H422      1.0  0.71718  0.05196  0.61885  1.0000
  H   H423      1.0  0.77617  0.18000  0.60541  1.0000
  H   H424      1.0  0.96627  0.42012  0.95143  1.0000
  C   C431      1.0  0.83756  0.17243  0.61787  1.0000
  C   C432      1.0  0.66935  0.11737  0.79370  1.0000
  C   C433      1.0  0.84624  0.30826  0.90903  1.0000
  C   C434      1.0  0.67997  0.13297  0.81638  1.0000
  H   H425      1.0  0.83662  0.30218  0.88468  1.0000
  C   C435      1.0  0.67866  0.05573  0.84264  1.0000
  H   H426      1.0  0.84935  0.21181  0.58095  1.0000
  H   H427      1.0  0.83365  0.22633  0.61709  1.0000
  H   H428      1.0  0.70787  0.02758  0.67098  1.0000
  N   N35       1.0  0.86752  0.30234  0.91260  1.0000
  S   S151      1.0  0.86512  0.38709  0.97722  1.0000
  Fe  Fe76      1.0  0.88013  0.41955  0.99157  1.0000
  H   H429      1.0  0.83231  0.29809  0.68970  1.0000
  H   H430      1.0  0.66467  0.07207  0.93384  1.0000
  H   H431      1.0  0.89553  0.34632  0.66913  1.0000
  C   C436      1.0  0.87968  0.31009  0.94321  1.0000
  C   C437      1.0  0.96713  0.37690  0.99338  1.0000
  N   N36       1.0  0.69293  0.07121  0.83542  1.0000
  H   H432      1.0  0.69289  0.14147  0.80418  1.0000
  C   C438      1.0  0.80691  0.19518  0.60601  1.0000
  H   H433      1.0  0.79207  0.14380  0.61769  1.0000
  C   C439      1.0  0.86893  0.31720  0.59920  1.0000
  S   S152      1.0  0.86903  0.45317  0.97032  1.0000
  H   H434      1.0  0.85471  0.17037  0.62336  1.0000
  C   C440      1.0  0.79348  0.17769  0.60771  1.0000
  H   H435      1.0  0.85588  0.20958  0.63200  1.0000
  H   H436      1.0  0.89919  0.33284  0.60069  1.0000
  H   H437      1.0  0.69068  0.10010  0.92036  1.0000
  N   N37       1.0  0.82862  0.19244  0.61164  1.0000
  C   C441      1.0  0.82462  0.15456  0.61940  1.0000
  C   C442      1.0  0.71213  0.02099  0.64256  1.0000
  H   H438      1.0  0.84179  0.34118  0.98967  1.0000
  C   C443      1.0  0.68751  0.08733  0.89892  1.0000
  H   H439      1.0  0.91852  0.47265  0.96058  1.0000
  H   H440      1.0  0.65687  0.04362  0.88397  1.0000
  H   H441      1.0  0.79977  0.21105  0.60144  1.0000
  C   C444      1.0  0.67275  0.07176  0.90635  1.0000
  C   C445      1.0  0.86469  0.33226  0.67529  1.0000
  C   C446      1.0  0.67317  0.13836  0.85428  1.0000
  H   H442      1.0  0.76724  0.03557  0.67148  1.0000
  C   C447      1.0  0.92164  0.48563  0.98166  1.0000
  H   H443      1.0  0.69218  0.06734  0.77378  1.0000
  C   C448      1.0  0.72471  0.00374  0.57124  1.0000
  H   H444      1.0  0.72845  0.03684  0.55543  1.0000
  H   H445      1.0  0.76844  0.99832  0.64294  1.0000
  C   C449      1.0  0.71760  0.03469  0.61358  1.0000
  H   H446      1.0  0.89663  0.30572  0.94576  1.0000
  H   H447      1.0  0.83884  0.30248  0.60693  1.0000
  C   C450      1.0  0.71297  0.99871  0.63505  1.0000
  H   H448      1.0  0.88012  0.33001  0.99582  1.0000
  H   H449      1.0  0.87066  0.31056  0.56985  1.0000
  H   H450      1.0  0.86354  0.33760  0.70548  1.0000
  C   C451      1.0  0.72396  0.02609  0.57772  1.0000
  C   C452      1.0  0.88495  0.32962  0.61658  1.0000
  C   C453      1.0  0.98343  0.36569  0.97303  1.0000
  H   H451      1.0  0.72992  0.99711  0.54346  1.0000
  C   C454      1.0  0.65614  0.12780  0.87043  1.0000
  H   H452      1.0  0.98826  0.40223  0.89977  1.0000
  N   N38       1.0  0.71911  0.99039  0.59964  1.0000
  S   S153      1.0  0.90283  0.60716  0.03328  1.0000
  Fe  Fe77      1.0  0.87870  0.63488  0.03298  1.0000
  S   S154      1.0  0.87851  0.66379  0.07637  1.0000
  Fe  Fe78      1.0  0.86211  0.77076  0.29104  1.0000
  S   S155      1.0  0.84069  0.74703  0.31628  1.0000
  S   S156      1.0  0.84990  0.80429  0.27422  1.0000
  Fe  Fe79      1.0  0.90281  0.74140  0.30340  1.0000
  S   S157      1.0  0.88354  0.71662  0.33138  1.0000
  S   S158      1.0  0.93669  0.72777  0.29383  1.0000
  Fe  Fe80      1.0  0.86011  0.72192  0.28149  1.0000
  S   S159      1.0  0.84801  0.69248  0.24670  1.0000
  Fe  Fe81      1.0  0.86642  0.74412  0.36312  1.0000
  S   S160      1.0  0.86088  0.75455  0.42638  1.0000
  S   S161      1.0  0.87973  0.74597  0.25294  1.0000
  S   S162      1.0  0.88751  0.76858  0.33845  1.0000
  Fe  Fe82      1.0  0.72171  0.90844  0.36365  1.0000
  S   S163      1.0  0.75430  0.90370  0.33783  1.0000
  S   S164      1.0  0.72506  0.92133  0.42644  1.0000
  Fe  Fe83      1.0  0.69939  0.90179  0.28196  1.0000
  S   S165      1.0  0.73088  0.89711  0.25196  1.0000
  H   H453      1.0  0.87534  0.51401  0.06720  1.0000
  Fe  Fe84      1.0  0.74097  0.87635  0.30203  1.0000
  S   S166      1.0  0.75453  0.84169  0.29965  1.0000
  Fe  Fe85      1.0  0.74125  0.92506  0.29104  1.0000
  S   S167      1.0  0.76169  0.95300  0.27644  1.0000
  S   S168      1.0  0.70881  0.87956  0.33058  1.0000
  S   S169      1.0  0.70924  0.93096  0.31803  1.0000
  C   C455      1.0  0.75061  0.97952  0.28127  1.0000
  H   H454      1.0  0.85375  0.70398  0.03959  1.0000
  C   C456      1.0  0.72043  0.84462  0.21399  1.0000
  H   H455      1.0  0.71003  0.83809  0.27098  1.0000
  H   H456      1.0  0.71789  0.96995  0.28296  1.0000
  C   C457      1.0  0.82290  0.81406  0.27808  1.0000
  C   C458      1.0  0.80653  0.80083  0.28869  1.0000
  C   C459      1.0  0.78556  0.80946  0.29377  1.0000
  C   C460      1.0  0.78072  0.83145  0.28883  1.0000
  C   C461      1.0  0.79691  0.84461  0.27717  1.0000
  C   C462      1.0  0.81788  0.83592  0.27180  1.0000
  H   H457      1.0  0.81005  0.78397  0.29329  1.0000
  H   H458      1.0  0.77313  0.79907  0.30243  1.0000
  H   H459      1.0  0.79340  0.86152  0.27287  1.0000
  H   H460      1.0  0.83039  0.84627  0.26326  1.0000
  C   C463      1.0  0.70004  0.89641  0.47190  1.0000
  C   C464      1.0  0.71593  0.91166  0.47070  1.0000
  H   H461      1.0  0.72603  0.85293  0.15522  1.0000
  H   H462      1.0  0.69311  0.88986  0.44515  1.0000
  C   C465      1.0  0.90877  0.65225  0.18348  1.0000
  H   H463      1.0  0.75882  0.95543  0.40773  1.0000
  C   C466      1.0  0.85760  0.74215  0.47125  1.0000
  H   H464      1.0  0.97640  0.57796  0.04908  1.0000
  H   H465      1.0  0.85566  0.70958  0.44848  1.0000
  C   C467      1.0  0.87225  0.52557  0.00919  1.0000
  C   C468      1.0  0.96395  0.76197  0.30622  1.0000
  C   C469      1.0  0.96190  0.73994  0.29801  1.0000
  C   C470      1.0  0.90857  0.73500  0.47695  1.0000
  H   H466      1.0  0.94976  0.77219  0.31044  1.0000
  C   C471      1.0  0.80590  0.64748  0.00597  1.0000
  C   C472      1.0  0.86893  0.67137  0.12318  1.0000
  C   C473      1.0  0.85697  0.65783  0.14505  1.0000
  C   C474      1.0  0.85024  0.66470  0.18242  1.0000
  C   C475      1.0  0.85556  0.68504  0.19848  1.0000
  C   C476      1.0  0.86720  0.69865  0.17622  1.0000
  C   C477      1.0  0.87372  0.69190  0.13881  1.0000
  H   H467      1.0  0.85306  0.64202  0.13341  1.0000
  H   H468      1.0  0.84116  0.65407  0.19929  1.0000
  H   H469      1.0  0.87123  0.71440  0.18783  1.0000
  H   H470      1.0  0.88280  0.70261  0.12208  1.0000
  C   C478      1.0  0.98047  0.72689  0.29233  1.0000
  H   H471      1.0  0.91186  0.76777  0.46081  1.0000
  H   H472      1.0  0.73729  0.84156  0.22117  1.0000
  H   H473      1.0  0.74738  0.94949  0.36030  1.0000
  N   N39       1.0  0.68371  0.84703  0.23353  1.0000
  C   C479      1.0  0.85574  0.71992  0.47435  1.0000
  H   H474      1.0  0.86831  0.68811  0.00414  1.0000
  H   H475      1.0  0.65851  0.92507  0.01261  1.0000
  H   H476      1.0  0.77023  0.96567  0.36436  1.0000
  H   H477      1.0  0.66050  0.85613  0.19013  1.0000
  H   H478      1.0  0.98594  0.78791  0.31428  1.0000
  C   C480      1.0  0.66779  0.84497  0.26353  1.0000
  Fe  Fe86      1.0  0.87752  0.58736  0.00162  1.0000
  C   C481      1.0  0.87351  0.50940  0.03683  1.0000
  C   C482      1.0  0.65801  0.90238  0.20225  1.0000
  C   C483      1.0  0.91847  0.67180  0.17785  1.0000
  H   H479      1.0  0.71314  0.96262  0.38998  1.0000
  H   H480      1.0  0.91828  0.72207  0.21250  1.0000
  H   H481      1.0  0.68723  0.86008  0.13975  1.0000
  N   N40       1.0  0.74078  0.98114  0.38266  1.0000
  H   H482      1.0  0.97904  0.70984  0.28594  1.0000
  C   C484      1.0  0.89857  0.64919  0.21822  1.0000
  C   C485      1.0  0.75512  0.96207  0.37883  1.0000
  C   C486      1.0  0.91202  0.75680  0.48453  1.0000
  C   C487      1.0  0.69239  0.85485  0.16825  1.0000
  C   C488      1.0  0.97907  0.58801  0.02487  1.0000
  H   H483      1.0  0.90856  0.63987  0.16050  1.0000
  C   C489      1.0  0.92657  0.49806  0.04702  1.0000
  C   C490      1.0  0.98447  0.77082  0.30838  1.0000
  N   N41       1.0  0.81216  0.83251  0.37468  1.0000
  C   C491      1.0  0.79500  0.82104  0.38496  1.0000
  C   C492      1.0  0.83208  0.82270  0.37185  1.0000
  C   C493      1.0  0.79751  0.79909  0.39226  1.0000
  C   C494      1.0  0.83514  0.80083  0.37911  1.0000
  C   C495      1.0  0.81775  0.78899  0.38938  1.0000
  C   C496      1.0  0.80940  0.85565  0.36857  1.0000
  H   H484      1.0  0.77914  0.82872  0.38649  1.0000
  H   H485      1.0  0.84564  0.83160  0.36293  1.0000
  H   H486      1.0  0.78383  0.78992  0.39962  1.0000
  H   H487      1.0  0.85086  0.79302  0.37628  1.0000
  H   H488      1.0  0.81998  0.77195  0.39477  1.0000
  H   H489      1.0  0.79289  0.85978  0.35756  1.0000
  H   H490      1.0  0.81243  0.86486  0.39617  1.0000
  H   H491      1.0  0.82059  0.86083  0.34644  1.0000
  H   H492      1.0  0.83292  0.67948  0.07058  1.0000
  C   C497      1.0  0.67265  0.90550  0.17312  1.0000
  S   S170      1.0  0.66625  0.89920  0.25177  1.0000
  H   H493      1.0  0.94412  0.70836  0.21415  1.0000
  H   H494      1.0  0.68947  0.90710  0.18072  1.0000
  N   N42       1.0  0.91779  0.68792  0.20592  1.0000
  H   H495      1.0  0.88983  0.66370  0.27357  1.0000
  C   C498      1.0  0.90815  0.68489  0.24031  1.0000
  C   C499      1.0  0.92747  0.51931  0.03532  1.0000
  C   C500      1.0  0.89832  0.66556  0.24693  1.0000
  C   C501      1.0  0.82764  0.67271  0.04267  1.0000
  C   C502      1.0  0.92797  0.70836  0.19975  1.0000
  H   H496      1.0  0.67355  0.85248  0.29142  1.0000
  H   H497      1.0  0.90753  0.69765  0.26248  1.0000
  H   H498      1.0  0.80621  0.65110  0.06837  1.0000
  H   H499      1.0  0.66467  0.82776  0.26749  1.0000
  H   H500      1.0  0.92593  0.67420  0.15042  1.0000
  C   C503      1.0  0.72854  0.98325  0.28483  1.0000
  H   H501      1.0  0.92948  0.71134  0.16846  1.0000
  H   H502      1.0  0.89035  0.63442  0.22250  1.0000
  C   C504      1.0  0.70493  0.84273  0.24210  1.0000
  H   H503      1.0  0.92905  0.53249  0.05658  1.0000
  C   C505      1.0  0.71410  0.85093  0.17697  1.0000
  H   H504      1.0  0.90563  0.72908  0.44738  1.0000
  C   C506      1.0  0.81249  0.65663  0.04162  1.0000
  H   H505      1.0  0.79443  0.63474  0.00473  1.0000
  S   S171      1.0  0.87479  0.55320  0.02533  1.0000
  H   H506      1.0  0.67715  0.90846  0.11175  1.0000
  S   S172      1.0  0.85253  0.61502  0.00462  1.0000
  C   C507      1.0  0.71942  0.97862  0.38846  1.0000
  C   C508      1.0  0.66560  0.90622  0.13393  1.0000
  C   C509      1.0  0.67730  0.85262  0.19696  1.0000
  H   H507      1.0  0.92778  0.49493  0.07768  1.0000
  C   C510      1.0  0.96158  0.59739  0.00473  1.0000
  H   H508      1.0  0.94549  0.59442  0.01325  1.0000
  N   N43       1.0  0.83603  0.67944  0.00913  1.0000
  C   C511      1.0  0.85239  0.69583  0.01046  1.0000
  Fe  Fe87      1.0  0.86549  0.62488  0.94727  1.0000
  C   C512      1.0  0.90915  0.71424  0.57738  1.0000
  S   S173      1.0  0.84729  0.63737  0.89359  1.0000
  N   N44       1.0  0.73690  0.84624  0.59923  1.0000
  H   H509      1.0  0.79036  0.83630  0.79158  1.0000
  H   H510      1.0  0.71576  0.85493  0.55252  1.0000
  H   H511      1.0  0.73697  0.93186  0.50529  1.0000
  N   N45       1.0  0.66576  0.90961  0.95804  1.0000
  S   S174      1.0  0.88800  0.59578  0.94218  1.0000
  Fe  Fe88      1.0  0.86237  0.73109  0.64665  1.0000
  S   S175      1.0  0.87991  0.76132  0.64008  1.0000
  S   S176      1.0  0.85231  0.71268  0.59119  1.0000
  Fe  Fe89      1.0  0.87114  0.73115  0.73525  1.0000
  S   S177      1.0  0.88982  0.76162  0.73262  1.0000
  S   S178      1.0  0.87202  0.71897  0.79752  1.0000
  Fe  Fe90      1.0  0.86276  0.77351  0.69337  1.0000
  S   S179      1.0  0.85081  0.80875  0.69601  1.0000
  Fe  Fe91      1.0  0.90502  0.74654  0.67949  1.0000
  S   S180      1.0  0.93833  0.74235  0.65430  1.0000
  S   S181      1.0  0.84330  0.74396  0.69823  1.0000
  S   S182      1.0  0.88812  0.71556  0.68429  1.0000
  Fe  Fe92      1.0  0.70729  0.89873  0.64621  1.0000
  S   S183      1.0  0.74302  0.89890  0.65196  1.0000
  S   S184      1.0  0.69175  0.88978  0.58761  1.0000
  Fe  Fe93      1.0  0.70114  0.90990  0.73394  1.0000
  S   S185      1.0  0.73705  0.91121  0.74472  1.0000
  S   S186      1.0  0.67796  0.92151  0.78209  1.0000
  Fe  Fe94      1.0  0.73733  0.92915  0.68903  1.0000
  S   S187      1.0  0.75527  0.95801  0.66991  1.0000
  Fe  Fe95      1.0  0.73952  0.88091  0.70649  1.0000
  S   S188      1.0  0.75608  0.84830  0.71954  1.0000
  S   S189      1.0  0.70160  0.92975  0.68028  1.0000
  S   S190      1.0  0.70357  0.87874  0.69868  1.0000
  C   C513      1.0  0.70121  0.89864  0.54300  1.0000
  H   H512      1.0  0.72401  0.83699  0.65263  1.0000
  C   C514      1.0  0.71748  0.91348  0.54179  1.0000
  H   H513      1.0  0.98862  0.71777  0.74357  1.0000
  H   H514      1.0  0.72447  0.91991  0.56857  1.0000
  C   C515      1.0  0.85414  0.72430  0.54518  1.0000
  H   H515      1.0  0.98119  0.73509  0.62897  1.0000
  C   C516      1.0  0.85597  0.74648  0.54186  1.0000
  H   H516      1.0  0.66766  0.96122  0.99217  1.0000
  H   H517      1.0  0.85574  0.75694  0.56751  1.0000
  C   C517      1.0  0.82394  0.81910  0.69845  1.0000
  C   C518      1.0  0.81983  0.84136  0.69511  1.0000
  C   C519      1.0  0.79902  0.85054  0.70006  1.0000
  C   C520      1.0  0.78217  0.83754  0.70926  1.0000
  C   C521      1.0  0.78620  0.81523  0.71185  1.0000
  C   C522      1.0  0.80690  0.80601  0.70613  1.0000
  H   H518      1.0  0.83291  0.85164  0.68919  1.0000
  H   H519      1.0  0.79619  0.86773  0.69801  1.0000
  H   H520      1.0  0.77324  0.80500  0.71866  1.0000
  H   H521      1.0  0.80979  0.78886  0.70862  1.0000
  H   H522      1.0  0.73762  0.96156  0.59014  1.0000
  C   C523      1.0  0.96321  0.74821  0.67735  1.0000
  H   H523      1.0  0.70458  0.84623  0.61770  1.0000
  H   H524      1.0  0.95018  0.76259  0.72966  1.0000
  C   C524      1.0  0.67357  0.91188  0.92182  1.0000
  H   H525      1.0  0.73932  0.97543  0.74418  1.0000
  H   H526      1.0  0.88136  0.60913  0.85557  1.0000
  C   C525      1.0  0.88506  0.61594  0.82727  1.0000
  H   H527      1.0  0.89953  0.69998  0.56931  1.0000
  H   H528      1.0  0.92559  0.70906  0.58696  1.0000
  C   C526      1.0  0.85408  0.66024  0.86720  1.0000
  C   C527      1.0  0.86770  0.67586  0.88297  1.0000
  C   C528      1.0  0.87250  0.69386  0.86146  1.0000
  C   C529      1.0  0.86433  0.69626  0.82341  1.0000
  C   C530      1.0  0.85079  0.68060  0.80747  1.0000
  C   C531      1.0  0.84548  0.66287  0.82947  1.0000
  H   H529      1.0  0.87447  0.67422  0.91184  1.0000
  H   H530      1.0  0.88297  0.70584  0.87416  1.0000
  H   H531      1.0  0.84421  0.68224  0.77839  1.0000
  H   H532      1.0  0.83476  0.65104  0.81700  1.0000
  C   C532      1.0  0.81460  0.65438  0.97196  1.0000
  H   H533      1.0  0.79003  0.85530  0.60580  1.0000
  H   H534      1.0  0.71762  0.81990  0.61060  1.0000
  H   H535      1.0  0.91677  0.75606  0.58257  1.0000
  H   H536      1.0  0.68491  0.93385  0.88051  1.0000
  S   S191      1.0  0.88961  0.64606  0.97569  1.0000
  H   H537      1.0  0.89378  0.60349  0.80937  1.0000
  C   C533      1.0  0.67694  0.94999  0.93497  1.0000
  C   C534      1.0  0.85756  0.75532  0.50518  1.0000
  N   N46       1.0  0.81939  0.81714  0.79761  1.0000
  C   C535      1.0  0.84109  0.81665  0.79272  1.0000
  C   C536      1.0  0.80888  0.79844  0.80162  1.0000
  C   C537      1.0  0.85280  0.79705  0.79123  1.0000
  C   C538      1.0  0.82009  0.77853  0.79998  1.0000
  C   C539      1.0  0.84220  0.77788  0.79478  1.0000
  C   C540      1.0  0.98493  0.76222  0.73146  1.0000
  H   H538      1.0  0.84941  0.83139  0.78867  1.0000
  H   H539      1.0  0.79166  0.79881  0.80531  1.0000
  H   H540      1.0  0.86989  0.79675  0.78611  1.0000
  H   H541      1.0  0.66765  0.87654  0.79671  1.0000
  H   H542      1.0  0.85108  0.76255  0.79311  1.0000
  C   C541      1.0  0.91432  0.75008  0.55291  1.0000
  H   H543      1.0  0.81003  0.64702  0.94408  1.0000
  C   C542      1.0  0.80756  0.83792  0.80024  1.0000
  C   C543      1.0  0.85386  0.71108  0.51119  1.0000
  H   H544      1.0  0.84851  0.70829  0.98893  1.0000
  C   C544      1.0  0.66954  0.94742  0.97225  1.0000
  C   C545      1.0  0.69261  0.89008  0.50788  1.0000
  H   H545      1.0  0.67408  0.87949  0.98206  1.0000
  C   C546      1.0  0.96501  0.61038  0.97349  1.0000
  H   H546      1.0  0.80859  0.84479  0.83031  1.0000
  C   C547      1.0  0.66429  0.92693  0.98357  1.0000
  H   H547      1.0  0.81171  0.76366  0.80232  1.0000
  H   H548      1.0  0.85227  0.69391  0.51338  1.0000
  C   C548      1.0  0.71996  0.83675  0.62102  1.0000
  C   C549      1.0  0.73204  0.85508  0.56430  1.0000
  N   N47       1.0  0.89795  0.63513  0.83268  1.0000
  C   C550      1.0  0.91097  0.63752  0.86492  1.0000
  C   C551      1.0  0.89745  0.65018  0.80473  1.0000
  C   C552      1.0  0.92342  0.65570  0.87043  1.0000
  C   C553      1.0  0.90970  0.66856  0.80928  1.0000
  C   C554      1.0  0.92265  0.67136  0.84250  1.0000
  H   H549      1.0  0.91164  0.62546  0.88684  1.0000
  H   H550      1.0  0.93345  0.65761  0.89642  1.0000
  H   H551      1.0  0.90853  0.68094  0.78785  1.0000
  H   H552      1.0  0.93184  0.68578  0.84679  1.0000
  H   H553      1.0  0.81417  0.84948  0.78024  1.0000
  H   H554      1.0  0.88703  0.64839  0.77928  1.0000
  C   C555      1.0  0.86956  0.51921  0.97007  1.0000
  C   C556      1.0  0.76873  0.86542  0.55907  1.0000
  H   H555      1.0  0.86929  0.62003  0.81316  1.0000
  Fe  Fe96      1.0  0.91140  0.61693  0.97397  1.0000
  H   H556      1.0  0.67492  0.89814  0.90160  1.0000
  C   C557      1.0  0.77377  0.85535  0.59374  1.0000
  H   H557      1.0  0.98596  0.76989  0.76005  1.0000
  H   H558      1.0  0.90104  0.72241  0.60236  1.0000
  C   C558      1.0  0.75758  0.84557  0.61329  1.0000
  H   H559      1.0  0.86837  0.53130  0.94835  1.0000
  N   N48       1.0  0.91015  0.72888  0.54527  1.0000
  C   C559      1.0  0.96465  0.75806  0.71436  1.0000
  S   S192      1.0  0.94334  0.62244  0.94831  1.0000
  H   H560      1.0  0.76158  0.83769  0.64001  1.0000
  C   C560      1.0  0.74778  0.86508  0.54393  1.0000
  C   C561      1.0  0.98215  0.74257  0.65772  1.0000
  C   C562      1.0  0.67925  0.93208  0.90971  1.0000
  H   H561      1.0  0.78100  0.87347  0.54397  1.0000
  C   C563      1.0  0.72461  0.92012  0.50585  1.0000
  H   H562      1.0  0.68004  0.87856  0.50848  1.0000
  H   H563      1.0  0.91777  0.78131  0.52904  1.0000
  C   C564      1.0  0.98596  0.61388  0.96220  1.0000
  C   C565      1.0  0.86823  0.49711  0.95898  1.0000
  C   C566      1.0  0.75390  0.98428  0.69157  1.0000
  C   C567      1.0  0.82982  0.67039  0.97411  1.0000
  C   C568      1.0  0.91509  0.76440  0.52273  1.0000
  C   C569      1.0  0.92260  0.50668  0.96895  1.0000
  H   H564      1.0  0.68081  0.96583  0.92561  1.0000
  C   C570      1.0  0.65929  0.90948  0.81241  1.0000
  C   C571      1.0  0.74530  0.98849  0.72817  1.0000
  H   H565      1.0  0.71352  0.95815  0.61582  1.0000
  C   C572      1.0  0.72051  0.96704  0.59212  1.0000
  H   H566      1.0  0.86601  0.49252  0.92866  1.0000
  H   H567      1.0  0.92032  0.50993  0.93847  1.0000
  H   H568      1.0  0.90420  0.70442  0.50177  1.0000
  H   H569      1.0  0.71172  0.96252  0.56481  1.0000
  H   H570      1.0  0.83682  0.67533  0.94756  1.0000
  H   H571      1.0  0.85891  0.77253  0.50316  1.0000
  H   H572      1.0  0.74357  0.87287  0.51701  1.0000
  H   H573      1.0  0.70931  0.98813  0.65811  1.0000
  H   H574      1.0  0.98504  0.69749  0.68072  1.0000
  C   C573      1.0  0.90764  0.72118  0.50786  1.0000
  H   H575      1.0  0.92527  0.54012  0.98682  1.0000
  C   C574      1.0  0.65980  0.88831  0.97007  1.0000
  C   C575      1.0  0.65772  0.88717  0.81476  1.0000
  H   H576      1.0  0.98865  0.62378  0.93781  1.0000
  C   C576      1.0  0.92539  0.52361  0.99605  1.0000
