data_image0
_chemical_formula_structural       FeS2FeSCFeS2FeS2FeSFeS3HCH3C2HCHCHC2HCH3C2HC6H5NH2C3FeH7C2HCHSH4C2NCHCHC2HNHCHCHCH2SHC5NCH4CH2C4HCFeCSNHCHCHFeS2FeSHNH2CNSFeS2FeS2FeSFeS3H2CH2C3HNCHC2HCHSC6H6FeCHC2HSHC2H2C5H2CHC2H3FeH4CSHC2HCHC2SCHC4HC3H2CSNC2H4CHCH2C2HCHC2H3CSCFeS2FeS2FeSFeS3CHC2HC2H2CH2C6H4FeC3HNHC2H4CSH2CHCHC3NSH3CH2C2HSC2HCSCH2C2HCHCH3CH3C2HC2HC2HSHFeC3H2CNH2C3NHCN2H2CFeSHFeHFeCS2HSCHCSFeS2FeS2FeS2FeSFeS3C3H2C9H5CHC2H2CNH2SC2HC2HC2NCHC3HFeHCHC2H7FeHNSC2H2CHSH2CNHC3HCH3CH2C2SH3CHC3H3CH6FeS2FeSCFeSFeS3FeSHFeS2FeSFeCS2C4SHCHC6H5CSCH2C3HC2H5C2H3CH2C2HCH4C3SCH2CH2CNHSNH2C2H2CHNSCFeS2FeSHFeHFeS3FeS2FeSCFeSFeHS2NH3C7H8CH2CSCH2C2H2CHNH2C3H4C2HCH2C3HCSCSNC3H2C4HSC2H5C2HCHC2H2NC2FeS2FeS2FeSFeCS2FeS2FeS2FeSFeCS2C3HCHC2HC2HCH2CHC4H4C6H4C2HCH2CHC5HN2H4NCHCSHCH3NC6H8CHC2HCH3C3H3C2HC2HCH2C3HC7FeS2FeS2FeHFeS3FeS2FeSHFeSFeS3HCSHCH5CH2C6H2C6H7CNC4H2C4HC2HCSCHCH3CHC2H3CH2NHNC6H2CH2C4H3CSHCH2CHCNHFeS2FeSCFeS2FeS2FeSFeS3C4H2C3H5C3HC6H4CHNHFeH4CNCH2FeSHC2HCNCH3C3HCNHC5H6CHCHC4H2CHC2HSH2CHCNCSCSH2CHCH2C3HCH7C2H5C2H4C3HFeS2FeSC2HCHC2FeS2FeS2FeSFeS3C2HCH2C2SHC3HC6H4CSCH5CNCNH3CHCHSC2HCH2FeSC3NC6H8CH2C2HCH2SHNHC3H2CH3FeH2SHCH2FeS2FeS2FeSFeCS2C3HCH3FeH5C2NC6H5SHC3H3CHC4HCHCH2NC2HCH2C2SH3C2FeH2C4H2C2SH2SCFeSHFeSHFeS2FeSCFeSFeSC2FeS2FeS2FeSFeCS2CHCHC2H3CHC3HSCSC6H5C3H4C4S2C2H2SCH6CH2C3HC2NCHCH4C2NH3CH2NHC2HCH2C2H2CHC2
_chemical_formula_sum              "Fe96 S192 C576 H576 N48"
_cell_length_a       58.2521
_cell_length_b       58.2371
_cell_length_c       36.1793
_cell_angle_alpha    89.6727
_cell_angle_beta     89.7524
_cell_angle_gamma    86.1318

_space_group_name_H-M_alt    "P 1"
_space_group_IT_number       1

loop_
  _space_group_symop_operation_xyz
  'x, y, z'

loop_
  _atom_site_type_symbol
  _atom_site_label
  _atom_site_symmetry_multiplicity
  _atom_site_fract_x
  _atom_site_fract_y
  _atom_site_fract_z
  _atom_site_occupancy
  Fe  Fe1       1.0  0.10927  0.26735  0.03523  1.0000
  S   S1        1.0  0.11266  0.29375  0.08146  1.0000
  S   S2        1.0  0.10708  0.22858  0.03071  1.0000
  Fe  Fe2       1.0  0.30538  0.08333  0.04009  1.0000
  S   S3        1.0  0.27148  0.07216  0.05998  1.0000
  C   C1        1.0  0.12631  0.47852  0.29531  1.0000
  Fe  Fe3       1.0  0.09129  0.34744  0.27960  1.0000
  S   S4        1.0  0.09515  0.38146  0.25169  1.0000
  S   S5        1.0  0.09103  0.31209  0.25263  1.0000
  Fe  Fe4       1.0  0.07832  0.37024  0.35489  1.0000
  S   S6        1.0  0.08045  0.40612  0.33247  1.0000
  S   S7        1.0  0.06409  0.36286  0.41204  1.0000
  Fe  Fe5       1.0  0.06304  0.39329  0.28224  1.0000
  S   S8        1.0  0.03380  0.41150  0.25160  1.0000
  Fe  Fe6       1.0  0.11241  0.39146  0.30418  1.0000
  S   S9        1.0  0.14522  0.40964  0.30381  1.0000
  S   S10       1.0  0.05774  0.35880  0.30672  1.0000
  S   S11       1.0  0.11167  0.35611  0.33002  1.0000
  H   H1        1.0  0.11095  0.48992  0.29762  1.0000
  C   C2        1.0  0.01121  0.41190  0.31800  1.0000
  H   H2        1.0  0.04024  0.36477  0.22456  1.0000
  H   H3        1.0  0.02798  0.41214  0.33061  1.0000
  H   H4        1.0  0.02887  0.46573  0.23480  1.0000
  C   C3        1.0  0.14512  0.43973  0.29719  1.0000
  C   C4        1.0  0.12508  0.45449  0.29997  1.0000
  H   H5        1.0  0.03895  0.32455  0.24219  1.0000
  C   C5        1.0  0.19098  0.15039  0.03200  1.0000
  H   H6        1.0  0.15168  0.30391  0.41515  1.0000
  C   C6        1.0  0.16614  0.44905  0.28961  1.0000
  H   H7        1.0  0.10880  0.44742  0.30599  1.0000
  C   C7        1.0  0.09334  0.30955  0.40963  1.0000
  C   C8        1.0  0.05292  0.46745  0.29722  1.0000
  H   H8        1.0  0.18165  0.43780  0.28739  1.0000
  C   C9        1.0  0.08037  0.36271  0.45329  1.0000
  H   H9        1.0  0.29261  0.13016  0.06527  1.0000
  H   H10       1.0  0.15473  0.10258  0.01980  1.0000
  H   H11       1.0  0.03468  0.23865  0.03979  1.0000
  C   C10       1.0  0.10435  0.36304  0.45271  1.0000
  C   C11       1.0  0.00915  0.41151  0.27952  1.0000
  H   H12       1.0  0.11328  0.36460  0.42661  1.0000
  C   C12       1.0  0.10747  0.29758  0.12960  1.0000
  C   C13       1.0  0.11320  0.31831  0.14591  1.0000
  C   C14       1.0  0.10836  0.32295  0.18345  1.0000
  C   C15       1.0  0.09805  0.30670  0.20543  1.0000
  C   C16       1.0  0.09269  0.28574  0.18939  1.0000
  C   C17       1.0  0.09722  0.28124  0.15161  1.0000
  H   H13       1.0  0.12125  0.33102  0.12923  1.0000
  H   H14       1.0  0.11273  0.33909  0.19536  1.0000
  H   H15       1.0  0.08485  0.27295  0.20618  1.0000
  H   H16       1.0  0.09281  0.26517  0.13954  1.0000
  H   H17       1.0  0.31475  0.14710  0.11966  1.0000
  N   N1        1.0  0.02781  0.46873  0.29350  1.0000
  H   H18       1.0  0.10761  0.29514  0.32227  1.0000
  H   H19       1.0  0.31598  0.05737  0.19515  1.0000
  C   C18       1.0  0.06902  0.36071  0.48741  1.0000
  C   C19       1.0  0.01423  0.47184  0.32424  1.0000
  C   C20       1.0  0.06366  0.34456  0.12943  1.0000
  Fe  Fe7       1.0  0.27781  0.04146  0.02274  1.0000
  H   H20       1.0  0.30971  0.06615  0.12840  1.0000
  H   H21       1.0  0.04333  0.30240  0.20879  1.0000
  H   H22       1.0  0.13547  0.36004  0.48507  1.0000
  H   H23       1.0  0.05836  0.45892  0.32361  1.0000
  H   H24       1.0  0.26968  0.09567  0.19596  1.0000
  H   H25       1.0  0.05047  0.36042  0.48810  1.0000
  H   H26       1.0  0.05787  0.39242  0.18304  1.0000
  C   C21       1.0  0.06760  0.30540  0.35717  1.0000
  C   C22       1.0  0.01962  0.23427  0.02463  1.0000
  H   H27       1.0  0.07074  0.33849  0.10312  1.0000
  C   C23       1.0  0.16730  0.47276  0.28436  1.0000
  H   H28       1.0  0.11716  0.31325  0.45443  1.0000
  S   S12       1.0  0.28070  0.00410  0.04272  1.0000
  H   H29       1.0  0.14668  0.29470  0.34859  1.0000
  H   H30       1.0  0.07841  0.31414  0.42679  1.0000
  H   H31       1.0  0.02194  0.47321  0.35128  1.0000
  H   H32       1.0  0.05915  0.48508  0.29660  1.0000
  C   C24       1.0  0.14751  0.48761  0.28723  1.0000
  C   C25       1.0  0.10960  0.29907  0.35132  1.0000
  N   N2        1.0  0.04590  0.33643  0.18773  1.0000
  C   C26       1.0  0.01811  0.46802  0.25919  1.0000
  H   H33       1.0  0.32710  0.13757  0.18368  1.0000
  C   C27       1.0  0.27257  0.11326  0.14348  1.0000
  H   H34       1.0  0.05937  0.28936  0.36460  1.0000
  C   C28       1.0  0.06538  0.36737  0.14007  1.0000
  C   C29       1.0  0.03558  0.32018  0.21290  1.0000
  H   H35       1.0  0.27237  0.15235  0.08311  1.0000
  N   N3        1.0  0.28512  0.12758  0.12253  1.0000
  H   H36       1.0  0.05682  0.32046  0.36783  1.0000
  C   C30       1.0  0.32389  0.07313  0.14277  1.0000
  H   H37       1.0  0.01672  0.32055  0.20839  1.0000
  C   C31       1.0  0.13458  0.30386  0.40338  1.0000
  H   H38       1.0  0.25759  0.10584  0.13200  1.0000
  C   C32       1.0  0.30430  0.13652  0.13679  1.0000
  H   H39       1.0  0.06137  0.45704  0.27465  1.0000
  H   H40       1.0  0.06802  0.30708  0.32653  1.0000
  S   S13       1.0  0.22339  0.11375  0.02435  1.0000
  H   H41       1.0  0.16372  0.17746  0.03735  1.0000
  C   C33       1.0  0.13178  0.29869  0.36611  1.0000
  C   C34       1.0  0.05674  0.37470  0.17438  1.0000
  C   C35       1.0  0.05369  0.32926  0.15368  1.0000
  C   C36       1.0  0.27919  0.10756  0.17974  1.0000
  C   C37       1.0  0.04688  0.35893  0.19791  1.0000
  N   N4        1.0  0.09077  0.30492  0.37291  1.0000
  C   C38       1.0  0.11688  0.36046  0.48588  1.0000
  H   H42       1.0  0.18629  0.14176  0.05721  1.0000
  H   H43       1.0  0.18368  0.47961  0.27801  1.0000
  H   H44       1.0  0.05299  0.31141  0.14555  1.0000
  H   H45       1.0  0.12488  0.13498  0.02241  1.0000
  C   C39       1.0  0.32750  0.06815  0.18064  1.0000
  H   H46       1.0  0.07355  0.37929  0.12190  1.0000
  H   H47       1.0  0.26353  0.12383  0.07516  1.0000
  C   C40       1.0  0.11525  0.30910  0.42542  1.0000
  C   C41       1.0  0.27800  0.13379  0.08473  1.0000
  C   C42       1.0  0.31135  0.13126  0.17297  1.0000
  C   C43       1.0  0.17807  0.17068  0.02074  1.0000
  H   H48       1.0  0.30460  0.11167  0.22207  1.0000
  C   C44       1.0  0.29869  0.11668  0.19453  1.0000
  Fe  Fe8       1.0  0.25649  0.09125  0.00987  1.0000
  C   C45       1.0  0.20958  0.14090  0.01067  1.0000
  S   S14       1.0  0.31272  0.05182  0.00606  1.0000
  N   N5        1.0  0.14315  0.41830  0.58514  1.0000
  H   H49       1.0  0.15667  0.32752  0.90194  1.0000
  C   C46       1.0  0.17485  0.28395  0.91629  1.0000
  H   H50       1.0  0.15579  0.38308  0.58978  1.0000
  C   C47       1.0  0.16764  0.13066  0.94070  1.0000
  H   H51       1.0  0.13102  0.39819  0.54114  1.0000
  Fe  Fe9       1.0  0.11083  0.27411  0.95049  1.0000
  S   S15       1.0  0.11398  0.30413  0.91029  1.0000
  S   S16       1.0  0.10883  0.23647  0.93999  1.0000
  Fe  Fe10      1.0  0.29509  0.07075  0.95868  1.0000
  S   S17       1.0  0.25998  0.05909  0.97419  1.0000
  H   H52       1.0  0.01349  0.27855  0.98108  1.0000
  N   N6        1.0  0.13537  0.15006  0.97176  1.0000
  H   H53       1.0  0.12470  0.18193  0.99626  1.0000
  H   H54       1.0  0.05996  0.30948  0.70655  1.0000
  C   C48       1.0  0.01844  0.45804  0.68426  1.0000
  N   N7        1.0  0.03124  0.32946  0.72925  1.0000
  S   S18       1.0  0.16614  0.20581  0.96945  1.0000
  Fe  Fe11      1.0  0.10474  0.34406  0.69976  1.0000
  S   S19       1.0  0.09185  0.37906  0.71968  1.0000
  S   S20       1.0  0.10601  0.31121  0.73476  1.0000
  Fe  Fe12      1.0  0.10804  0.36069  0.61839  1.0000
  S   S21       1.0  0.09498  0.39664  0.63254  1.0000
  S   S22       1.0  0.12208  0.35340  0.56056  1.0000
  Fe  Fe13      1.0  0.11819  0.39272  0.68149  1.0000
  S   S23       1.0  0.13965  0.42263  0.69224  1.0000
  Fe  Fe14      1.0  0.06983  0.37994  0.66897  1.0000
  S   S24       1.0  0.03376  0.39536  0.67529  1.0000
  S   S25       1.0  0.13335  0.35766  0.66541  1.0000
  S   S26       1.0  0.08070  0.34400  0.65106  1.0000
  H   H55       1.0  0.00419  0.21207  0.94246  1.0000
  H   H56       1.0  0.15692  0.24730  0.83418  1.0000
  C   C49       1.0  0.11929  0.49065  0.69395  1.0000
  H   H57       1.0  0.03616  0.35582  0.62628  1.0000
  H   H58       1.0  0.15709  0.28956  0.82822  1.0000
  C   C50       1.0  0.12282  0.44872  0.69699  1.0000
  C   C51       1.0  0.09961  0.44872  0.70698  1.0000
  C   C52       1.0  0.08651  0.46963  0.71175  1.0000
  H   H59       1.0  0.20683  0.18095  0.94123  1.0000
  N   N8        1.0  0.16853  0.29431  0.88351  1.0000
  C   C53       1.0  0.13267  0.46973  0.69064  1.0000
  H   H60       1.0  0.09193  0.43261  0.71214  1.0000
  C   C54       1.0  0.02211  0.22510  0.98910  1.0000
  C   C55       1.0  0.13654  0.13360  0.99896  1.0000
  H   H61       1.0  0.15066  0.46985  0.68317  1.0000
  C   C56       1.0  0.03507  0.49188  0.65664  1.0000
  H   H62       1.0  0.07257  0.35687  0.54670  1.0000
  S   S27       1.0  0.13819  0.26770  0.99362  1.0000
  C   C57       1.0  0.10963  0.30585  0.86180  1.0000
  C   C58       1.0  0.10632  0.28643  0.84038  1.0000
  C   C59       1.0  0.10508  0.28840  0.80154  1.0000
  C   C60       1.0  0.10686  0.30978  0.78377  1.0000
  C   C61       1.0  0.10968  0.32925  0.80526  1.0000
  C   C62       1.0  0.11113  0.32725  0.84403  1.0000
  H   H63       1.0  0.10519  0.26986  0.85367  1.0000
  H   H64       1.0  0.10287  0.27324  0.78512  1.0000
  H   H65       1.0  0.11111  0.34580  0.79201  1.0000
  H   H66       1.0  0.11369  0.34238  0.86036  1.0000
  H   H67       1.0  0.06884  0.46953  0.72094  1.0000
  H   H68       1.0  0.31840  0.12045  0.81208  1.0000
  Fe  Fe15      1.0  0.13445  0.22973  0.98608  1.0000
  C   C63       1.0  0.16234  0.25741  0.85726  1.0000
  H   H69       1.0  0.15056  0.16249  0.92240  1.0000
  C   C64       1.0  0.00210  0.34360  0.62666  1.0000
  C   C65       1.0  0.12912  0.41431  0.55597  1.0000
  H   H70       1.0  0.18020  0.25181  0.94631  1.0000
  S   S28       1.0  0.29060  0.10389  0.99143  1.0000
  H   H71       1.0  0.16150  0.32578  0.85319  1.0000
  C   C66       1.0  0.01885  0.35862  0.63672  1.0000
  C   C67       1.0  0.16082  0.40064  0.59671  1.0000
  H   H72       1.0  0.30794  0.00820  0.92395  1.0000
  H   H73       1.0  0.10145  0.16444  0.98351  1.0000
  C   C68       1.0  0.02788  0.29746  0.68842  1.0000
  C   C69       1.0  0.00779  0.33290  0.73087  1.0000
  C   C70       1.0  0.17531  0.26001  0.92020  1.0000
  C   C71       1.0  0.01298  0.37735  0.65977  1.0000
  C   C72       1.0  0.16881  0.24671  0.89060  1.0000
  H   H74       1.0  0.12271  0.47224  0.60747  1.0000
  H   H75       1.0  0.16858  0.22818  0.89378  1.0000
  C   C73       1.0  0.21540  0.15240  0.97821  1.0000
  H   H76       1.0  0.18584  0.32526  0.88393  1.0000
  C   C74       1.0  0.04538  0.34515  0.74918  1.0000
  C   C75       1.0  0.14140  0.43909  0.60271  1.0000
  H   H77       1.0  0.17743  0.40359  0.58294  1.0000
  H   H78       1.0  0.04410  0.36233  0.73555  1.0000
  H   H79       1.0  0.18032  0.13019  0.91861  1.0000
  Fe  Fe16      1.0  0.08169  0.23777  0.98474  1.0000
  H   H80       1.0  0.15299  0.44251  0.62510  1.0000
  H   H81       1.0  0.09608  0.46472  0.55589  1.0000
  H   H82       1.0  0.18272  0.10024  0.96787  1.0000
  H   H83       1.0  0.22957  0.14542  0.96138  1.0000
  C   C76       1.0  0.16250  0.28136  0.85407  1.0000
  S   S29       1.0  0.04944  0.22053  0.96774  1.0000
  H   H84       1.0  0.30554  0.10456  0.87216  1.0000
  C   C77       1.0  0.16897  0.11382  0.96833  1.0000
  C   C78       1.0  0.16822  0.31946  0.88038  1.0000
  H   H85       1.0  0.17916  0.29425  0.93985  1.0000
  C   C79       1.0  0.15071  0.14884  0.94296  1.0000
  H   H86       1.0  0.16316  0.40089  0.62722  1.0000
  C   C80       1.0  0.20238  0.17260  0.96681  1.0000
  C   C81       1.0  0.04136  0.31206  0.70830  1.0000
  S   S30       1.0  0.31244  0.05806  0.90476  1.0000
  C   C82       1.0  0.10944  0.45178  0.56381  1.0000
  H   H87       1.0  0.03597  0.28397  0.67130  1.0000
  C   C83       1.0  0.11190  0.43085  0.54511  1.0000
  C   C84       1.0  0.12436  0.45603  0.59268  1.0000
  C   C85       1.0  0.11865  0.16993  0.97520  1.0000
  C   C86       1.0  0.31622  0.09389  0.85368  1.0000
  H   H88       1.0  0.02140  0.26332  0.91856  1.0000
  C   C87       1.0  0.18345  0.18177  0.98769  1.0000
  C   C88       1.0  0.09625  0.49062  0.70499  1.0000
  C   C89       1.0  0.08151  0.35871  0.52067  1.0000
  H   H89       1.0  0.03956  0.34696  0.77834  1.0000
  H   H90       1.0  0.06380  0.33878  0.74976  1.0000
  C   C90       1.0  0.00239  0.21924  0.96992  1.0000
  S   S31       1.0  0.08212  0.27596  0.99219  1.0000
  N   N9        1.0  0.01525  0.47887  0.66663  1.0000
  C   C91       1.0  0.00394  0.30068  0.69031  1.0000
  C   C92       1.0  0.32354  0.10284  0.81953  1.0000
  H   H91       1.0  0.10049  0.42728  0.52250  1.0000
  H   H92       1.0  0.00672  0.32892  0.60932  1.0000
  H   H93       1.0  0.00221  0.42971  0.70966  1.0000
  H   H94       1.0  0.11647  0.17963  0.94874  1.0000
  C   C93       1.0  0.15330  0.11521  0.99762  1.0000
  H   H95       1.0  0.03563  0.45038  0.68953  1.0000
  C   C94       1.0  0.32225  0.07098  0.86332  1.0000
  H   H96       1.0  0.28402  0.01082  0.95586  1.0000
  H   H97       1.0  0.05117  0.48059  0.65455  1.0000
  C   C95       1.0  0.00383  0.26845  0.92674  1.0000
  C   C96       1.0  0.10553  0.35813  0.51995  1.0000
  H   H98       1.0  0.99979  0.34723  0.74632  1.0000
  C   C97       1.0  0.99952  0.44617  0.69567  1.0000
  H   H99       1.0  0.31141  0.00014  0.97219  1.0000
  C   C98       1.0  0.29971  1.00000  0.94799  1.0000
  C   C99       1.0  0.99922  0.27699  0.96227  1.0000
  H   H100      1.0  0.06161  0.62141  0.47094  1.0000
  H   H101      1.0  0.28856  0.93137  0.09916  1.0000
  H   H102      1.0  0.21180  0.77538  0.05233  1.0000
  C   C100      1.0  0.32316  0.82485  0.31580  1.0000
  S   S32       1.0  0.12703  0.63816  0.07073  1.0000
  C   C101      1.0  0.03169  0.57788  0.19949  1.0000
  Fe  Fe17      1.0  0.09139  0.58424  0.26777  1.0000
  S   S33       1.0  0.08783  0.54599  0.26334  1.0000
  S   S34       1.0  0.07861  0.60971  0.22253  1.0000
  Fe  Fe18      1.0  0.10660  0.58012  0.35008  1.0000
  S   S35       1.0  0.10513  0.54191  0.35102  1.0000
  S   S36       1.0  0.11382  0.60044  0.40183  1.0000
  Fe  Fe19      1.0  0.12103  0.54272  0.29475  1.0000
  S   S37       1.0  0.15053  0.51736  0.28123  1.0000
  Fe  Fe20      1.0  0.07222  0.54842  0.32008  1.0000
  S   S38       1.0  0.04220  0.53105  0.34335  1.0000
  S   S39       1.0  0.12590  0.58084  0.29585  1.0000
  S   S40       1.0  0.07238  0.58675  0.32242  1.0000
  C   C102      1.0  0.01965  0.53026  0.31194  1.0000
  H   H103      1.0  0.17234  0.52670  0.43830  1.0000
  C   C103      1.0  0.02400  0.52765  0.27409  1.0000
  C   C104      1.0  0.03126  0.65710  0.07386  1.0000
  H   H104      1.0  0.04150  0.52604  0.26390  1.0000
  C   C105      1.0  0.11631  0.58765  0.44635  1.0000
  C   C106      1.0  0.11799  0.60182  0.47741  1.0000
  H   H105      1.0  0.05619  0.56193  0.40297  1.0000
  H   H106      1.0  0.03509  0.64337  0.09481  1.0000
  C   C107      1.0  0.11728  0.56377  0.45137  1.0000
  H   H107      1.0  0.11740  0.62032  0.47382  1.0000
  H   H108      1.0  0.11609  0.55265  0.42778  1.0000
  C   C108      1.0  0.11310  0.63050  0.11269  1.0000
  C   C109      1.0  0.09155  0.64052  0.12332  1.0000
  C   C110      1.0  0.08130  0.63394  0.15692  1.0000
  C   C111      1.0  0.09240  0.61733  0.18042  1.0000
  C   C112      1.0  0.11387  0.60725  0.16971  1.0000
  C   C113      1.0  0.12410  0.61381  0.13611  1.0000
  H   H109      1.0  0.08296  0.65350  0.10583  1.0000
  H   H110      1.0  0.06477  0.64198  0.16498  1.0000
  H   H111      1.0  0.12267  0.59446  0.18732  1.0000
  H   H112      1.0  0.14075  0.60594  0.12824  1.0000
  Fe  Fe21      1.0  0.11432  0.66381  0.02577  1.0000
  C   C114      1.0  0.05846  0.59336  0.43353  1.0000
  C   C115      1.0  0.02695  0.58331  0.23647  1.0000
  C   C116      1.0  0.31725  0.91913  0.13342  1.0000
  H   H113      1.0  0.16830  0.59001  0.34662  1.0000
  N   N10       1.0  0.17262  0.53570  0.38100  1.0000
  H   H114      1.0  0.32748  0.98317  0.14895  1.0000
  C   C117      1.0  0.26943  0.80090  0.07559  1.0000
  C   C118      1.0  0.24809  0.77561  0.04020  1.0000
  H   H115      1.0  0.05809  0.60425  0.40905  1.0000
  H   H116      1.0  0.28890  0.88208  0.35703  1.0000
  H   H117      1.0  0.24723  0.76304  0.01827  1.0000
  H   H118      1.0  0.04524  0.65584  0.05279  1.0000
  C   C119      1.0  0.30352  0.85329  0.16144  1.0000
  S   S41       1.0  0.25268  0.84908  0.01791  1.0000
  H   H119      1.0  0.15520  0.50709  0.36272  1.0000
  H   H120      1.0  0.29537  0.97270  0.10854  1.0000
  C   C120      1.0  0.01365  0.57351  0.17588  1.0000
  H   H121      1.0  0.12211  0.53567  0.49037  1.0000
  C   C121      1.0  0.00561  0.52661  0.24942  1.0000
  H   H122      1.0  0.17009  0.56707  0.45967  1.0000
  C   C122      1.0  0.30715  0.87968  0.36578  1.0000
  C   C123      1.0  0.17097  0.56328  0.43031  1.0000
  C   C124      1.0  0.17136  0.55319  0.35551  1.0000
  N   N11       1.0  0.26832  0.78525  0.04770  1.0000
  S   S42       1.0  0.10358  0.70089  0.03646  1.0000
  H   H123      1.0  0.31421  0.90114  0.12919  1.0000
  H   H124      1.0  0.28558  0.80815  0.08215  1.0000
  H   H125      1.0  0.28834  0.85797  0.17780  1.0000
  C   C125      1.0  0.32501  0.84986  0.17903  1.0000
  H   H126      1.0  0.29669  0.95676  0.03957  1.0000
  H   H127      1.0  0.17121  0.54946  0.32615  1.0000
  C   C126      1.0  0.16989  0.57617  0.36686  1.0000
  C   C127      1.0  0.16972  0.58119  0.40450  1.0000
  H   H128      1.0  0.04931  0.57715  0.18930  1.0000
  S   S43       1.0  0.32668  0.85215  0.22789  1.0000
  C   C128      1.0  0.27970  0.95821  0.02753  1.0000
  C   C129      1.0  0.28902  0.77809  0.02644  1.0000
  H   H129      1.0  0.04107  0.58674  0.25458  1.0000
  C   C130      1.0  0.05761  0.56959  0.43009  1.0000
  S   S44       1.0  0.03784  0.70624  0.02351  1.0000
  C   C131      1.0  0.17303  0.51177  0.36851  1.0000
  H   H130      1.0  0.25055  0.82090  0.11716  1.0000
  H   H131      1.0  0.28485  0.85303  0.10972  1.0000
  C   C132      1.0  0.32089  0.84367  0.10165  1.0000
  C   C133      1.0  0.06065  0.60294  0.46863  1.0000
  H   H132      1.0  0.18090  0.49961  0.38933  1.0000
  C   C134      1.0  0.30148  0.85049  0.12286  1.0000
  H   H133      1.0  0.30218  0.79106  0.02811  1.0000
  C   C135      1.0  0.17214  0.54049  0.41801  1.0000
  H   H134      1.0  0.21319  0.80468  0.10202  1.0000
  H   H135      1.0  0.00891  0.52441  0.22016  1.0000
  H   H136      1.0  0.30814  0.88406  0.39559  1.0000
  C   C136      1.0  0.30644  0.95931  0.12179  1.0000
  H   H137      1.0  0.29661  0.76136  0.03707  1.0000
  H   H138      1.0  0.31747  0.89203  0.35049  1.0000
  H   H139      1.0  0.01435  0.58229  0.30648  1.0000
  C   C137      1.0  0.00626  0.65252  0.02002  1.0000
  C   C138      1.0  0.22876  0.79898  0.08720  1.0000
  H   H140      1.0  0.32987  0.85057  0.41285  1.0000
  C   C139      1.0  0.24966  0.80811  0.09562  1.0000
  C   C140      1.0  0.22795  0.78251  0.05947  1.0000
  H   H141      1.0  0.30594  0.85750  0.30196  1.0000
  C   C141      1.0  0.32758  0.84334  0.38563  1.0000
  C   C142      1.0  0.26797  0.97999  0.02402  1.0000
  H   H142      1.0  0.16773  0.59895  0.41364  1.0000
  S   S45       1.0  0.31919  0.83731  0.05380  1.0000
  H   H143      1.0  0.05836  0.53721  0.45916  1.0000
  Fe  Fe22      1.0  0.29122  0.84654  0.01126  1.0000
  C   C143      1.0  0.30268  0.93613  0.11642  1.0000
  C   C144      1.0  0.00033  0.58991  0.28853  1.0000
  C   C145      1.0  0.12067  0.55418  0.48691  1.0000
  H   H144      1.0  0.03189  0.67425  0.08706  1.0000
  H   H145      1.0  0.27884  0.92163  0.01867  1.0000
  C   C146      1.0  0.31423  0.84718  0.32383  1.0000
  N   N12       1.0  0.31636  0.85608  0.35847  1.0000
  H   H146      1.0  0.05960  0.75788  0.02704  1.0000
  H   H147      1.0  0.32177  0.81809  0.28803  1.0000
  C   C147      1.0  0.24614  0.98173  0.00790  1.0000
  C   C148      1.0  0.26966  0.93826  0.01553  1.0000
  C   C149      1.0  0.32449  0.96520  0.14436  1.0000
  N   N13       1.0  0.00852  0.65491  0.05744  1.0000
  H   H148      1.0  0.01714  0.56906  0.14725  1.0000
  C   C150      1.0  0.05890  0.55571  0.46167  1.0000
  N   N14       1.0  0.00487  0.58419  0.24965  1.0000
  N   N15       1.0  0.06228  0.58917  0.49941  1.0000
  H   H149      1.0  0.18324  0.50939  0.34257  1.0000
  H   H150      1.0  0.99893  0.60888  0.29201  1.0000
  C   C151      1.0  0.06119  0.56586  0.49636  1.0000
  Fe  Fe23      1.0  0.28902  0.85698  0.92676  1.0000
  S   S46       1.0  0.25029  0.85984  0.92777  1.0000
  H   H151      1.0  0.21887  0.96309  0.98449  1.0000
  Fe  Fe24      1.0  0.25405  0.88017  0.98009  1.0000
  H   H152      1.0  0.29387  0.84655  0.71825  1.0000
  Fe  Fe25      1.0  0.25203  0.82837  0.96520  1.0000
  C   C152      1.0  0.04165  0.75579  0.93804  1.0000
  S   S47       1.0  0.29239  0.87875  0.97738  1.0000
  S   S48       1.0  0.29097  0.82432  0.96049  1.0000
  H   H153      1.0  0.33024  0.93016  0.71643  1.0000
  S   S49       1.0  0.13565  0.67198  0.97516  1.0000
  C   C153      1.0  0.01170  0.70304  0.96010  1.0000
  H   H154      1.0  0.06340  0.75955  0.89065  1.0000
  C   C154      1.0  0.31358  0.83768  0.82429  1.0000
  S   S50       1.0  0.31124  0.87069  0.88007  1.0000
  Fe  Fe26      1.0  0.10290  0.66857  0.94248  1.0000
  S   S51       1.0  0.09344  0.64726  0.89207  1.0000
  S   S52       1.0  0.09101  0.70612  0.94855  1.0000
  Fe  Fe27      1.0  0.06864  0.59135  0.64630  1.0000
  S   S53       1.0  0.10250  0.60569  0.63312  1.0000
  S   S54       1.0  0.03487  0.60722  0.62641  1.0000
  Fe  Fe28      1.0  0.09031  0.54840  0.68308  1.0000
  S   S55       1.0  0.12607  0.55897  0.67268  1.0000
  S   S56       1.0  0.07930  0.51644  0.71167  1.0000
  Fe  Fe29      1.0  0.11184  0.59416  0.69151  1.0000
  S   S57       1.0  0.13122  0.61505  0.73314  1.0000
  Fe  Fe30      1.0  0.11316  0.56946  0.61568  1.0000
  S   S58       1.0  0.12850  0.55553  0.56161  1.0000
  S   S59       1.0  0.07689  0.58263  0.70535  1.0000
  S   S60       1.0  0.07853  0.55609  0.62544  1.0000
  C   C155      1.0  0.01187  0.70580  0.99846  1.0000
  C   C156      1.0  0.01399  0.58763  0.63533  1.0000
  C   C157      1.0  0.01910  0.56872  0.65861  1.0000
  H   H155      1.0  0.28218  0.87137  0.76977  1.0000
  H   H156      1.0  0.03605  0.56578  0.67031  1.0000
  C   C158      1.0  0.10328  0.76778  0.92211  1.0000
  C   C159      1.0  0.12072  0.59224  0.51312  1.0000
  C   C160      1.0  0.08062  0.76339  0.97878  1.0000
  C   C161      1.0  0.10358  0.64080  0.84655  1.0000
  C   C162      1.0  0.09004  0.62777  0.82360  1.0000
  C   C163      1.0  0.09783  0.62061  0.78828  1.0000
  C   C164      1.0  0.11939  0.62632  0.77536  1.0000
  C   C165      1.0  0.13268  0.63996  0.79781  1.0000
  C   C166      1.0  0.12486  0.64715  0.83324  1.0000
  H   H157      1.0  0.07349  0.62289  0.83349  1.0000
  H   H158      1.0  0.08735  0.61023  0.77147  1.0000
  H   H159      1.0  0.14934  0.64460  0.78808  1.0000
  H   H160      1.0  0.13546  0.65722  0.85047  1.0000
  H   H161      1.0  0.16606  0.57595  0.84009  1.0000
  C   C167      1.0  0.09504  0.56337  0.82886  1.0000
  H   H162      1.0  0.16037  0.59656  0.80293  1.0000
  C   C168      1.0  0.32129  0.85825  0.83784  1.0000
  C   C169      1.0  0.11536  0.55067  0.77368  1.0000
  H   H163      1.0  0.11311  0.58554  0.86415  1.0000
  H   H164      1.0  0.11286  0.75091  0.91706  1.0000
  C   C170      1.0  0.20715  0.75700  0.95722  1.0000
  N   N16       1.0  0.08148  0.76414  0.94097  1.0000
  H   H165      1.0  0.30948  0.85726  0.68034  1.0000
  H   H166      1.0  0.30150  0.82839  0.84041  1.0000
  S   S61       1.0  0.14047  0.74390  0.98554  1.0000
  C   C171      1.0  0.20830  0.78055  0.96550  1.0000
  C   C172      1.0  0.06013  0.75914  0.99710  1.0000
  H   H167      1.0  0.00592  0.53965  0.68660  1.0000
  C   C173      1.0  0.15282  0.58805  0.82733  1.0000
  C   C174      1.0  0.26740  0.95003  0.91716  1.0000
  H   H168      1.0  0.04668  0.60289  0.54834  1.0000
  C   C175      1.0  0.06410  0.59948  0.53608  1.0000
  C   C176      1.0  0.04049  0.75565  0.97653  1.0000
  N   N17       1.0  0.30117  0.88186  0.72269  1.0000
  C   C177      1.0  0.12234  0.56835  0.51796  1.0000
  H   H169      1.0  0.08134  0.54122  0.78780  1.0000
  C   C178      1.0  0.11395  0.57558  0.83881  1.0000
  C   C179      1.0  0.16827  0.78081  0.98645  1.0000
  C   C180      1.0  0.29738  0.90337  0.77916  1.0000
  H   H170      1.0  0.32081  0.89653  0.67965  1.0000
  Fe  Fe31      1.0  0.12276  0.70923  0.98411  1.0000
  H   H171      1.0  0.07456  0.58789  0.55500  1.0000
  C   C181      1.0  0.32132  0.82925  0.78958  1.0000
  H   H172      1.0  0.12241  0.60333  0.53673  1.0000
  C   C182      1.0  0.09583  0.55080  0.79608  1.0000
  C   C183      1.0  0.29247  0.88439  0.75774  1.0000
  H   H173      1.0  0.29110  0.90484  0.80742  1.0000
  H   H174      1.0  0.01652  0.61577  0.70776  1.0000
  H   H175      1.0  0.22211  0.74758  0.94566  1.0000
  H   H176      1.0  0.25010  0.94665  0.90870  1.0000
  H   H177      1.0  0.27922  0.86602  0.68535  1.0000
  H   H178      1.0  0.03234  0.50076  0.62959  1.0000
  H   H179      1.0  0.12699  0.50677  0.68894  1.0000
  Fe  Fe32      1.0  0.07322  0.69514  0.00029  1.0000
  H   H180      1.0  0.07277  0.61589  0.53468  1.0000
  N   N18       1.0  0.13289  0.57566  0.81628  1.0000
  S   S62       1.0  0.23437  0.91514  0.98474  1.0000
  C   C184      1.0  0.18681  0.74545  0.96343  1.0000
  C   C185      1.0  0.28407  0.93185  0.92108  1.0000
  H   H181      1.0  0.14786  0.60192  0.84743  1.0000
  H   H182      1.0  0.09592  0.76564  0.99501  1.0000
  C   C186      1.0  0.30597  0.93621  0.93358  1.0000
  H   H183      1.0  0.18909  0.81039  0.98706  1.0000
  S   S63       1.0  0.23480  0.79399  0.95721  1.0000
  H   H184      1.0  0.02778  0.70072  0.94505  1.0000
  H   H185      1.0  0.28471  0.77634  0.99667  1.0000
  C   C187      1.0  0.29553  0.86203  0.70051  1.0000
  N   N19       1.0  0.29423  0.97647  0.93895  1.0000
  H   H186      1.0  0.15325  0.79026  0.99773  1.0000
  C   C188      1.0  0.18866  0.79233  0.98044  1.0000
  C   C189      1.0  0.00201  0.55390  0.66785  1.0000
  C   C190      1.0  0.16709  0.75727  0.97795  1.0000
  H   H187      1.0  0.07985  0.56383  0.84635  1.0000
  C   C191      1.0  0.13378  0.56340  0.78409  1.0000
  H   H188      1.0  0.14864  0.56375  0.76596  1.0000
  H   H189      1.0  0.11612  0.54086  0.74826  1.0000
  H   H190      1.0  0.31537  0.93454  0.78079  1.0000
  C   C192      1.0  0.23595  0.96170  0.99628  1.0000
  H   H191      1.0  0.10042  0.77694  0.89536  1.0000
  H   H192      1.0  0.18636  0.72742  0.95664  1.0000
  C   C193      1.0  0.06246  0.75998  0.92058  1.0000
  C   C194      1.0  0.27285  0.97240  0.92600  1.0000
  S   S64       1.0  0.08298  0.65771  0.99261  1.0000
  H   H193      1.0  0.06243  0.55498  0.52082  1.0000
  H   H194      1.0  0.31523  0.81333  0.77935  1.0000
  H   H195      1.0  0.27991  0.91435  0.91507  1.0000
  C   C195      1.0  0.24764  0.93987  0.00011  1.0000
  H   H196      1.0  0.11441  0.77828  0.93925  1.0000
  C   C196      1.0  0.31115  0.91988  0.76437  1.0000
  C   C197      1.0  0.31427  0.89823  0.70770  1.0000
  C   C198      1.0  0.31080  0.95878  0.94238  1.0000
  H   H197      1.0  0.31894  0.92207  0.93689  1.0000
  H   H198      1.0  0.32778  0.96205  0.95244  1.0000
  H   H199      1.0  0.02662  0.75219  0.92197  1.0000
  C   C199      1.0  0.31959  0.91738  0.72836  1.0000
  H   H200      1.0  0.25965  0.98637  0.92354  1.0000
  H   H201      1.0  0.03756  0.50510  0.67803  1.0000
  H   H202      1.0  0.02119  0.65266  0.00198  1.0000
  H   H203      1.0  0.02456  0.75208  0.99048  1.0000
  H   H204      1.0  0.99873  0.64569  0.66601  1.0000
  H   H205      1.0  0.23682  0.99837  0.00547  1.0000
  Fe  Fe33      1.0  0.57953  0.10329  0.31585  1.0000
  S   S65       1.0  0.61576  0.10822  0.33482  1.0000
  S   S66       1.0  0.55196  0.13217  0.31261  1.0000
  Fe  Fe34      1.0  0.58854  0.05254  0.30491  1.0000
  S   S67       1.0  0.62510  0.05320  0.32335  1.0000
  C   C200      1.0  0.36949  0.06988  0.49320  1.0000
  Fe  Fe35      1.0  0.61125  0.07631  0.36898  1.0000
  S   S68       1.0  0.62392  0.06567  0.42666  1.0000
  Fe  Fe36      1.0  0.62629  0.08467  0.28713  1.0000
  S   S69       1.0  0.56985  0.02142  0.28967  1.0000
  S   S70       1.0  0.57447  0.07321  0.35291  1.0000
  S   S71       1.0  0.59031  0.08243  0.26596  1.0000
  Fe  Fe37      1.0  0.42025  0.04666  0.31386  1.0000
  S   S72       1.0  0.38527  0.05686  0.33706  1.0000
  H   H206      1.0  0.61933  0.01216  0.29176  1.0000
  Fe  Fe38      1.0  0.42789  0.09424  0.28546  1.0000
  S   S73       1.0  0.39342  0.10872  0.30585  1.0000
  S   S74       1.0  0.45206  0.11621  0.25472  1.0000
  Fe  Fe39      1.0  0.40174  0.08820  0.35795  1.0000
  S   S75       1.0  0.40334  0.10534  0.41443  1.0000
  Fe  Fe40      1.0  0.37994  0.07634  0.28283  1.0000
  C   C201      1.0  0.66489  0.10092  0.45941  1.0000
  S   S76       1.0  0.43715  0.07629  0.33832  1.0000
  S   S77       1.0  0.41388  0.06360  0.25870  1.0000
  C   C202      1.0  0.39402  0.09384  0.45712  1.0000
  C   C203      1.0  0.43243  0.14736  0.34492  1.0000
  C   C204      1.0  0.33809  0.08783  0.12408  1.0000
  C   C205      1.0  0.34549  0.07755  0.20013  1.0000
  S   S78       1.0  0.43881  0.01182  0.31997  1.0000
  H   H207      1.0  0.37119  0.07049  0.43337  1.0000
  C   C206      1.0  0.47265  0.15689  0.34478  1.0000
  H   H208      1.0  0.37411  0.09890  0.19564  1.0000
  C   C207      1.0  0.52538  0.12532  0.29420  1.0000
  C   C208      1.0  0.51443  0.14064  0.26901  1.0000
  C   C209      1.0  0.49217  0.13725  0.25677  1.0000
  C   C210      1.0  0.48027  0.11895  0.27050  1.0000
  C   C211      1.0  0.49111  0.10348  0.29582  1.0000
  C   C212      1.0  0.51383  0.10649  0.30728  1.0000
  H   H209      1.0  0.52317  0.15532  0.25907  1.0000
  H   H210      1.0  0.48395  0.14919  0.23709  1.0000
  H   H211      1.0  0.48209  0.08920  0.30639  1.0000
  H   H212      1.0  0.52205  0.09482  0.32733  1.0000
  H   H213      1.0  0.62721  0.10741  0.12731  1.0000
  C   C213      1.0  0.64185  0.09999  0.14258  1.0000
  S   S79       1.0  0.65843  0.08687  0.25080  1.0000
  C   C214      1.0  0.61257  0.07645  0.46925  1.0000
  H   H214      1.0  0.45726  0.06551  0.21217  1.0000
  H   H215      1.0  0.52169  0.02558  0.28032  1.0000
  C   C215      1.0  0.65897  0.08811  0.20160  1.0000
  C   C216      1.0  0.59884  0.09707  0.47136  1.0000
  C   C217      1.0  0.61897  0.06479  0.50215  1.0000
  H   H216      1.0  0.59389  0.10629  0.44628  1.0000
  C   C218      1.0  0.37785  0.07717  0.45872  1.0000
  C   C219      1.0  0.64000  0.09697  0.18120  1.0000
  H   H217      1.0  0.43150  0.14214  0.31550  1.0000
  H   H218      1.0  0.48389  0.00845  0.27856  1.0000
  H   H219      1.0  0.62409  0.10213  0.19532  1.0000
  H   H220      1.0  0.56839  0.00262  0.37152  1.0000
  H   H221      1.0  0.45168  0.02805  0.24386  1.0000
  C   C220      1.0  0.47141  0.05642  0.22672  1.0000
  C   C221      1.0  0.48642  0.02446  0.26405  1.0000
  H   H222      1.0  0.42651  0.16581  0.34733  1.0000
  H   H223      1.0  0.48886  0.10805  0.41421  1.0000
  H   H224      1.0  0.42023  0.13735  0.36111  1.0000
  C   C222      1.0  0.53313  0.06455  0.24887  1.0000
  H   H225      1.0  0.53240  0.08269  0.23893  1.0000
  H   H226      1.0  0.54572  0.05408  0.23171  1.0000
  C   C223      1.0  0.49543  0.15353  0.35679  1.0000
  C   C224      1.0  0.50134  0.13592  0.38197  1.0000
  H   H227      1.0  0.51918  0.13261  0.39019  1.0000
  C   C225      1.0  0.48442  0.12207  0.39514  1.0000
  H   H228      1.0  0.53959  0.06447  0.27773  1.0000
  H   H229      1.0  0.41460  0.11562  0.48946  1.0000
  H   H230      1.0  0.49498  0.08222  0.21486  1.0000
  H   H231      1.0  0.59728  0.03039  0.38758  1.0000
  C   C226      1.0  0.49285  0.06581  0.22839  1.0000
  C   C227      1.0  0.46173  0.12612  0.38296  1.0000
  C   C228      1.0  0.62413  0.00397  0.39797  1.0000
  S   S80       1.0  0.34710  0.07380  0.24892  1.0000
  C   C229      1.0  0.60184  0.01203  0.38857  1.0000
  H   H232      1.0  0.39943  0.01644  0.27195  1.0000
  H   H233      1.0  0.46835  0.16998  0.32403  1.0000
  C   C230      1.0  0.36026  0.09148  0.18103  1.0000
  H   H234      1.0  0.44871  0.11518  0.39318  1.0000
  H   H235      1.0  0.65033  0.10729  0.44144  1.0000
  C   C231      1.0  0.35648  0.09668  0.14329  1.0000
  N   N20       1.0  0.45610  0.14344  0.35822  1.0000
  H   H236      1.0  0.62961  0.04884  0.50085  1.0000
  S   S81       1.0  0.33222  0.09745  0.07808  1.0000
  N   N21       1.0  0.51059  0.05481  0.24761  1.0000
  H   H237      1.0  0.36760  0.10803  0.12912  1.0000
  H   H238      1.0  0.50867  0.16380  0.34539  1.0000
  C   C232      1.0  0.50763  0.03434  0.26516  1.0000
  C   C233      1.0  0.46825  0.03556  0.24459  1.0000
  H   H239      1.0  0.63687  0.01613  0.40430  1.0000
  H   H240      1.0  0.63958  0.13652  0.48745  1.0000
  C   C234      1.0  0.40224  0.10258  0.49039  1.0000
  H   H241      1.0  0.35634  0.05765  0.49395  1.0000
  N   N22       1.0  0.65947  0.10514  0.49850  1.0000
  S   S82       1.0  0.66452  0.10036  0.07569  1.0000
  C   C235      1.0  0.66252  0.09388  0.12372  1.0000
  Fe  Fe41      1.0  0.60041  0.08924  0.63662  1.0000
  S   S83       1.0  0.58693  0.05461  0.64611  1.0000
  S   S84       1.0  0.59173  0.10766  0.58224  1.0000
  Fe  Fe42      1.0  0.62075  0.09053  0.71563  1.0000
  S   S85       1.0  0.60891  0.05579  0.72987  1.0000
  H   H242      1.0  0.42170  0.13758  0.73288  1.0000
  Fe  Fe43      1.0  0.62100  0.04607  0.67293  1.0000
  H   H243      1.0  0.58602  0.11854  0.77256  1.0000
  Fe  Fe44      1.0  0.57598  0.06789  0.70185  1.0000
  S   S86       1.0  0.54305  0.05859  0.72931  1.0000
  S   S87       1.0  0.63564  0.07991  0.65998  1.0000
  S   S88       1.0  0.58670  0.10347  0.69091  1.0000
  Fe  Fe45      1.0  0.41861  0.08943  0.67725  1.0000
  S   S89       1.0  0.38367  0.10573  0.66277  1.0000
  S   S90       1.0  0.44971  0.11058  0.67752  1.0000
  Fe  Fe46      1.0  0.40073  0.04219  0.68528  1.0000
  S   S91       1.0  0.36443  0.05487  0.67233  1.0000
  C   C236      1.0  0.57415  0.10800  0.78853  1.0000
  Fe  Fe47      1.0  0.38056  0.07476  0.62644  1.0000
  S   S92       1.0  0.36575  0.06968  0.56904  1.0000
  Fe  Fe48      1.0  0.37097  0.08421  0.71003  1.0000
  H   H244      1.0  0.52477  0.11535  0.58064  1.0000
  S   S93       1.0  0.41645  0.06029  0.63769  1.0000
  S   S94       1.0  0.40634  0.07001  0.72638  1.0000
  N   N23       1.0  0.39520  0.13103  0.77170  1.0000
  H   H245      1.0  0.37406  0.14029  0.72582  1.0000
  H   H246      1.0  0.62706  0.09575  0.88199  1.0000
  H   H247      1.0  0.59415  0.01191  0.69316  1.0000
  C   C237      1.0  0.61197  0.07370  0.53685  1.0000
  C   C238      1.0  0.51723  0.07388  0.71645  1.0000
  C   C239      1.0  0.51727  0.09512  0.69826  1.0000
  C   C240      1.0  0.49637  0.10667  0.68757  1.0000
  C   C241      1.0  0.47545  0.09672  0.69403  1.0000
  C   C242      1.0  0.47540  0.07560  0.71255  1.0000
  C   C243      1.0  0.49624  0.06438  0.72420  1.0000
  H   H248      1.0  0.53336  0.10266  0.69238  1.0000
  H   H249      1.0  0.49646  0.12309  0.67341  1.0000
  H   H250      1.0  0.45935  0.06779  0.71772  1.0000
  H   H251      1.0  0.49613  0.04799  0.73845  1.0000
  H   H252      1.0  0.36189  0.14910  0.76929  1.0000
  H   H253      1.0  0.35934  0.02515  0.53969  1.0000
  H   H254      1.0  0.37168  0.12049  0.81293  1.0000
  H   H255      1.0  0.34083  0.03961  0.84580  1.0000
  C   C244      1.0  0.43337  0.11264  0.77377  1.0000
  H   H256      1.0  0.49013  0.02700  0.61714  1.0000
  H   H257      1.0  0.38519  0.16427  0.75017  1.0000
  C   C245      1.0  0.51778  0.10004  0.59221  1.0000
  S   S95       1.0  0.41400  0.00540  0.69370  1.0000
  C   C246      1.0  0.59875  0.09461  0.53904  1.0000
  H   H258      1.0  0.61726  0.06464  0.56192  1.0000
  H   H259      1.0  0.40057  0.10194  0.55023  1.0000
  C   C247      1.0  0.49097  0.04028  0.63888  1.0000
  C   C248      1.0  0.48547  0.07850  0.60997  1.0000
  H   H260      1.0  0.65224  0.06496  0.78055  1.0000
  H   H261      1.0  0.56448  0.09809  0.76831  1.0000
  C   C249      1.0  0.40489  0.10264  0.81860  1.0000
  H   H262      1.0  0.57272  0.06226  0.79615  1.0000
  N   N24       1.0  0.50017  0.06108  0.62328  1.0000
  H   H263      1.0  0.39966  0.09236  0.84192  1.0000
  H   H264      1.0  0.56163  0.11963  0.80384  1.0000
  C   C250      1.0  0.61261  0.06465  0.86389  1.0000
  C   C251      1.0  0.53262  0.08200  0.60511  1.0000
  C   C252      1.0  0.39432  0.09485  0.52491  1.0000
  H   H265      1.0  0.45053  0.11028  0.76205  1.0000
  H   H266      1.0  0.46697  0.07751  0.61228  1.0000
  H   H267      1.0  0.48226  0.11238  0.58529  1.0000
  H   H268      1.0  0.60480  0.12052  0.83723  1.0000
  C   C253      1.0  0.33717  0.08912  0.79482  1.0000
  C   C254      1.0  0.37831  0.14706  0.75344  1.0000
  H   H269      1.0  0.47344  0.04402  0.65066  1.0000
  C   C255      1.0  0.37762  0.07870  0.52646  1.0000
  H   H270      1.0  0.62301  0.05366  0.88255  1.0000
  H   H271      1.0  0.55110  0.08325  0.60330  1.0000
  C   C256      1.0  0.42720  0.09972  0.80440  1.0000
  C   C257      1.0  0.66334  0.09407  0.56243  1.0000
  C   C258      1.0  0.61487  0.08833  0.86365  1.0000
  H   H272      1.0  0.35412  0.05560  0.78621  1.0000
  C   C259      1.0  0.52348  0.06252  0.62067  1.0000
  S   S96       1.0  0.34589  0.10124  0.75210  1.0000
  C   C260      1.0  0.65002  0.11383  0.57271  1.0000
  S   S97       1.0  0.63666  0.11212  0.75994  1.0000
  N   N25       1.0  0.58732  0.09288  0.81445  1.0000
  C   C261      1.0  0.58455  0.06973  0.81507  1.0000
  C   C262      1.0  0.60216  0.10226  0.83839  1.0000
  C   C263      1.0  0.59731  0.05524  0.83954  1.0000
  H   H273      1.0  0.59549  0.03683  0.83931  1.0000
  H   H274      1.0  0.43957  0.08718  0.81669  1.0000
  C   C264      1.0  0.65795  0.07647  0.80144  1.0000
  C   C265      1.0  0.38907  0.11859  0.80198  1.0000
  C   C266      1.0  0.41698  0.12814  0.75743  1.0000
  C   C267      1.0  0.65314  0.10022  0.79757  1.0000
  H   H275      1.0  0.39906  0.02748  0.57011  1.0000
  S   S98       1.0  0.63921  0.01206  0.65994  1.0000
  C   C268      1.0  0.33606  0.05735  0.83871  1.0000
  C   C269      1.0  0.49403  0.09832  0.59460  1.0000
  H   H276      1.0  0.53515  0.04872  0.63124  1.0000
  H   H277      1.0  0.64561  0.11688  0.60153  1.0000
  H   H278      1.0  0.50199  0.03323  0.66191  1.0000
  H   H279      1.0  0.63059  0.14425  0.55338  1.0000
  H   H280      1.0  0.36542  0.00814  0.67468  1.0000
  C   C270      1.0  0.34363  0.06638  0.80483  1.0000
  C   C271      1.0  0.39160  0.01525  0.58981  1.0000
  H   H281      1.0  0.38003  0.02529  0.60913  1.0000
  C   C272      1.0  0.36210  0.00681  0.54502  1.0000
  H   H282      1.0  0.58186  0.12234  0.50752  1.0000
  C   C273      1.0  0.66076  0.11489  0.82510  1.0000
  C   C274      1.0  0.64163  0.12928  0.54561  1.0000
  H   H283      1.0  0.40583  0.00668  0.60626  1.0000
  H   H284      1.0  0.65719  0.13329  0.82237  1.0000
  N   N26       1.0  0.37837  0.99878  0.56992  1.0000
  C   C275      1.0  0.64659  0.12468  0.50841  1.0000
  C   C276      1.0  0.59205  0.10613  0.50613  1.0000
  Fe  Fe49      1.0  0.61085  0.89864  0.29673  1.0000
  S   S99       1.0  0.62603  0.86285  0.30793  1.0000
  S   S100      1.0  0.63179  0.92904  0.30348  1.0000
  Fe  Fe50      1.0  0.56439  0.88287  0.27436  1.0000
  S   S101      1.0  0.57595  0.84587  0.28331  1.0000
  S   S102      1.0  0.52933  0.89639  0.25444  1.0000
  Fe  Fe51      1.0  0.59192  0.85818  0.33581  1.0000
  S   S103      1.0  0.58343  0.84233  0.39149  1.0000
  Fe  Fe52      1.0  0.60873  0.85465  0.25427  1.0000
  C   C277      1.0  0.66049  0.84056  0.11109  1.0000
  S   S104      1.0  0.57819  0.89471  0.32823  1.0000
  S   S105      1.0  0.59579  0.89088  0.24189  1.0000
  Fe  Fe53      1.0  0.40943  0.85820  0.28153  1.0000
  S   S106      1.0  0.37761  0.84425  0.30663  1.0000
  S   S107      1.0  0.44352  0.83742  0.28177  1.0000
  Fe  Fe54      1.0  0.38573  0.90427  0.26451  1.0000
  S   S108      1.0  0.35267  0.89451  0.28937  1.0000
  S   S109      1.0  0.38427  0.93844  0.23570  1.0000
  Fe  Fe55      1.0  0.37395  0.87838  0.33558  1.0000
  S   S110      1.0  0.36147  0.88665  0.39423  1.0000
  Fe  Fe56      1.0  0.35906  0.86164  0.25799  1.0000
  C   C278      1.0  0.61952  0.80185  0.44725  1.0000
  S   S111      1.0  0.40670  0.89133  0.31315  1.0000
  S   S112      1.0  0.39128  0.87232  0.23065  1.0000
  C   C279      1.0  0.37101  0.87305  0.43599  1.0000
  C   C280      1.0  0.38431  0.85213  0.43633  1.0000
  C   C281      1.0  0.39031  0.84129  0.47026  1.0000
  H   H285      1.0  0.54789  0.89450  0.18206  1.0000
  C   C282      1.0  0.36397  0.88306  0.46983  1.0000
  H   H286      1.0  0.38974  0.84416  0.41052  1.0000
  C   C283      1.0  0.35000  0.90710  0.17302  1.0000
  C   C284      1.0  0.34236  0.84047  0.11924  1.0000
  H   H287      1.0  0.36108  0.84085  0.17072  1.0000
  C   C285      1.0  0.61978  0.94021  0.39350  1.0000
  C   C286      1.0  0.61719  0.80096  0.48574  1.0000
  H   H288      1.0  0.35255  0.95250  0.17882  1.0000
  C   C287      1.0  0.64767  0.86733  0.17313  1.0000
  H   H289      1.0  0.61843  0.93440  0.42267  1.0000
  H   H290      1.0  0.35746  0.83508  0.10315  1.0000
  C   C288      1.0  0.33463  0.81175  0.34331  1.0000
  H   H291      1.0  0.40041  0.82500  0.47031  1.0000
  C   C289      1.0  0.39317  0.98206  0.25516  1.0000
  C   C290      1.0  0.39978  0.95863  0.25888  1.0000
  C   C291      1.0  0.41863  0.95157  0.28098  1.0000
  C   C292      1.0  0.43077  0.96798  0.29958  1.0000
  H   H292      1.0  0.63874  0.81507  0.40179  1.0000
  H   H293      1.0  0.34636  0.81132  0.39987  1.0000
  H   H294      1.0  0.42403  0.93353  0.28326  1.0000
  H   H295      1.0  0.44536  0.96257  0.31662  1.0000
  C   C293      1.0  0.50594  0.87883  0.25812  1.0000
  C   C294      1.0  0.48371  0.88835  0.25036  1.0000
  C   C295      1.0  0.46446  0.87555  0.25663  1.0000
  C   C296      1.0  0.46740  0.85294  0.26987  1.0000
  C   C297      1.0  0.48970  0.84304  0.27590  1.0000
  C   C298      1.0  0.50893  0.85602  0.27039  1.0000
  H   H296      1.0  0.48128  0.90593  0.24051  1.0000
  H   H297      1.0  0.44733  0.88326  0.25157  1.0000
  H   H298      1.0  0.49205  0.82552  0.28604  1.0000
  H   H299      1.0  0.52594  0.84846  0.27638  1.0000
  C   C299      1.0  0.59263  0.85412  0.43360  1.0000
  C   C300      1.0  0.58210  0.84796  0.46694  1.0000
  H   H300      1.0  0.60290  0.91068  0.10915  1.0000
  C   C301      1.0  0.59181  0.97280  0.38134  1.0000
  H   H301      1.0  0.60704  0.79438  0.42951  1.0000
  H   H302      1.0  0.56741  0.83755  0.46626  1.0000
  C   C302      1.0  0.65268  0.82403  0.45457  1.0000
  H   H303      1.0  0.34330  0.90351  0.20113  1.0000
  C   C303      1.0  0.57733  0.97466  0.28743  1.0000
  C   C304      1.0  0.59104  0.95400  0.29046  1.0000
  C   C305      1.0  0.61481  0.95448  0.29553  1.0000
  C   C306      1.0  0.62495  0.97552  0.29601  1.0000
  C   C307      1.0  0.59992  0.87476  0.12111  1.0000
  H   H304      1.0  0.58314  0.93779  0.28931  1.0000
  N   N27       1.0  0.33515  0.92509  0.15495  1.0000
  N   N28       1.0  0.56975  0.86598  0.16336  1.0000
  H   H305      1.0  0.61476  0.86903  0.10447  1.0000
  H   H306      1.0  0.57032  0.83592  0.19708  1.0000
  H   H307      1.0  0.64246  0.81392  0.13836  1.0000
  H   H308      1.0  0.61990  0.87241  0.40939  1.0000
  N   N29       1.0  0.61373  0.96500  0.39060  1.0000
  C   C308      1.0  0.55771  0.84890  0.18455  1.0000
  H   H309      1.0  0.37858  0.98758  0.23813  1.0000
  C   C309      1.0  0.64750  0.83142  0.14011  1.0000
  S   S113      1.0  0.62353  0.83303  0.20628  1.0000
  H   H310      1.0  0.57915  0.96079  0.37408  1.0000
  C   C310      1.0  0.56251  0.88880  0.16500  1.0000
  H   H311      1.0  0.34215  0.79464  0.33713  1.0000
  H   H312      1.0  0.54751  0.85699  0.20767  1.0000
  H   H313      1.0  0.54591  0.84007  0.16625  1.0000
  N   N30       1.0  0.48595  0.89244  0.34397  1.0000
  C   C311      1.0  0.50934  0.89033  0.34841  1.0000
  C   C312      1.0  0.47287  0.87453  0.35289  1.0000
  C   C313      1.0  0.52026  0.86970  0.36138  1.0000
  C   C314      1.0  0.48323  0.85362  0.36565  1.0000
  C   C315      1.0  0.50709  0.85123  0.36987  1.0000
  C   C316      1.0  0.47480  0.91430  0.33084  1.0000
  H   H314      1.0  0.51976  0.90439  0.34083  1.0000
  H   H315      1.0  0.45437  0.87602  0.34892  1.0000
  H   H316      1.0  0.53885  0.86786  0.36421  1.0000
  H   H317      1.0  0.47282  0.83920  0.37116  1.0000
  H   H318      1.0  0.51544  0.83501  0.37915  1.0000
  H   H319      1.0  0.47085  0.92598  0.35450  1.0000
  H   H320      1.0  0.48601  0.92283  0.31072  1.0000
  H   H321      1.0  0.45852  0.91151  0.31606  1.0000
  C   C317      1.0  0.57432  0.90525  0.14564  1.0000
  H   H322      1.0  0.64338  0.97592  0.29926  1.0000
  C   C318      1.0  0.61157  0.86764  0.43483  1.0000
  C   C319      1.0  0.59095  0.85446  0.50128  1.0000
  H   H323      1.0  0.63758  0.93601  0.38316  1.0000
  C   C320      1.0  0.64100  0.84474  0.17129  1.0000
  H   H324      1.0  0.60838  0.93021  0.37609  1.0000
  H   H325      1.0  0.59365  0.84071  0.13988  1.0000
  H   H326      1.0  0.64285  0.87782  0.19687  1.0000
  C   C321      1.0  0.66075  0.87641  0.14429  1.0000
  C   C322      1.0  0.34447  0.84376  0.15760  1.0000
  C   C323      1.0  0.58790  0.85881  0.14120  1.0000
  H   H327      1.0  0.55889  0.97428  0.28444  1.0000
  H   H328      1.0  0.35356  0.89916  0.46983  1.0000
  H   H329      1.0  0.56900  0.92340  0.14808  1.0000
  C   C324      1.0  0.59326  0.89814  0.12379  1.0000
  C   C325      1.0  0.62982  0.98023  0.39893  1.0000
  H   H330      1.0  0.63606  0.88318  0.46987  1.0000
  C   C326      1.0  0.61075  0.86675  0.50254  1.0000
  C   C327      1.0  0.42382  0.99139  0.29643  1.0000
  H   H331      1.0  0.36789  0.91244  0.17558  1.0000
  C   C328      1.0  0.62071  0.87370  0.46916  1.0000
  H   H332      1.0  0.35102  0.89092  0.15685  1.0000
  H   H333      1.0  0.60293  0.79239  0.49766  1.0000
  C   C329      1.0  0.63734  0.81352  0.43164  1.0000
  C   C330      1.0  0.33866  0.94777  0.16104  1.0000
  C   C331      1.0  0.64977  0.82293  0.49296  1.0000
  H   H334      1.0  0.64720  0.97407  0.40619  1.0000
  C   C332      1.0  0.33697  0.82106  0.37845  1.0000
  C   C333      1.0  0.58743  0.99577  0.28901  1.0000
  C   C334      1.0  0.61130  0.99611  0.29228  1.0000
  C   C335      1.0  0.38333  0.85135  0.50413  1.0000
  C   C336      1.0  0.37023  0.87239  0.50373  1.0000
  C   C337      1.0  0.58556  0.99642  0.38006  1.0000
  C   C338      1.0  0.40501  0.99842  0.27426  1.0000
  Fe  Fe57      1.0  0.58532  0.89936  0.66063  1.0000
  S   S114      1.0  0.62237  0.89033  0.64756  1.0000
  S   S115      1.0  0.56958  0.93439  0.67536  1.0000
  Fe  Fe58      1.0  0.57244  0.85065  0.65207  1.0000
  S   S116      1.0  0.60887  0.83739  0.63862  1.0000
  S   S117      1.0  0.54181  0.82904  0.64736  1.0000
  Fe  Fe59      1.0  0.61899  0.86012  0.68573  1.0000
  H   H335      1.0  0.58303  0.84910  0.52673  1.0000
  Fe  Fe60      1.0  0.60913  0.86875  0.60191  1.0000
  S   S118      1.0  0.62536  0.87106  0.54464  1.0000
  S   S119      1.0  0.58246  0.87073  0.70177  1.0000
  S   S120      1.0  0.57233  0.88032  0.61237  1.0000
  Fe  Fe61      1.0  0.38515  0.85335  0.60265  1.0000
  S   S121      1.0  0.40052  0.88693  0.61356  1.0000
  S   S122      1.0  0.39081  0.83686  0.54618  1.0000
  Fe  Fe62      1.0  0.36672  0.84979  0.68276  1.0000
  S   S123      1.0  0.38085  0.88295  0.69874  1.0000
  H   H336      1.0  0.34306  0.88600  0.82668  1.0000
  Fe  Fe63      1.0  0.36766  0.89574  0.64404  1.0000
  S   S124      1.0  0.34854  0.93020  0.64075  1.0000
  Fe  Fe64      1.0  0.41253  0.87069  0.66709  1.0000
  S   S125      1.0  0.44596  0.87880  0.69390  1.0000
  S   S126      1.0  0.35103  0.86347  0.62946  1.0000
  S   S127      1.0  0.39957  0.83614  0.65472  1.0000
  H   H337      1.0  0.61104  0.81757  0.55546  1.0000
  C   C339      1.0  0.41839  0.83684  0.75010  1.0000
  S   S128      1.0  0.64999  0.85405  0.72431  1.0000
  H   H338      1.0  0.62008  0.84339  0.85094  1.0000
  C   C340      1.0  0.63222  0.84984  0.79557  1.0000
  H   H339      1.0  0.44988  0.87797  0.57692  1.0000
  H   H340      1.0  0.40362  0.80495  0.73804  1.0000
  H   H341      1.0  0.63976  0.96670  0.62893  1.0000
  H   H342      1.0  0.59970  0.93091  0.79061  1.0000
  H   H343      1.0  0.47579  0.92869  0.64828  1.0000
  C   C341      1.0  0.36832  0.96000  0.55945  1.0000
  H   H344      1.0  0.61902  0.97096  0.74303  1.0000
  H   H345      1.0  0.33584  0.99806  0.50663  1.0000
  C   C342      1.0  0.35771  0.97379  0.66059  1.0000
  C   C343      1.0  0.36618  0.95083  0.65788  1.0000
  C   C344      1.0  0.38900  0.94461  0.66754  1.0000
  C   C345      1.0  0.40343  0.96143  0.67929  1.0000
  C   C346      1.0  0.65117  0.85441  0.77351  1.0000
  C   C347      1.0  0.62383  0.96993  0.64410  1.0000
  H   H346      1.0  0.39570  0.92692  0.66564  1.0000
  H   H347      1.0  0.42112  0.95659  0.68647  1.0000
  C   C348      1.0  0.51509  0.84185  0.66222  1.0000
  C   C349      1.0  0.49455  0.83368  0.64894  1.0000
  C   C350      1.0  0.47312  0.84465  0.65875  1.0000
  C   C351      1.0  0.47220  0.86365  0.68231  1.0000
  C   C352      1.0  0.49269  0.87135  0.69646  1.0000
  C   C353      1.0  0.51406  0.86057  0.68630  1.0000
  H   H348      1.0  0.49526  0.81910  0.63046  1.0000
  H   H349      1.0  0.45741  0.83854  0.64779  1.0000
  H   H350      1.0  0.49206  0.88590  0.71498  1.0000
  H   H351      1.0  0.52976  0.86669  0.69724  1.0000
  H   H352      1.0  0.61595  0.84687  0.78272  1.0000
  H   H353      1.0  0.65735  0.97367  0.71461  1.0000
  H   H354      1.0  0.53183  0.90110  0.65580  1.0000
  C   C354      1.0  0.63462  0.84787  0.83431  1.0000
  N   N31       1.0  0.62100  0.93422  0.74349  1.0000
  C   C355      1.0  0.58260  0.97818  0.68321  1.0000
  C   C356      1.0  0.58790  0.95659  0.66739  1.0000
  C   C357      1.0  0.60827  0.95267  0.64713  1.0000
  C   C358      1.0  0.37704  0.79968  0.79712  1.0000
  H   H355      1.0  0.56678  0.98136  0.69870  1.0000
  H   H356      1.0  0.61205  0.93643  0.63361  1.0000
  C   C359      1.0  0.59817  0.93272  0.76015  1.0000
  C   C360      1.0  0.37216  0.99057  0.67240  1.0000
  C   C361      1.0  0.40419  0.81893  0.75764  1.0000
  C   C362      1.0  0.39162  0.83688  0.81365  1.0000
  H   H357      1.0  0.42893  0.83662  0.72527  1.0000
  C   C363      1.0  0.39510  0.98450  0.68140  1.0000
  C   C364      1.0  0.65581  0.85093  0.85160  1.0000
  H   H358      1.0  0.35640  0.87124  0.76564  1.0000
  C   C365      1.0  0.59807  0.99551  0.67997  1.0000
  S   S129      1.0  0.65886  0.84439  0.89957  1.0000
  C   C366      1.0  0.62880  0.81086  0.54822  1.0000
  H   H359      1.0  0.34136  0.95598  0.51991  1.0000
  C   C367      1.0  0.62940  0.95527  0.73697  1.0000
  H   H360      1.0  0.36463  0.88026  0.52954  1.0000
  H   H361      1.0  0.58963  0.91771  0.74900  1.0000
  H   H362      1.0  0.42956  0.86931  0.76873  1.0000
  C   C368      1.0  0.33672  0.84131  0.76800  1.0000
  H   H363      1.0  0.40546  0.86951  0.82580  1.0000
  C   C369      1.0  0.41882  0.85518  0.77465  1.0000
  C   C370      1.0  0.61887  0.99126  0.66092  1.0000
  H   H364      1.0  0.63175  0.79295  0.55869  1.0000
  H   H365      1.0  0.53075  0.92389  0.62180  1.0000
  H   H366      1.0  0.51488  0.92709  0.66456  1.0000
  C   C371      1.0  0.40534  0.85527  0.80663  1.0000
  H   H367      1.0  0.52222  0.87828  0.59833  1.0000
  H   H368      1.0  0.48983  0.86109  0.56739  1.0000
  N   N32       1.0  0.39100  0.81915  0.78905  1.0000
  H   H369      1.0  0.44308  0.91206  0.61782  1.0000
  N   N33       1.0  0.50097  0.90477  0.62447  1.0000
  C   C372      1.0  0.47907  0.91424  0.62979  1.0000
  C   C373      1.0  0.50494  0.88615  0.60187  1.0000
  C   C374      1.0  0.46043  0.90494  0.61244  1.0000
  C   C375      1.0  0.48667  0.87635  0.58420  1.0000
  C   C376      1.0  0.46427  0.88580  0.58964  1.0000
  C   C377      1.0  0.52045  0.91476  0.64243  1.0000
  H   H370      1.0  0.58666  0.94815  0.75328  1.0000
  H   H371      1.0  0.38111  0.83713  0.83851  1.0000
  C   C378      1.0  0.66448  0.93684  0.71238  1.0000
  H   H372      1.0  0.65460  0.80148  0.84499  1.0000
  H   H373      1.0  0.36296  0.80450  0.81704  1.0000
  C   C379      1.0  0.35182  0.96801  0.53378  1.0000
  C   C380      1.0  0.34869  0.99157  0.52639  1.0000
  C   C381      1.0  0.38160  0.97572  0.57724  1.0000
  C   C382      1.0  0.63420  0.91448  0.73599  1.0000
  H   H374      1.0  0.34005  0.97867  0.65325  1.0000
  H   H375      1.0  0.36862  0.79394  0.77153  1.0000
  H   H376      1.0  0.38803  0.78512  0.80877  1.0000
  C   C383      1.0  0.34450  0.86178  0.78169  1.0000
  S   S130      1.0  0.34615  0.83000  0.72460  1.0000
  H   H377      1.0  0.39415  0.96938  0.59753  1.0000
  C   C384      1.0  0.65117  0.95691  0.72110  1.0000
  H   H378      1.0  0.64065  0.82190  0.56289  1.0000
  H   H379      1.0  0.62772  0.89781  0.74181  1.0000
  C   C385      1.0  0.65607  0.91547  0.72016  1.0000
  H   H380      1.0  0.37050  0.94177  0.56611  1.0000
  C   C386      1.0  0.33697  0.87007  0.81648  1.0000
  N   N34       1.0  0.63211  0.81158  0.50803  1.0000
  H   H381      1.0  0.66117  0.83199  0.51053  1.0000
  Fe  Fe65      1.0  0.87293  0.27198  0.04176  1.0000
  S   S131      1.0  0.85805  0.29255  0.09133  1.0000
  S   S132      1.0  0.88365  0.23448  0.04972  1.0000
  Fe  Fe66      1.0  0.69461  0.09108  0.03662  1.0000
  S   S133      1.0  0.73151  0.08565  0.05347  1.0000
  C   C387      1.0  0.99023  0.47346  0.32119  1.0000
  Fe  Fe67      1.0  0.90252  0.35230  0.27658  1.0000
  S   S134      1.0  0.90306  0.39093  0.27277  1.0000
  S   S135      1.0  0.91487  0.33201  0.22526  1.0000
  Fe  Fe68      1.0  0.88725  0.35431  0.35899  1.0000
  S   S136      1.0  0.88524  0.39272  0.35978  1.0000
  S   S137      1.0  0.88424  0.33395  0.41274  1.0000
  Fe  Fe69      1.0  0.86974  0.39103  0.30345  1.0000
  S   S138      1.0  0.84010  0.41456  0.28397  1.0000
  Fe  Fe70      1.0  0.91869  0.38937  0.32922  1.0000
  S   S139      1.0  0.94531  0.41124  0.35272  1.0000
  S   S140      1.0  0.86801  0.35247  0.30477  1.0000
  S   S141      1.0  0.92185  0.35086  0.33078  1.0000
  C   C388      1.0  0.84335  0.44438  0.28061  1.0000
  C   C389      1.0  0.86497  0.45372  0.27952  1.0000
  C   C390      1.0  0.68130  0.08431  0.14391  1.0000
  C   C391      1.0  0.82344  0.45911  0.27902  1.0000
  H   H382      1.0  0.88045  0.44239  0.28002  1.0000
  H   H383      1.0  0.80671  0.45205  0.27964  1.0000
  C   C392      1.0  0.87839  0.34647  0.45684  1.0000
  C   C393      1.0  0.87071  0.36963  0.46086  1.0000
  C   C394      1.0  0.83308  0.37706  0.20188  1.0000
  H   H384      1.0  0.89492  0.39426  0.15095  1.0000
  H   H385      1.0  0.90298  0.44979  0.33959  1.0000
  H   H386      1.0  0.86768  0.38029  0.43659  1.0000
  H   H387      1.0  0.85292  0.47807  0.35252  1.0000
  H   H388      1.0  0.96770  0.30995  0.00984  1.0000
  C   C395      1.0  0.96974  0.41132  0.32431  1.0000
  C   C396      1.0  0.96769  0.41071  0.28581  1.0000
  C   C397      1.0  0.69750  0.15416  0.06324  1.0000
  H   H389      1.0  0.95092  0.41012  0.27331  1.0000
  C   C398      1.0  0.87443  0.30113  0.12981  1.0000
  C   C399      1.0  0.89826  0.30270  0.12755  1.0000
  C   C400      1.0  0.91034  0.31168  0.15736  1.0000
  C   C401      1.0  0.89883  0.31932  0.18978  1.0000
  C   C402      1.0  0.87507  0.31726  0.19244  1.0000
  C   C403      1.0  0.86301  0.30809  0.16270  1.0000
  H   H390      1.0  0.90734  0.29733  0.10258  1.0000
  H   H391      1.0  0.92873  0.31298  0.15507  1.0000
  H   H392      1.0  0.86597  0.32280  0.21729  1.0000
  H   H393      1.0  0.84463  0.30671  0.16497  1.0000
  C   C404      1.0  0.85820  0.36138  0.14070  1.0000
  H   H394      1.0  0.69735  0.07961  0.12989  1.0000
  N   N35       1.0  0.86870  0.37294  0.16804  1.0000
  H   H395      1.0  0.74697  0.12384  0.15311  1.0000
  Fe  Fe71      1.0  0.91577  0.24251  0.01858  1.0000
  H   H396      1.0  0.95776  0.28238  0.02351  1.0000
  H   H397      1.0  0.90146  0.37722  0.19209  1.0000
  H   H398      1.0  0.98726  0.28768  0.02951  1.0000
  H   H399      1.0  0.92326  0.36335  0.41328  1.0000
  C   C405      1.0  0.86645  0.47784  0.27746  1.0000
  N   N36       1.0  0.70261  0.14547  0.10060  1.0000
  C   C406      1.0  0.86639  0.48676  0.36623  1.0000
  H   H400      1.0  0.77585  0.18244  0.04552  1.0000
  H   H401      1.0  0.80962  0.20492  0.03097  1.0000
  Fe  Fe72      1.0  0.73304  0.05579  0.01375  1.0000
  S   S142      1.0  0.75971  0.13990  0.01839  1.0000
  H   H402      1.0  0.89975  0.44084  0.38698  1.0000
  C   C407      1.0  0.90395  0.48625  0.39167  1.0000
  C   C408      1.0  0.88183  0.33280  0.48878  1.0000
  H   H403      1.0  0.86799  0.35463  0.11708  1.0000
  C   C409      1.0  0.67957  0.08169  0.18266  1.0000
  N   N37       1.0  0.88695  0.47517  0.37470  1.0000
  C   C410      1.0  0.80735  0.18899  0.01661  1.0000
  H   H404      1.0  0.91748  0.38661  0.44430  1.0000
  H   H405      1.0  0.86445  0.39078  0.21930  1.0000
  H   H406      1.0  0.90264  0.36357  0.14835  1.0000
  C   C411      1.0  0.72958  0.13004  0.14590  1.0000
  C   C412      1.0  0.98020  0.47241  0.28637  1.0000
  C   C413      1.0  0.83495  0.35696  0.14370  1.0000
  H   H407      1.0  0.98577  0.41085  0.23363  1.0000
  C   C414      1.0  0.89309  0.37735  0.16452  1.0000
  N   N38       1.0  0.88732  0.17103  0.04858  1.0000
  H   H408      1.0  0.69323  0.17301  0.06393  1.0000
  C   C415      1.0  0.90170  0.17992  0.07380  1.0000
  C   C416      1.0  0.99418  0.46979  0.25511  1.0000
  C   C417      1.0  0.92404  0.18490  0.06370  1.0000
  C   C418      1.0  0.93154  0.18099  0.02748  1.0000
  C   C419      1.0  0.86357  0.16725  0.05936  1.0000
  H   H409      1.0  0.67477  0.00403  0.07808  1.0000
  H   H410      1.0  0.89570  0.18386  0.10162  1.0000
  H   H411      1.0  0.70314  0.01087  0.06295  1.0000
  H   H412      1.0  0.93522  0.19260  0.08340  1.0000
  H   H413      1.0  0.99597  0.24342  0.06906  1.0000
  H   H414      1.0  0.85316  0.18398  0.05929  1.0000
  C   C420      1.0  0.78448  0.15538  0.00640  1.0000
  H   H415      1.0  0.86289  0.15934  0.08729  1.0000
  C   C421      1.0  0.85635  0.38115  0.19798  1.0000
  H   H416      1.0  0.69437  0.07488  0.19816  1.0000
  C   C422      1.0  0.93021  0.37216  0.43756  1.0000
  C   C423      1.0  0.89456  0.16711  0.01298  1.0000
  C   C424      1.0  0.82489  0.48296  0.27731  1.0000
  C   C425      1.0  0.93632  0.33315  0.46349  1.0000
  H   H417      1.0  0.82353  0.38332  0.22609  1.0000
  H   H418      1.0  0.93504  0.32619  0.43584  1.0000
  C   C426      1.0  0.68519  0.14519  0.12604  1.0000
  H   H419      1.0  0.94681  0.37910  0.42936  1.0000
  C   C427      1.0  0.98738  0.41118  0.26339  1.0000
  C   C428      1.0  0.97229  0.29115  0.01088  1.0000
  H   H420      1.0  0.92039  0.47717  0.39774  1.0000
  S   S143      1.0  0.74857  0.01984  0.02793  1.0000
  H   H421      1.0  0.80445  0.36111  0.17764  1.0000
  H   H422      1.0  0.82702  0.34690  0.12265  1.0000
  C   C429      1.0  0.89137  0.45104  0.36408  1.0000
  H   H423      1.0  0.71527  0.12288  0.19961  1.0000
  C   C430      1.0  0.82238  0.36474  0.17464  1.0000
  N   N39       1.0  0.93353  0.35639  0.46915  1.0000
  C   C431      1.0  0.99147  0.41224  0.34035  1.0000
  S   S144      1.0  0.95093  0.23417  0.04451  1.0000
  C   C432      1.0  0.78812  0.17613  0.02483  1.0000
  S   S145      1.0  0.90562  0.28011  0.01350  1.0000
  H   H424      1.0  0.87519  0.44297  0.35703  1.0000
  H   H425      1.0  0.88307  0.48508  0.27681  1.0000
  C   C433      1.0  0.72464  0.13821  0.11016  1.0000
  H   H426      1.0  0.73849  0.13842  0.09002  1.0000
  C   C434      1.0  0.97792  0.23146  0.02174  1.0000
  H   H427      1.0  0.68273  0.14547  0.05160  1.0000
  H   H428      1.0  0.80925  0.49412  0.27673  1.0000
  C   C435      1.0  0.71188  0.12965  0.17200  1.0000
  C   C436      1.0  0.68902  0.99924  0.05851  1.0000
  C   C437      1.0  0.99766  0.23701  0.04109  1.0000
  H   H429      1.0  0.96163  0.47395  0.28348  1.0000
  C   C438      1.0  0.84628  0.49248  0.27679  1.0000
  H   H430      1.0  0.97951  0.47577  0.34560  1.0000
  H   H431      1.0  0.98652  0.46925  0.22790  1.0000
  H   H432      1.0  0.71235  0.15084  0.04413  1.0000
  H   H433      1.0  0.88751  0.31482  0.48603  1.0000
  H   H434      1.0  0.85540  0.15567  0.03971  1.0000
  H   H435      1.0  0.94862  0.18545  0.01914  1.0000
  H   H436      1.0  0.66766  0.08217  0.45375  1.0000
  C   C439      1.0  0.93993  0.31796  0.49337  1.0000
  C   C440      1.0  0.86611  0.37881  0.49635  1.0000
  H   H437      1.0  0.68055  0.10961  0.45135  1.0000
  H   H438      1.0  0.99312  0.41263  0.37012  1.0000
  H   H439      1.0  0.68289  0.00238  0.02976  1.0000
  H   H440      1.0  0.94153  0.29954  0.48884  1.0000
  H   H441      1.0  0.85950  0.39652  0.49904  1.0000
  C   C441      1.0  0.68957  0.13743  0.16215  1.0000
  C   C442      1.0  0.93465  0.36511  0.50411  1.0000
  H   H442      1.0  0.67556  0.13650  0.18191  1.0000
  H   H443      1.0  0.66762  0.15028  0.11812  1.0000
  H   H444      1.0  0.92215  0.16954  0.97338  1.0000
  H   H445      1.0  0.93917  0.35727  0.56235  1.0000
  C   C443      1.0  0.87089  0.48543  0.68645  1.0000
  C   C444      1.0  0.86966  0.36513  0.52827  1.0000
  C   C445      1.0  0.87789  0.34215  0.52431  1.0000
  H   H446      1.0  0.96248  0.44648  0.69751  1.0000
  Fe  Fe73      1.0  0.88902  0.27126  0.95953  1.0000
  S   S146      1.0  0.90193  0.29299  0.91119  1.0000
  S   S147      1.0  0.90105  0.23370  0.96365  1.0000
  Fe  Fe74      1.0  0.70628  0.08248  0.95374  1.0000
  S   S148      1.0  0.74439  0.07729  0.96591  1.0000
  C   C446      1.0  0.94095  0.32671  0.52913  1.0000
  C   C447      1.0  0.98032  0.22284  0.98584  1.0000
  H   H447      1.0  0.90266  0.38266  0.82254  1.0000
  C   C448      1.0  0.81988  0.16051  0.97146  1.0000
  H   H448      1.0  0.84222  0.42502  0.57608  1.0000
  C   C449      1.0  0.87519  0.43602  0.59254  1.0000
  C   C450      1.0  0.87753  0.47713  0.59697  1.0000
  Fe  Fe75      1.0  0.88389  0.34115  0.70318  1.0000
  S   S149      1.0  0.91917  0.35309  0.71212  1.0000
  S   S150      1.0  0.86584  0.32146  0.74869  1.0000
  Fe  Fe76      1.0  0.87978  0.36394  0.62535  1.0000
  S   S151      1.0  0.91449  0.37768  0.63012  1.0000
  S   S152      1.0  0.86240  0.37703  0.57227  1.0000
  Fe  Fe77      1.0  0.92542  0.34301  0.65293  1.0000
  S   S153      1.0  0.95892  0.32761  0.63065  1.0000
  Fe  Fe78      1.0  0.90486  0.38671  0.68820  1.0000
  S   S154      1.0  0.91603  0.42000  0.71143  1.0000
  S   S155      1.0  0.89126  0.32821  0.64489  1.0000
  S   S156      1.0  0.86891  0.37580  0.68269  1.0000
  C   C451      1.0  0.89863  0.44494  0.70056  1.0000
  C   C452      1.0  0.87590  0.44360  0.68887  1.0000
  H   H449      1.0  0.98552  0.39586  0.68950  1.0000
  C   C453      1.0  0.90748  0.46653  0.70494  1.0000
  H   H450      1.0  0.86900  0.42702  0.68515  1.0000
  H   H451      1.0  0.92492  0.46773  0.71445  1.0000
  C   C454      1.0  0.93838  0.35042  0.53458  1.0000
  C   C455      1.0  0.76755  0.01333  0.93186  1.0000
  S   S157      1.0  0.85470  0.26633  0.98734  1.0000
  H   H452      1.0  0.71434  0.01403  0.97083  1.0000
  C   C456      1.0  0.97950  0.34744  0.63955  1.0000
  C   C457      1.0  0.97361  0.36655  0.66168  1.0000
  C   C458      1.0  0.89379  0.48671  0.69719  1.0000
  H   H453      1.0  0.95631  0.36971  0.67184  1.0000
  C   C459      1.0  0.89169  0.29984  0.86568  1.0000
  C   C460      1.0  0.90557  0.31221  0.84175  1.0000
  C   C461      1.0  0.89821  0.31844  0.80568  1.0000
  C   C462      1.0  0.87668  0.31259  0.79307  1.0000
  C   C463      1.0  0.86281  0.30022  0.81697  1.0000
  C   C464      1.0  0.87028  0.29378  0.85295  1.0000
  H   H454      1.0  0.92216  0.31701  0.85122  1.0000
  H   H455      1.0  0.90913  0.32791  0.78777  1.0000
  H   H456      1.0  0.84612  0.29560  0.80765  1.0000
  H   H457      1.0  0.85936  0.28430  0.87090  1.0000
  C   C465      1.0  0.99353  0.48839  0.66018  1.0000
  S   S158      1.0  0.69272  0.06955  0.89870  1.0000
  C   C466      1.0  0.98561  0.26576  0.90256  1.0000
  H   H458      1.0  0.67389  0.04916  0.83501  1.0000
  H   H459      1.0  0.94163  0.28497  0.95829  1.0000
  H   H460      1.0  0.88043  0.33133  0.54856  1.0000
  H   H461      1.0  0.83208  0.15428  0.95059  1.0000
  H   H462      1.0  0.95704  0.48489  0.66644  1.0000
  C   C467      1.0  0.95916  0.28027  0.94970  1.0000
  N   N40       1.0  0.75242  0.00834  0.90469  1.0000
  C   C468      1.0  0.67023  0.06755  0.83243  1.0000
  N   N41       1.0  0.97705  0.28240  0.97352  1.0000
  H   H463      1.0  0.84425  0.46279  0.67395  1.0000
  H   H464      1.0  0.67816  0.07450  0.51712  1.0000
  H   H465      1.0  0.94359  0.31520  0.55270  1.0000
  C   C469      1.0  0.99380  0.31836  0.71192  1.0000
  H   H466      1.0  0.82443  0.46489  0.57111  1.0000
  C   C470      1.0  0.86191  0.46384  0.68258  1.0000
  H   H467      1.0  0.76791  0.03069  0.94244  1.0000
  S   S159      1.0  0.84865  0.19633  0.97870  1.0000
  C   C471      1.0  0.91673  0.17207  0.00187  1.0000
  C   C472      1.0  0.97422  0.47699  0.67124  1.0000
  H   H468      1.0  0.67868  0.11742  0.87721  1.0000
  C   C473      1.0  0.97728  0.45565  0.68893  1.0000
  H   H469      1.0  0.94870  0.27001  0.89547  1.0000
  H   H470      1.0  0.88297  0.16070  0.99264  1.0000
  Fe  Fe79      1.0  0.86743  0.22889  0.99420  1.0000
  S   S160      1.0  0.69561  0.05983  0.00057  1.0000
  C   C474      1.0  0.96311  0.27186  0.91397  1.0000
  C   C475      1.0  0.67773  0.08217  0.86010  1.0000
  C   C476      1.0  0.82342  0.18133  0.98969  1.0000
  N   N42       1.0  0.87621  0.39553  0.78577  1.0000
  C   C477      1.0  0.86404  0.37628  0.78757  1.0000
  C   C478      1.0  0.86660  0.41542  0.77039  1.0000
  C   C479      1.0  0.84160  0.37660  0.77393  1.0000
  C   C480      1.0  0.84411  0.41644  0.75672  1.0000
  C   C481      1.0  0.83159  0.39684  0.75842  1.0000
  C   C482      1.0  0.90017  0.39434  0.79825  1.0000
  H   H471      1.0  0.87174  0.36042  0.79918  1.0000
  H   H472      1.0  0.87643  0.43055  0.76816  1.0000
  H   H473      1.0  0.83234  0.36101  0.77469  1.0000
  H   H474      1.0  0.83665  0.43222  0.74427  1.0000
  H   H475      1.0  0.81430  0.39719  0.74729  1.0000
  H   H476      1.0  0.91163  0.38784  0.77545  1.0000
  H   H477      1.0  0.90549  0.41158  0.80636  1.0000
  H   H478      1.0  0.73442  0.02485  0.85950  1.0000
  C   C483      1.0  0.99027  0.38145  0.67176  1.0000
  H   H479      1.0  0.90559  0.45217  0.60963  1.0000
  H   H480      1.0  0.99318  0.28996  0.67424  1.0000
  C   C484      1.0  0.73623  0.02643  0.88991  1.0000
  C   C485      1.0  0.80063  0.14767  0.97963  1.0000
  H   H481      1.0  0.96529  0.21836  0.97074  1.0000
  C   C486      1.0  0.66804  0.09004  0.52495  1.0000
  H   H482      1.0  0.71906  0.02521  0.90299  1.0000
  H   H483      1.0  0.97520  0.32140  0.71254  1.0000
  S   S161      1.0  0.70191  0.11452  0.98862  1.0000
  H   H484      1.0  0.88292  0.41862  0.59542  1.0000
  N   N43       1.0  0.85501  0.48056  0.58646  1.0000
  H   H485      1.0  0.98889  0.25883  0.87514  1.0000
  C   C487      1.0  0.88796  0.45484  0.60016  1.0000
  C   C488      1.0  0.84236  0.46218  0.57900  1.0000
  C   C489      1.0  0.85226  0.43966  0.58183  1.0000
  H   H486      1.0  0.88737  0.49159  0.60409  1.0000
  H   H487      1.0  0.74188  0.04396  0.89539  1.0000
  C   C490      1.0  0.67293  0.10594  0.85629  1.0000
  H   H488      1.0  0.79827  0.13183  0.96509  1.0000
  H   H489      1.0  0.93243  0.38350  0.50863  1.0000
  H   H490      1.0  0.79336  0.99985  0.97031  1.0000
  Fe  Fe80      1.0  0.73951  0.10802  0.00424  1.0000
  H   H491      1.0  0.66953  0.08174  0.58332  1.0000
  H   H492      1.0  0.85914  0.59133  0.47171  1.0000
  S   S162      1.0  0.90519  0.63820  0.05999  1.0000
  H   H493      1.0  0.84774  0.56042  0.14105  1.0000
  C   C491      1.0  0.96510  0.65148  0.02707  1.0000
  H   H494      1.0  0.98415  0.58278  0.29844  1.0000
  H   H495      1.0  0.99083  0.71103  0.04728  1.0000
  Fe  Fe81      1.0  0.89676  0.58789  0.26109  1.0000
  S   S163      1.0  0.89615  0.55475  0.23015  1.0000
  S   S164      1.0  0.88744  0.62211  0.23223  1.0000
  Fe  Fe82      1.0  0.91080  0.56328  0.33477  1.0000
  S   S165      1.0  0.91141  0.52827  0.30844  1.0000
  S   S166      1.0  0.92486  0.56306  0.39356  1.0000
  Fe  Fe83      1.0  0.92868  0.54482  0.26073  1.0000
  S   S167      1.0  0.95991  0.52903  0.23178  1.0000
  Fe  Fe84      1.0  0.87890  0.54142  0.28072  1.0000
  C   C492      1.0  0.99085  0.70876  0.01762  1.0000
  S   S168      1.0  0.93077  0.57887  0.28851  1.0000
  S   S169      1.0  0.87669  0.57546  0.31014  1.0000
  C   C493      1.0  0.90998  0.56887  0.43584  1.0000
  C   C494      1.0  0.88751  0.57896  0.43689  1.0000
  C   C495      1.0  0.87642  0.58325  0.47114  1.0000
  H   H496      1.0  0.66591  0.89386  0.14626  1.0000
  C   C496      1.0  0.92114  0.56303  0.46935  1.0000
  H   H497      1.0  0.87880  0.58384  0.41140  1.0000
  H   H498      1.0  0.93857  0.55535  0.46885  1.0000
  H   H499      1.0  0.86517  0.59694  0.11158  1.0000
  Fe  Fe85      1.0  0.89124  0.66453  0.01685  1.0000
  H   H500      1.0  0.94810  0.65039  0.01533  1.0000
  H   H501      1.0  0.96123  0.53370  0.31069  1.0000
  H   H502      1.0  0.84659  0.51949  0.36626  1.0000
  H   H503      1.0  0.83186  0.57013  0.25604  1.0000
  H   H504      1.0  0.83976  0.62822  0.18493  1.0000
  C   C497      1.0  0.99111  0.57491  0.18936  1.0000
  C   C498      1.0  0.96756  0.65390  0.06513  1.0000
  N   N44       1.0  0.69717  0.97509  0.06419  1.0000
  C   C499      1.0  0.90030  0.63464  0.10808  1.0000
  C   C500      1.0  0.90909  0.61419  0.12527  1.0000
  C   C501      1.0  0.90534  0.61016  0.16319  1.0000
  C   C502      1.0  0.89312  0.62678  0.18459  1.0000
  C   C503      1.0  0.88462  0.64742  0.16757  1.0000
  C   C504      1.0  0.88806  0.65130  0.12944  1.0000
  H   H505      1.0  0.91864  0.60123  0.10900  1.0000
  H   H506      1.0  0.91201  0.59423  0.17588  1.0000
  H   H507      1.0  0.87527  0.66046  0.18393  1.0000
  H   H508      1.0  0.88137  0.66721  0.11667  1.0000
  H   H509      1.0  0.72038  0.98299  0.10702  1.0000
  S   S170      1.0  0.68351  0.87595  0.07760  1.0000
  H   H510      1.0  0.73322  0.94218  0.11906  1.0000
  C   C505      1.0  0.68798  0.95814  0.04405  1.0000
  C   C506      1.0  0.98953  0.65570  0.07993  1.0000
  C   C507      1.0  0.83489  0.60095  0.22357  1.0000
  H   H511      1.0  0.97689  0.57124  0.17154  1.0000
  H   H512      1.0  0.99362  0.53421  0.35435  1.0000
  H   H513      1.0  0.95370  0.71124  0.01368  1.0000
  C   C508      1.0  0.83490  0.57721  0.22876  1.0000
  H   H514      1.0  0.83453  0.60055  0.10292  1.0000
  C   C509      1.0  0.90047  0.50948  0.40109  1.0000
  C   C510      1.0  0.84843  0.60450  0.12231  1.0000
  C   C511      1.0  0.98294  0.52892  0.26257  1.0000
  C   C512      1.0  0.97867  0.53182  0.30034  1.0000
  H   H515      1.0  0.71676  0.91123  0.08242  1.0000
  C   C513      1.0  0.74774  0.97317  0.01661  1.0000
  H   H516      1.0  0.83973  0.54403  0.20288  1.0000
  C   C514      1.0  0.99702  0.53211  0.32508  1.0000
  H   H517      1.0  0.87710  0.53973  0.39813  1.0000
  H   H518      1.0  0.83229  0.61249  0.24689  1.0000
  N   N45       1.0  0.84383  0.59525  0.15920  1.0000
  C   C515      1.0  0.83926  0.60975  0.18836  1.0000
  C   C516      1.0  0.84392  0.57192  0.16407  1.0000
  H   H519      1.0  0.76064  0.97143  0.03806  1.0000
  C   C517      1.0  0.83936  0.56255  0.19884  1.0000
  H   H520      1.0  0.96946  0.58137  0.23667  1.0000
  H   H521      1.0  0.95241  0.65460  0.08284  1.0000
  C   C518      1.0  0.72050  0.94655  0.09791  1.0000
  C   C519      1.0  0.98700  0.58059  0.22642  1.0000
  S   S171      1.0  0.84645  0.52273  0.27713  1.0000
  H   H522      1.0  0.91397  0.51827  0.41456  1.0000
  H   H523      1.0  0.84957  0.62349  0.12260  1.0000
  H   H524      1.0  0.67539  0.96242  0.02270  1.0000
  C   C520      1.0  0.66726  0.86314  0.11308  1.0000
  C   C521      1.0  0.88760  0.57747  0.50467  1.0000
  Fe  Fe86      1.0  0.69745  0.86503  0.02046  1.0000
  H   H525      1.0  0.68779  0.92151  0.03421  1.0000
  H   H526      1.0  0.78241  0.74672  0.02036  1.0000
  C   C522      1.0  0.71312  0.96955  0.09103  1.0000
  C   C523      1.0  0.69496  0.93497  0.05027  1.0000
  C   C524      1.0  0.87972  0.52152  0.39203  1.0000
  C   C525      1.0  0.71131  0.92919  0.07736  1.0000
  H   H527      1.0  0.99130  0.65795  0.10949  1.0000
  H   H528      1.0  0.66620  0.83369  0.44267  1.0000
  C   C526      1.0  0.86258  0.51016  0.37433  1.0000
  C   C527      1.0  0.91001  0.56721  0.50360  1.0000
  S   S172      1.0  0.89364  0.70304  0.01412  1.0000
  H   H529      1.0  0.66540  0.83010  0.08736  1.0000
  H   H530      1.0  0.76004  0.78357  0.00598  1.0000
  S   S173      1.0  0.73337  0.87520  0.00668  1.0000
  C   C528      1.0  0.73837  0.99520  0.00655  1.0000
  Fe  Fe87      1.0  0.91038  0.69620  0.95853  1.0000
  S   S174      1.0  0.90986  0.65794  0.96290  1.0000
  H   H531      1.0  0.94660  0.57327  0.72558  1.0000
  Fe  Fe88      1.0  0.85992  0.70433  0.98221  1.0000
  S   S175      1.0  0.85673  0.66595  0.98897  1.0000
  H   H532      1.0  0.95602  0.64983  0.65957  1.0000
  Fe  Fe89      1.0  0.87575  0.66211  0.93481  1.0000
  S   S176      1.0  0.86362  0.63529  0.89474  1.0000
  S   S177      1.0  0.87707  0.70026  0.92629  1.0000
  Fe  Fe90      1.0  0.68728  0.85502  0.93828  1.0000
  S   S178      1.0  0.72200  0.86495  0.91998  1.0000
  C   C529      1.0  0.77639  0.77951  0.99245  1.0000
  Fe  Fe91      1.0  0.73593  0.84406  0.96901  1.0000
  S   S179      1.0  0.76940  0.82191  0.95500  1.0000
  Fe  Fe92      1.0  0.71669  0.89482  0.95925  1.0000
  S   S180      1.0  0.71958  0.93208  0.94067  1.0000
  C   C530      1.0  0.98388  0.60336  0.72465  1.0000
  C   C531      1.0  0.99063  0.70380  0.94103  1.0000
  Fe  Fe93      1.0  0.88553  0.57435  0.60512  1.0000
  S   S181      1.0  0.89875  0.53843  0.61952  1.0000
  S   S182      1.0  0.87290  0.58357  0.54698  1.0000
  Fe  Fe94      1.0  0.88669  0.59026  0.68712  1.0000
  S   S183      1.0  0.89940  0.55510  0.70703  1.0000
  S   S184      1.0  0.88662  0.62255  0.72292  1.0000
  Fe  Fe95      1.0  0.92271  0.55494  0.65767  1.0000
  S   S185      1.0  0.95855  0.53964  0.66704  1.0000
  Fe  Fe96      1.0  0.87422  0.54153  0.66724  1.0000
  C   C532      1.0  0.74104  0.95339  0.99830  1.0000
  S   S186      1.0  0.91188  0.59092  0.63958  1.0000
  S   S187      1.0  0.85910  0.57671  0.65103  1.0000
  C   C533      1.0  0.84162  0.69422  0.83336  1.0000
  H   H533      1.0  0.73321  0.79244  0.94460  1.0000
  C   C534      1.0  0.83258  0.72846  0.86927  1.0000
  H   H534      1.0  0.71373  0.81374  0.83480  1.0000
  C   C535      1.0  0.97475  0.57653  0.62992  1.0000
  C   C536      1.0  0.67223  0.85799  0.79084  1.0000
  H   H535      1.0  0.95781  0.57933  0.61814  1.0000
  H   H536      1.0  0.99059  0.70218  0.91125  1.0000
  H   H537      1.0  0.83018  0.66296  0.85650  1.0000
  C   C537      1.0  0.81079  0.75290  0.98399  1.0000
  H   H538      1.0  0.83328  0.74685  0.87341  1.0000
  C   C538      1.0  0.97978  0.55792  0.65381  1.0000
  C   C539      1.0  0.72509  0.95555  0.96945  1.0000
  C   C540      1.0  0.71525  0.97751  0.96022  1.0000
  H   H539      1.0  0.91886  0.56281  0.52915  1.0000
  S   S188      1.0  0.94353  0.70887  0.93505  1.0000
  C   C541      1.0  0.96402  0.63705  0.67822  1.0000
  S   S189      1.0  0.82587  0.72580  0.99509  1.0000
  C   C542      1.0  0.87199  0.63116  0.84777  1.0000
  C   C543      1.0  0.86549  0.61147  0.82918  1.0000
  C   C544      1.0  0.87048  0.60818  0.79129  1.0000
  C   C545      1.0  0.88159  0.62486  0.77134  1.0000
  C   C546      1.0  0.88820  0.64451  0.78998  1.0000
  C   C547      1.0  0.88367  0.64754  0.82806  1.0000
  H   H540      1.0  0.85638  0.59872  0.84411  1.0000
  H   H541      1.0  0.86517  0.59305  0.77733  1.0000
  H   H542      1.0  0.89683  0.65751  0.77483  1.0000
  H   H543      1.0  0.88885  0.66274  0.84200  1.0000
  H   H544      1.0  0.73835  0.98199  0.87278  1.0000
  C   C548      1.0  0.81925  0.76855  0.95861  1.0000
  C   C549      1.0  0.80637  0.78944  0.95026  1.0000
  C   C550      1.0  0.78489  0.79520  0.96718  1.0000
  H   H545      1.0  0.68121  0.93786  0.69942  1.0000
  H   H546      1.0  0.67630  0.80861  0.81274  1.0000
  H   H547      1.0  0.92805  0.59681  0.74309  1.0000
  H   H548      1.0  0.81326  0.80139  0.93081  1.0000
  C   C551      1.0  0.96958  0.70661  0.96021  1.0000
  C   C552      1.0  0.78084  0.97324  0.93601  1.0000
  C   C553      1.0  0.72593  0.80412  0.88899  1.0000
  C   C554      1.0  0.70962  0.80536  0.86060  1.0000
  S   S190      1.0  0.85360  0.51055  0.67642  1.0000
  S   S191      1.0  0.68097  0.88608  0.97425  1.0000
  C   C555      1.0  0.68334  0.78630  0.89843  1.0000
  C   C556      1.0  0.99185  0.59143  0.62074  1.0000
  H   H549      1.0  0.66654  0.77972  0.90263  1.0000
  H   H550      1.0  0.69091  0.85890  0.84246  1.0000
  S   S192      1.0  0.70095  0.83262  0.98590  1.0000
  C   C557      1.0  0.69927  0.78468  0.92730  1.0000
  H   H551      1.0  0.83582  0.76469  0.94568  1.0000
  H   H552      1.0  0.84938  0.68574  0.80926  1.0000
  H   H553      1.0  0.66624  0.89969  0.71361  1.0000
  H   H554      1.0  0.79299  0.67558  0.91284  1.0000
  H   H555      1.0  0.81190  0.68606  0.94760  1.0000
  H   H556      1.0  0.83005  0.50625  0.60479  1.0000
  C   C558      1.0  0.84267  0.71789  0.83810  1.0000
  H   H557      1.0  0.70301  0.97937  0.93780  1.0000
  H   H558      1.0  0.69490  0.77701  0.95358  1.0000
  C   C559      1.0  0.98790  0.63486  0.68205  1.0000
  C   C560      1.0  0.94624  0.58983  0.74072  1.0000
  C   C561      1.0  0.75107  0.98615  0.89305  1.0000
  H   H559      1.0  0.68702  0.86154  0.77408  1.0000
  C   C562      1.0  0.83086  0.68137  0.86034  1.0000
  C   C563      1.0  0.81120  0.67782  0.91995  1.0000
  N   N46       1.0  0.96046  0.60583  0.72116  1.0000
  C   C564      1.0  0.95047  0.62232  0.69815  1.0000
  H   H560      1.0  0.90084  0.50330  0.70027  1.0000
  C   C565      1.0  0.72076  0.79346  0.92232  1.0000
  H   H561      1.0  0.82061  0.66060  0.92253  1.0000
  H   H562      1.0  0.79132  0.95943  0.94913  1.0000
  H   H563      1.0  0.85135  0.72800  0.81772  1.0000
  H   H564      1.0  0.81427  0.72333  0.91989  1.0000
  C   C566      1.0  0.67449  0.85655  0.82966  1.0000
  C   C567      1.0  0.78206  0.99590  0.94778  1.0000
  N   N47       1.0  0.68870  0.79633  0.86550  1.0000
  H   H565      1.0  0.95256  0.58660  0.76931  1.0000
  H   H566      1.0  0.85627  0.51733  0.58924  1.0000
  H   H567      1.0  0.74242  0.81157  0.88550  1.0000
  C   C568      1.0  0.96978  0.70881  0.99867  1.0000
  H   H568      1.0  0.93194  0.62405  0.69482  1.0000
  H   H569      1.0  0.99185  0.58973  0.74176  1.0000
  N   N48       1.0  0.82183  0.69171  0.89151  1.0000
  H   H570      1.0  0.76341  0.95058  0.90034  1.0000
  C   C569      1.0  0.78921  0.75856  0.00064  1.0000
  C   C570      1.0  0.82196  0.71504  0.89567  1.0000
  H   H571      1.0  0.98787  0.60598  0.60259  1.0000
  C   C571      1.0  0.76528  0.96829  0.90845  1.0000
  H   H572      1.0  0.67234  0.77877  0.82282  1.0000
  H   H573      1.0  0.99104  0.50498  0.64653  1.0000
  C   C572      1.0  0.98451  0.65085  0.00427  1.0000
  C   C573      1.0  0.84400  0.50392  0.58377  1.0000
  H   H574      1.0  0.98263  0.64976  0.97451  1.0000
  H   H575      1.0  0.83677  0.50719  0.55575  1.0000
  C   C574      1.0  0.72172  0.99721  0.97880  1.0000
  H   H576      1.0  0.74894  0.93659  0.00539  1.0000
  C   C575      1.0  0.67224  0.79623  0.83495  1.0000
  C   C576      1.0  0.99791  0.61803  0.70560  1.0000
