data_image0
_chemical_formula_structural       CHNHC2FeSCSCFeHSCH2CSHCHSH2C3H2CHCHCNCS2CSC6H4C6H2CHCHSHFeH2C2H2C2SH2CHCHC3N2HNHCH3CH2C3H3C2H5CFeHFeHSCFeC2HSFeC2H3NCSH2SFeSH2FeH3CS2FeS2CHSCHSHCH3C6SH3C2H5C6H4NC6NC2HS2H2CHCHC2H2C2FeCSCH2CH2NC2FeC2HCH2CSH5CHSC2HSFeCH3C3SFeSHSHFeHSH3S2HCS2HC2FeHSCSC2NHCNHCHC7H4C6H7SH2FeC3HC3HCHCFeH2CFeHNC5HSCHNCHSH2FeCHCHSHC2SHCFeH2CNHFeCSH3CFeHC5S2CSH3FeSHC3H2CSCFeS2HC3H2CH2NC7H4CH2SH3C7H3NHCHC2SCH3NCH3SC3SCFeCHFeH3C2NHC2S2CFeSHFeS2H2SCSC7H4C6H4FeHSH2SFeS2FeHSFeHC7H4C6H4SHSCHC2H2C2H2SH2CHFeHCHC2H4CHSC2NSC2H2CSC2HCH2NHCFeN2C2SH4CNH2CH2FeC3HC2H2SCFeSH3S2FeSH2SC6SH3C6H6FeHSHC2FeSCFeHSCHSFeSC6H4SHFeC6H4C2SH4CH2CH3C2HCFeCSHNSHFeNC2HCHSCHCH2NFeHCHC2H2CFeHC2NCHNH2SHFeSCFeS3HSH3C6HFeHSC6H4Fe2SCHSFeS2FeHSC9H4C6H5C2H3C2NSCHNH2C3SH3CH3CH2FeCSH2SNHC2SHC2H2SHS2HFeSHCS2HFeSCHSC8H2C6H5CH2SFeHCFeSCFeHSH2SFeSC7H3CHC7H4CNCFeCHCH3CSC2NC2H3SHCH3C2H2FeCH2CH2CHCHCNSHSH2CHCHSFeSFeSNSHC2H5SCFeC2SC2FeSCSC2H2FeHS2C2S2H2FeSH2CFeC2H7C7H4C6H6SHNH2CH2C6HFeCHCHCSHCH3C2HCHSHCHNCSC3N2FeSFeHSHFeHSCH2FeCSFeSHCHCH4SCFeSHC2SHFeSC2HSFeHS2C2HSHCH2C7H4C6H4C2HSHSNSC2HCFeCH3SH3S2NH3CFeCHCH3C3H2CH3CHSH2FeSH2FeSHSC2HCFeHSC2HS2HNFeCHCHSHC2H3C3HC6H4C6H5C2H3S2CNC3FeCH2C2H5NC2HSC2SCH2FeC2FeH5C3HCH2SCSC3S2FeSC2FeC2HSCHCSHNSCS2CH2C11H3C6H2SH2CH3C2H2SCHCSC2HFeCHSCHSHCFeHFe2CHCHC3H2SCNSH2FeH3CHSCNCHSNH2FeHCH5CHC3H4CH4
_chemical_formula_sum              "C576 H576 N48 Fe96 S192"
_cell_length_a       44.9394
_cell_length_b       45.1507
_cell_length_c       38.724
_cell_angle_alpha    90.1188
_cell_angle_beta     90.0235
_cell_angle_gamma    90.0357

_space_group_name_H-M_alt    "P 1"
_space_group_IT_number       1

loop_
  _space_group_symop_operation_xyz
  'x, y, z'

loop_
  _atom_site_type_symbol
  _atom_site_label
  _atom_site_symmetry_multiplicity
  _atom_site_fract_x
  _atom_site_fract_y
  _atom_site_fract_z
  _atom_site_occupancy
  C   C1        1.0  0.28815  0.09920  0.35328  1.0000
  H   H1        1.0  0.19062  0.24437  0.01687  1.0000
  N   N1        1.0  0.02825  0.21637  0.07483  1.0000
  H   H2        1.0  0.23944  0.18936  0.04694  1.0000
  C   C2        1.0  0.04294  0.23958  0.05986  1.0000
  C   C3        1.0  0.22286  0.48187  0.41594  1.0000
  Fe  Fe1       1.0  0.09999  0.14957  0.02860  1.0000
  S   S1        1.0  0.09578  0.12989  0.08269  1.0000
  C   C4        1.0  0.99875  0.21882  0.08315  1.0000
  S   S2        1.0  0.11465  0.19687  0.02001  1.0000
  C   C5        1.0  0.03376  0.47255  0.40652  1.0000
  Fe  Fe2       1.0  0.12295  0.37424  0.46220  1.0000
  H   H3        1.0  0.18617  0.21448  0.48370  1.0000
  S   S3        1.0  0.08481  0.37789  0.42328  1.0000
  C   C6        1.0  0.12212  0.31848  0.38844  1.0000
  H   H4        1.0  0.03512  0.17609  0.10281  1.0000
  H   H5        1.0  0.07823  0.31470  0.41033  1.0000
  C   C7        1.0  0.01918  0.44681  0.41737  1.0000
  S   S4        1.0  0.16966  0.35944  0.45002  1.0000
  H   H6        1.0  0.04031  0.17376  0.05667  1.0000
  C   C8        1.0  0.05717  0.03333  0.06243  1.0000
  H   H7        1.0  0.06788  0.19123  0.08374  1.0000
  S   S5        1.0  0.28702  0.11546  0.45012  1.0000
  H   H8        1.0  0.20827  0.46269  0.41606  1.0000
  H   H9        1.0  0.26223  0.45610  0.40745  1.0000
  C   C9        1.0  0.10691  0.27901  0.42638  1.0000
  C   C10       1.0  0.99840  0.26931  0.06284  1.0000
  C   C11       1.0  0.20806  0.00482  0.48668  1.0000
  H   H10       1.0  0.19589  0.26742  0.37743  1.0000
  H   H11       1.0  0.09029  0.26871  0.44273  1.0000
  C   C12       1.0  0.23618  0.01817  0.48893  1.0000
  H   H12       1.0  0.22631  0.28477  0.03105  1.0000
  C   C13       1.0  0.27698  0.21887  0.05238  1.0000
  H   H13       1.0  0.02998  0.43174  0.43527  1.0000
  C   C14       1.0  0.15067  0.30620  0.38719  1.0000
  N   N2        1.0  0.31790  0.21001  0.01376  1.0000
  C   C15       1.0  0.29650  0.01987  0.38011  1.0000
  S   S6        1.0  0.01538  0.47560  0.21624  1.0000
  S   S7        1.0  0.28559  0.29880  0.00796  1.0000
  C   C16       1.0  0.30507  0.22642  0.03949  1.0000
  S   S8        1.0  0.99885  0.02782  0.25204  1.0000
  C   C17       1.0  0.06862  0.44631  0.33710  1.0000
  C   C18       1.0  0.04936  0.42231  0.34171  1.0000
  C   C19       1.0  0.05511  0.40124  0.36769  1.0000
  C   C20       1.0  0.07993  0.40407  0.38961  1.0000
  C   C21       1.0  0.09938  0.42791  0.38482  1.0000
  C   C22       1.0  0.09379  0.44883  0.35858  1.0000
  H   H14       1.0  0.02999  0.42001  0.32533  1.0000
  H   H15       1.0  0.03995  0.38285  0.37112  1.0000
  H   H16       1.0  0.11860  0.43032  0.40142  1.0000
  H   H17       1.0  0.32171  0.05025  0.34925  1.0000
  C   C23       1.0  0.06644  0.10817  0.10035  1.0000
  C   C24       1.0  0.07094  0.09387  0.13220  1.0000
  C   C25       1.0  0.04872  0.07564  0.14675  1.0000
  C   C26       1.0  0.02145  0.07190  0.12988  1.0000
  C   C27       1.0  0.01677  0.08658  0.09826  1.0000
  C   C28       1.0  0.03917  0.10443  0.08341  1.0000
  H   H18       1.0  0.09189  0.09666  0.14561  1.0000
  H   H19       1.0  0.05265  0.06460  0.17111  1.0000
  C   C29       1.0  0.25735  0.06670  0.38896  1.0000
  H   H20       1.0  0.03536  0.11515  0.05887  1.0000
  C   C30       1.0  0.26173  0.00067  0.48658  1.0000
  H   H21       1.0  0.10890  0.46725  0.35507  1.0000
  S   S9        1.0  0.22419  0.42015  0.48290  1.0000
  H   H22       1.0  0.16787  0.31749  0.37265  1.0000
  Fe  Fe3       1.0  0.01886  0.47877  0.27439  1.0000
  H   H23       1.0  0.11720  0.33902  0.37503  1.0000
  H   H24       1.0  0.29429  0.11549  0.37363  1.0000
  C   C31       1.0  0.08591  0.04432  0.06718  1.0000
  C   C32       1.0  0.30174  0.04733  0.36457  1.0000
  H   H25       1.0  0.04614  0.02150  0.08322  1.0000
  H   H26       1.0  0.24229  0.08509  0.39340  1.0000
  C   C33       1.0  0.08397  0.06557  0.01011  1.0000
  C   C34       1.0  0.13557  0.26711  0.42419  1.0000
  S   S10       1.0  0.06157  0.47426  0.30598  1.0000
  H   H27       1.0  0.09729  0.04110  0.09162  1.0000
  H   H28       1.0  0.31605  0.24613  0.04935  1.0000
  C   C35       1.0  0.10019  0.30483  0.40830  1.0000
  H   H29       1.0  0.01972  0.03082  0.02824  1.0000
  C   C36       1.0  0.26185  0.19465  0.03840  1.0000
  H   H30       1.0  0.18909  0.24701  0.41649  1.0000
  C   C37       1.0  0.02835  0.26647  0.05396  1.0000
  C   C38       1.0  0.18757  0.26926  0.40432  1.0000
  C   C39       1.0  0.09942  0.06058  0.04091  1.0000
  N   N3        1.0  0.28223  0.07029  0.36905  1.0000
  N   N4        1.0  0.05567  0.05502  0.00578  1.0000
  H   H31       1.0  0.26644  0.23255  0.07192  1.0000
  N   N5        1.0  0.15706  0.28078  0.40487  1.0000
  H   H32       1.0  0.06585  0.23721  0.05145  1.0000
  C   C40       1.0  0.27091  0.01588  0.39996  1.0000
  H   H33       1.0  0.18821  0.01833  0.48833  1.0000
  H   H34       1.0  0.14085  0.24755  0.43924  1.0000
  H   H35       1.0  0.26267  0.16021  0.99993  1.0000
  C   C41       1.0  0.21037  0.25492  0.49347  1.0000
  H   H36       1.0  0.03988  0.28446  0.04112  1.0000
  H   H37       1.0  0.20235  0.28428  0.41938  1.0000
  C   C42       1.0  0.04357  0.18803  0.07972  1.0000
  C   C43       1.0  0.04225  0.03897  0.03139  1.0000
  C   C44       1.0  0.23189  0.26889  0.01110  1.0000
  H   H38       1.0  0.30715  0.09825  0.33489  1.0000
  H   H39       1.0  0.26828  0.10725  0.33912  1.0000
  H   H40       1.0  0.28349  0.01079  0.48833  1.0000
  C   C45       1.0  0.27494  0.17824  0.01192  1.0000
  C   C46       1.0  0.25115  0.03940  0.40437  1.0000
  H   H41       1.0  0.12139  0.07005  0.04476  1.0000
  H   H42       1.0  0.23140  0.03671  0.42017  1.0000
  H   H43       1.0  0.02684  0.01722  0.33661  1.0000
  H   H44       1.0  0.26649  0.99472  0.41219  1.0000
  H   H45       1.0  0.27354  0.45933  0.48991  1.0000
  C   C47       1.0  0.25353  0.47826  0.41131  1.0000
  Fe  Fe4       1.0  0.16592  0.32717  0.49426  1.0000
  H   H46       1.0  0.04899  0.99552  0.38830  1.0000
  Fe  Fe5       1.0  0.30329  0.14452  0.49326  1.0000
  H   H47       1.0  0.23050  0.18162  0.48682  1.0000
  S   S11       1.0  0.17756  0.27739  0.49042  1.0000
  C   C48       1.0  0.30312  0.18634  0.99972  1.0000
  Fe  Fe6       1.0  0.18267  0.39278  0.49076  1.0000
  C   C49       1.0  0.00493  0.00816  0.34477  1.0000
  C   C50       1.0  0.23301  0.20526  0.49040  1.0000
  H   H48       1.0  0.31135  0.47491  0.41145  1.0000
  S   S12       1.0  0.23843  0.05683  0.49351  1.0000
  Fe  Fe7       1.0  0.28287  0.08019  0.49082  1.0000
  C   C51       1.0  0.21148  0.24599  0.00305  1.0000
  C   C52       1.0  0.20784  0.22405  0.48861  1.0000
  H   H49       1.0  0.31235  0.00194  0.37702  1.0000
  H   H50       1.0  0.99573  0.08388  0.08501  1.0000
  H   H51       1.0  0.05582  0.47727  0.41648  1.0000
  N   N6        1.0  0.02097  0.49083  0.38260  1.0000
  C   C53       1.0  0.29833  0.37570  0.89734  1.0000
  S   S13       1.0  0.11312  0.18133  0.93641  1.0000
  H   H52       1.0  0.16607  0.48155  0.56958  1.0000
  H   H53       1.0  0.15488  0.41534  0.64662  1.0000
  S   S14       1.0  0.19584  0.19268  0.97029  1.0000
  Fe  Fe8       1.0  0.09868  0.13532  0.95138  1.0000
  S   S15       1.0  0.09233  0.09347  0.91872  1.0000
  H   H54       1.0  0.03207  0.11296  0.74408  1.0000
  H   H55       1.0  0.12024  0.44788  0.67864  1.0000
  Fe  Fe9       1.0  0.08063  0.19619  0.97728  1.0000
  H   H56       1.0  0.05650  0.11648  0.70699  1.0000
  H   H57       1.0  0.10449  0.06036  0.80528  1.0000
  H   H58       1.0  0.04092  0.08479  0.96691  1.0000
  C   C54       1.0  0.22589  0.45752  0.49570  1.0000
  S   S16       1.0  0.18182  0.35974  0.53410  1.0000
  S   S17       1.0  0.06355  0.15038  0.98899  1.0000
  Fe  Fe10      1.0  0.13403  0.37421  0.54021  1.0000
  S   S18       1.0  0.11586  0.37855  0.59503  1.0000
  S   S19       1.0  0.29677  0.11007  0.53468  1.0000
  C   C55       1.0  0.27517  0.38767  0.95179  1.0000
  H   H59       1.0  0.08740  0.00905  0.71357  1.0000
  S   S20       1.0  0.03100  0.47775  0.65857  1.0000
  C   C56       1.0  0.32621  0.13441  0.62503  1.0000
  H   H60       1.0  0.01138  0.28470  0.96222  1.0000
  S   S21       1.0  0.13633  0.40996  0.49990  1.0000
  H   H61       1.0  0.26909  0.40367  0.97150  1.0000
  C   C57       1.0  0.29040  0.39674  0.92225  1.0000
  H   H62       1.0  0.29638  0.41982  0.91874  1.0000
  H   H63       1.0  0.29125  0.18561  0.57511  1.0000
  H   H64       1.0  0.17906  0.40352  0.59370  1.0000
  C   C58       1.0  0.05222  0.44841  0.64048  1.0000
  C   C59       1.0  0.06269  0.45125  0.60638  1.0000
  C   C60       1.0  0.08124  0.42950  0.59153  1.0000
  C   C61       1.0  0.08961  0.40467  0.61076  1.0000
  C   C62       1.0  0.07872  0.40159  0.64464  1.0000
  C   C63       1.0  0.06003  0.42327  0.65943  1.0000
  S   S22       1.0  0.13458  0.13201  0.99197  1.0000
  H   H65       1.0  0.08960  0.43226  0.56555  1.0000
  H   H66       1.0  0.08515  0.38250  0.65976  1.0000
  H   H67       1.0  0.05219  0.42080  0.68568  1.0000
  C   C64       1.0  0.13064  0.45566  0.65505  1.0000
  C   C65       1.0  0.24594  0.22732  0.96053  1.0000
  H   H68       1.0  0.28743  0.25145  0.95519  1.0000
  H   H69       1.0  0.25170  0.21105  0.94110  1.0000
  H   H70       1.0  0.24114  0.29036  0.50378  1.0000
  H   H71       1.0  0.31273  0.17401  0.97841  1.0000
  H   H72       1.0  0.28075  0.14951  0.62205  1.0000
  C   C66       1.0  0.02656  0.07673  0.82920  1.0000
  C   C67       1.0  0.04379  0.05368  0.84266  1.0000
  C   C68       1.0  0.06368  0.05919  0.87016  1.0000
  C   C69       1.0  0.06637  0.08767  0.88473  1.0000
  C   C70       1.0  0.04878  0.11058  0.87165  1.0000
  C   C71       1.0  0.02911  0.10514  0.84395  1.0000
  H   H73       1.0  0.04213  0.03174  0.83152  1.0000
  H   H74       1.0  0.07717  0.04128  0.88007  1.0000
  H   H75       1.0  0.05061  0.13260  0.88254  1.0000
  H   H76       1.0  0.07252  0.10017  0.78234  1.0000
  N   N7        1.0  0.06201  0.07699  0.73582  1.0000
  C   C72       1.0  0.07609  0.08039  0.76691  1.0000
  C   C73       1.0  0.06650  0.05203  0.71643  1.0000
  C   C74       1.0  0.09424  0.05791  0.78004  1.0000
  C   C75       1.0  0.08456  0.02912  0.72872  1.0000
  C   C76       1.0  0.09827  0.03202  0.76087  1.0000
  C   C77       1.0  0.15602  0.47407  0.59348  1.0000
  N   N8        1.0  0.16230  0.44651  0.60615  1.0000
  C   C78       1.0  0.26126  0.21705  0.49718  1.0000
  C   C79       1.0  0.12337  0.48343  0.64181  1.0000
  H   H77       1.0  0.05573  0.04945  0.69150  1.0000
  S   S23       1.0  0.11771  0.33928  0.50332  1.0000
  S   S24       1.0  0.05346  0.23775  0.96875  1.0000
  H   H78       1.0  0.17872  0.46298  0.50281  1.0000
  H   H79       1.0  0.11180  0.01414  0.77099  1.0000
  C   C80       1.0  0.30321  0.15200  0.61220  1.0000
  H   H80       1.0  0.09462  0.07821  0.98981  1.0000
  C   C81       1.0  0.26633  0.25025  0.96851  1.0000
  H   H81       1.0  0.01506  0.33966  0.86996  1.0000
  C   C82       1.0  0.26794  0.35785  0.95595  1.0000
  C   C83       1.0  0.27653  0.33735  0.93071  1.0000
  H   H82       1.0  0.28490  0.32548  0.85375  1.0000
  H   H83       1.0  0.05683  0.47067  0.59154  1.0000
  C   C84       1.0  0.99959  0.26560  0.97207  1.0000
  C   C85       1.0  0.18308  0.42724  0.58749  1.0000
  Fe  Fe11      1.0  0.14660  0.17957  0.97996  1.0000
  C   C86       1.0  0.01492  0.23883  0.97686  1.0000
  S   S25       1.0  0.02208  0.48380  0.76584  1.0000
  C   C87       1.0  0.25360  0.47181  0.49569  1.0000
  H   H84       1.0  0.02475  0.09169  0.70635  1.0000
  H   H85       1.0  0.25618  0.35046  0.97888  1.0000
  C   C88       1.0  0.15027  0.43737  0.63679  1.0000
  H   H86       1.0  0.27107  0.31416  0.93445  1.0000
  H   H87       1.0  0.01634  0.05410  0.97411  1.0000
  N   N9        1.0  0.29197  0.34636  0.90214  1.0000
  C   C89       1.0  0.21854  0.22468  0.97805  1.0000
  C   C90       1.0  0.04305  0.10080  0.72253  1.0000
  Fe  Fe12      1.0  0.00656  0.48163  0.71039  1.0000
  C   C91       1.0  0.30077  0.32478  0.87571  1.0000
  C   C92       1.0  0.20020  0.47373  0.50332  1.0000
  H   H88       1.0  0.32189  0.11803  0.64488  1.0000
  C   C93       1.0  0.99973  0.21428  0.98997  1.0000
  H   H89       1.0  0.28543  0.25745  0.50718  1.0000
  H   H90       1.0  0.18025  0.42949  0.55910  1.0000
  C   C94       1.0  0.30907  0.17228  0.58593  1.0000
  S   S26       1.0  0.00322  0.07189  0.79256  1.0000
  H   H91       1.0  0.20638  0.43302  0.59431  1.0000
  H   H92       1.0  0.01591  0.12314  0.83373  1.0000
  H   H93       1.0  0.31033  0.38290  0.87450  1.0000
  H   H94       1.0  0.30141  0.30190  0.88624  1.0000
  H   H95       1.0  0.05113  0.04851  0.95175  1.0000
  C   C95       1.0  0.04011  0.06076  0.97317  1.0000
  H   H96       1.0  0.19207  0.00384  0.56784  1.0000
  S   S27       1.0  0.29398  0.19446  0.50050  1.0000
  C   C96       1.0  0.26379  0.24794  0.50192  1.0000
  C   C97       1.0  0.23864  0.26675  0.49999  1.0000
  H   H97       1.0  0.32355  0.32979  0.86601  1.0000
  S   S28       1.0  0.04874  0.99316  0.65686  1.0000
  Fe  Fe13      1.0  0.01300  0.99240  0.69895  1.0000
  C   C98       1.0  0.25966  0.27095  0.99435  1.0000
  H   H98       1.0  0.01133  0.19357  0.99365  1.0000
  H   H99       1.0  0.20428  0.62708  0.05608  1.0000
  H   H100      1.0  0.00621  0.69507  0.00423  1.0000
  C   C99       1.0  0.05918  0.56261  0.03141  1.0000
  C   C100      1.0  0.20542  0.97407  0.48207  1.0000
  C   C101      1.0  0.00897  0.54760  0.04489  1.0000
  S   S29       1.0  0.13820  0.91512  0.48224  1.0000
  Fe  Fe14      1.0  0.09537  0.64178  0.05149  1.0000
  S   S30       1.0  0.09723  0.61495  0.10145  1.0000
  H   H101      1.0  0.19028  0.74067  0.07475  1.0000
  S   S31       1.0  0.11405  0.68789  0.04502  1.0000
  H   H102      1.0  0.99963  0.93599  0.10141  1.0000
  Fe  Fe15      1.0  0.12573  0.87928  0.44414  1.0000
  H   H103      1.0  0.09689  0.81803  0.39260  1.0000
  S   S32       1.0  0.09078  0.88181  0.40110  1.0000
  H   H104      1.0  0.31081  0.50585  0.38173  1.0000
  H   H105      1.0  0.01548  0.78974  0.00371  1.0000
  H   H106      1.0  0.05609  0.52426  0.10649  1.0000
  S   S33       1.0  0.05361  0.73906  0.00626  1.0000
  S   S34       1.0  0.17227  0.86140  0.43751  1.0000
  H   H107      1.0  0.09224  0.54991  0.06880  1.0000
  C   C102      1.0  0.21920  0.76466  0.00416  1.0000
  S   S35       1.0  0.06493  0.98185  0.28831  1.0000
  S   S36       1.0  0.27417  0.60832  0.45129  1.0000
  H   H108      1.0  0.16094  0.70880  0.12448  1.0000
  C   C103      1.0  0.23095  0.95656  0.47968  1.0000
  C   C104      1.0  0.20716  0.72590  0.08670  1.0000
  Fe  Fe16      1.0  0.18404  0.89493  0.47851  1.0000
  H   H109      1.0  0.17989  0.83499  0.34178  1.0000
  S   S37       1.0  0.17173  0.78027  0.48385  1.0000
  C   C105      1.0  0.26115  0.52995  0.41839  1.0000
  S   S38       1.0  0.02127  0.97841  0.19572  1.0000
  C   C106      1.0  0.02903  0.56201  0.02293  1.0000
  C   C107      1.0  0.20747  0.67310  0.07080  1.0000
  N   N10       1.0  0.19518  0.69577  0.08945  1.0000
  H   H110      1.0  0.20230  0.79204  0.37270  1.0000
  C   C108      1.0  0.01456  0.74200  0.00425  1.0000
  N   N11       1.0  0.27226  0.50215  0.41295  1.0000
  H   H111      1.0  0.31697  0.51186  0.42710  1.0000
  C   C109      1.0  0.17108  0.69074  0.11021  1.0000
  H   H112      1.0  0.18366  0.96396  0.48040  1.0000
  C   C110      1.0  0.15868  0.66239  0.11269  1.0000
  C   C111      1.0  0.07259  0.95323  0.31856  1.0000
  C   C112      1.0  0.05530  0.92751  0.32035  1.0000
  C   C113      1.0  0.06175  0.90560  0.34517  1.0000
  C   C114      1.0  0.08523  0.90928  0.36886  1.0000
  C   C115      1.0  0.10266  0.93491  0.36698  1.0000
  C   C116      1.0  0.09642  0.95668  0.34186  1.0000
  H   H113      1.0  0.03701  0.92443  0.30252  1.0000
  H   H114      1.0  0.04812  0.88587  0.34632  1.0000
  H   H115      1.0  0.12082  0.93807  0.38498  1.0000
  H   H116      1.0  0.12536  0.75041  0.43694  1.0000
  C   C117      1.0  0.06645  0.59882  0.12332  1.0000
  C   C118      1.0  0.07181  0.57903  0.15067  1.0000
  C   C119      1.0  0.04809  0.56494  0.16800  1.0000
  C   C120      1.0  0.01867  0.57085  0.15844  1.0000
  C   C121      1.0  0.01332  0.59080  0.13125  1.0000
  C   C122      1.0  0.03703  0.60458  0.11363  1.0000
  H   H117      1.0  0.09447  0.57441  0.15842  1.0000
  H   H118      1.0  0.05256  0.54968  0.18887  1.0000
  H   H119      1.0  0.11047  0.78468  0.45245  1.0000
  H   H120      1.0  0.03253  0.61978  0.09271  1.0000
  H   H121      1.0  0.06100  0.51394  0.37059  1.0000
  H   H122      1.0  0.11001  0.97644  0.34063  1.0000
  H   H123      1.0  0.17151  0.76248  0.41254  1.0000
  S   S39       1.0  0.05537  0.65001  0.01826  1.0000
  H   H124      1.0  0.22221  0.55632  0.42928  1.0000
  H   H125      1.0  0.22744  0.72677  0.07022  1.0000
  Fe  Fe17      1.0  0.29482  0.64459  0.48308  1.0000
  C   C123      1.0  0.20407  0.75709  0.48263  1.0000
  C   C124      1.0  0.23067  0.53435  0.42345  1.0000
  C   C125      1.0  0.30437  0.49830  0.40801  1.0000
  H   H126      1.0  0.22613  0.67710  0.05366  1.0000
  C   C126      1.0  0.03226  0.97825  0.38684  1.0000
  C   C127      1.0  0.04834  0.53439  0.08276  1.0000
  C   C128      1.0  0.99650  0.71687  0.00203  1.0000
  H   H127      1.0  0.16083  0.61738  0.09428  1.0000
  C   C129      1.0  0.17081  0.63927  0.09335  1.0000
  H   H128      1.0  0.17628  0.74253  0.00400  1.0000
  C   C130      1.0  0.11411  0.77119  0.42878  1.0000
  Fe  Fe18      1.0  0.16322  0.83069  0.48206  1.0000
  H   H129      1.0  0.13919  0.65849  0.12865  1.0000
  H   H130      1.0  0.21317  0.73457  0.11263  1.0000
  C   C131      1.0  0.01491  0.92997  0.40430  1.0000
  Fe  Fe19      1.0  0.13886  0.67086  0.99876  1.0000
  H   H131      1.0  0.02994  0.52419  0.34505  1.0000
  N   N12       1.0  0.13217  0.78802  0.40413  1.0000
  C   C132      1.0  0.11980  0.81174  0.38757  1.0000
  C   C133      1.0  0.16139  0.78080  0.39874  1.0000
  C   C134      1.0  0.13664  0.82869  0.36453  1.0000
  C   C135      1.0  0.17897  0.79746  0.37616  1.0000
  C   C136      1.0  0.16643  0.82152  0.35890  1.0000
  H   H132      1.0  0.02137  0.57280  0.99952  1.0000
  S   S40       1.0  0.22864  0.91789  0.47533  1.0000
  C   C137      1.0  0.19529  0.64462  0.07217  1.0000
  H   H133      1.0  0.12677  0.84781  0.35194  1.0000
  N   N13       1.0  0.01874  0.53412  0.07441  1.0000
  C   C138      1.0  0.03656  0.51775  0.37168  1.0000
  H   H134      1.0  0.27893  0.95641  0.48012  1.0000
  S   S41       1.0  0.12309  0.62391  0.00796  1.0000
  H   H135      1.0  0.05505  0.95019  0.42353  1.0000
  H   H136      1.0  0.20983  0.78608  0.01039  1.0000
  Fe  Fe20      1.0  0.02383  0.98441  0.25353  1.0000
  C   C139      1.0  0.03576  0.95276  0.40692  1.0000
  H   H137      1.0  0.01801  0.90972  0.41893  1.0000
  C   C140      1.0  0.21145  0.51009  0.42228  1.0000
  H   H138      1.0  0.00742  0.51157  0.12143  1.0000
  S   S42       1.0  0.27320  0.79409  0.00505  1.0000
  H   H139      1.0  0.09226  0.76526  0.41730  1.0000
  C   C141      1.0  0.06896  0.54873  0.06147  1.0000
  C   C142      1.0  0.25024  0.76193  0.99986  1.0000
  S   S43       1.0  0.11545  0.84586  0.48563  1.0000
  H   H140      1.0  0.27595  0.54886  0.41944  1.0000
  C   C143      1.0  0.25910  0.96992  0.48186  1.0000
  Fe  Fe21      1.0  0.32346  0.80414  0.99967  1.0000
  H   H141      1.0  0.07488  0.57402  0.01481  1.0000
  H   H142      1.0  0.23600  0.79194  0.47480  1.0000
  C   C144      1.0  0.00161  0.77020  0.00178  1.0000
  N   N14       1.0  0.00859  0.98097  0.36486  1.0000
  H   H143      1.0  0.27954  0.75797  0.47219  1.0000
  Fe  Fe22      1.0  0.32044  0.58979  0.44402  1.0000
  C   C145      1.0  0.99716  0.51920  0.09684  1.0000
  S   S44       1.0  0.31846  0.56061  0.49101  1.0000
  H   H144      1.0  0.03153  0.53625  0.38964  1.0000
  H   H145      1.0  0.18789  0.51308  0.42719  1.0000
  H   H146      1.0  0.17855  0.71713  0.49004  1.0000
  C   C146      1.0  0.20058  0.72619  0.48613  1.0000
  Fe  Fe23      1.0  0.07613  0.69437  0.00771  1.0000
  H   H147      1.0  0.22210  0.68319  0.48758  1.0000
  C   C147      1.0  0.25750  0.74892  0.47617  1.0000
  C   C148      1.0  0.22530  0.70681  0.48478  1.0000
  C   C149      1.0  0.23279  0.76832  0.47762  1.0000
  C   C150      1.0  0.20004  0.73994  0.00057  1.0000
  C   C151      1.0  0.25402  0.71803  0.47968  1.0000
  S   S45       1.0  0.28632  0.69481  0.47794  1.0000
  S   S46       1.0  0.99459  0.52246  0.27749  1.0000
  C   C152      1.0  0.24561  0.91673  0.56187  1.0000
  S   S47       1.0  0.10170  0.67942  0.96073  1.0000
  H   H148      1.0  0.08087  0.98993  0.59280  1.0000
  H   H149      1.0  0.03500  0.54516  0.91302  1.0000
  H   H150      1.0  0.13085  0.51445  0.60048  1.0000
  Fe  Fe24      1.0  0.08371  0.63411  0.97399  1.0000
  S   S48       1.0  0.06213  0.59575  0.94454  1.0000
  H   H151      1.0  0.29247  0.91919  0.94557  1.0000
  C   C153      1.0  0.16908  0.93541  0.59284  1.0000
  C   C154      1.0  0.26183  0.73401  0.99173  1.0000
  C   C155      1.0  0.19267  0.98020  0.57290  1.0000
  H   H152      1.0  0.25203  0.68784  0.98198  1.0000
  H   H153      1.0  0.04325  0.65995  0.93206  1.0000
  C   C156      1.0  0.26935  0.80571  0.91805  1.0000
  S   S49       1.0  0.17766  0.86324  0.52264  1.0000
  C   C157      1.0  0.32669  0.69190  0.55433  1.0000
  Fe  Fe25      1.0  0.13066  0.88066  0.52332  1.0000
  S   S50       1.0  0.10614  0.88434  0.57486  1.0000
  S   S51       1.0  0.29155  0.61907  0.53295  1.0000
  H   H154      1.0  0.02354  0.76213  0.93230  1.0000
  C   C158      1.0  0.21822  0.96379  0.56511  1.0000
  C   C159      1.0  0.19479  0.91963  0.58423  1.0000
  C   C160      1.0  0.16793  0.96583  0.58682  1.0000
  H   H155      1.0  0.31935  0.89313  0.89835  1.0000
  H   H156      1.0  0.15010  0.92398  0.60388  1.0000
  C   C161      1.0  0.99605  0.66040  0.92319  1.0000
  H   H157      1.0  0.19528  0.89591  0.58866  1.0000
  H   H158      1.0  0.04272  0.62181  0.82230  1.0000
  N   N15       1.0  0.21880  0.93380  0.57017  1.0000
  C   C162      1.0  0.25561  0.50232  0.50221  1.0000
  C   C163      1.0  0.06233  0.96239  0.63282  1.0000
  C   C164      1.0  0.07828  0.96750  0.60209  1.0000
  C   C165      1.0  0.09080  0.94381  0.58320  1.0000
  C   C166      1.0  0.08812  0.91475  0.59534  1.0000
  C   C167      1.0  0.07209  0.90968  0.62597  1.0000
  C   C168      1.0  0.05902  0.93328  0.64445  1.0000
  H   H159      1.0  0.25810  0.91151  0.58583  1.0000
  H   H160      1.0  0.10289  0.94804  0.55957  1.0000
  H   H161      1.0  0.06993  0.88731  0.63565  1.0000
  H   H162      1.0  0.04695  0.92897  0.66808  1.0000
  C   C169      1.0  0.26583  0.88107  0.95873  1.0000
  H   H163      1.0  0.26816  0.80133  0.88986  1.0000
  H   H164      1.0  0.01643  0.53455  0.85387  1.0000
  S   S52       1.0  0.02141  0.98884  0.75631  1.0000
  H   H165      1.0  0.24811  0.79801  0.92979  1.0000
  H   H166      1.0  0.14787  0.97817  0.59292  1.0000
  H   H167      1.0  0.24380  0.83946  0.96670  1.0000
  C   C170      1.0  0.02817  0.57743  0.83393  1.0000
  C   C171      1.0  0.02614  0.55592  0.85975  1.0000
  C   C172      1.0  0.03670  0.56203  0.89332  1.0000
  C   C173      1.0  0.04960  0.58958  0.90151  1.0000
  C   C174      1.0  0.05173  0.61110  0.87566  1.0000
  C   C175      1.0  0.04090  0.60508  0.84214  1.0000
  C   C176      1.0  0.30213  0.88176  0.91291  1.0000
  H   H168      1.0  0.23734  0.97516  0.55431  1.0000
  H   H169      1.0  0.06203  0.63220  0.88126  1.0000
  H   H170      1.0  0.28858  0.72001  0.54637  1.0000
  N   N16       1.0  0.27470  0.83723  0.92490  1.0000
  H   H171      1.0  0.28760  0.79233  0.92950  1.0000
  C   C177      1.0  0.25988  0.85134  0.95106  1.0000
  H   H172      1.0  0.23954  0.89582  0.54832  1.0000
  C   C178      1.0  0.02390  0.67360  0.92700  1.0000
  C   C179      1.0  0.29576  0.85198  0.90609  1.0000
  S   S53       1.0  0.01459  0.57106  0.79139  1.0000
  C   C180      1.0  0.02654  0.70441  0.92460  1.0000
  H   H173      1.0  0.04822  0.71457  0.92824  1.0000
  H   H174      1.0  0.25451  0.89192  0.98000  1.0000
  H   H175      1.0  0.30826  0.84059  0.88611  1.0000
  N   N17       1.0  0.32328  0.65777  0.60172  1.0000
  C   C181      1.0  0.28711  0.89633  0.93947  1.0000
  H   H176      1.0  0.26049  0.92901  0.54396  1.0000
  H   H177      1.0  0.27702  0.51312  0.50170  1.0000
  H   H178      1.0  0.28558  0.73138  0.98827  1.0000
  S   S54       1.0  0.23148  0.55744  0.51454  1.0000
  C   C182      1.0  0.00533  0.75378  0.91539  1.0000
  C   C183      1.0  0.20226  0.50429  0.51011  1.0000
  C   C184      1.0  0.24268  0.70928  0.98820  1.0000
  S   S55       1.0  0.18888  0.67949  0.98952  1.0000
  C   C185      1.0  0.28244  0.69052  0.58950  1.0000
  Fe  Fe26      1.0  0.27385  0.58167  0.50021  1.0000
  C   C186      1.0  0.22993  0.51874  0.50900  1.0000
  H   H179      1.0  0.26007  0.69825  0.59496  1.0000
  Fe  Fe27      1.0  0.99737  0.52694  0.77019  1.0000
  H   H180      1.0  0.18232  0.51699  0.51514  1.0000
  H   H181      1.0  0.01037  0.75960  0.88819  1.0000
  H   H182      1.0  0.28241  0.65792  0.62976  1.0000
  C   C187      1.0  0.29843  0.70275  0.56218  1.0000
  C   C188      1.0  0.29522  0.66778  0.60902  1.0000
  N   N18       1.0  0.00199  0.72162  0.91879  1.0000
  H   H183      1.0  0.10731  0.49731  0.65517  1.0000
  C   C189      1.0  0.21165  0.71197  0.99268  1.0000
  C   C190      1.0  0.13629  0.49285  0.61095  1.0000
  S   S56       1.0  0.55014  0.22793  0.01161  1.0000
  S   S57       1.0  0.47580  0.46281  0.27320  1.0000
  C   C191      1.0  0.57404  0.37726  0.26536  1.0000
  Fe  Fe28      1.0  0.45816  0.46096  0.21867  1.0000
  S   S58       1.0  0.42617  0.42465  0.20125  1.0000
  H   H184      1.0  0.58134  0.37629  0.29280  1.0000
  Fe  Fe29      1.0  0.39108  0.34359  0.01528  1.0000
  S   S59       1.0  0.42087  0.37427  0.04741  1.0000
  S   S60       1.0  0.37290  0.29767  0.02508  1.0000
  H   H185      1.0  0.51325  0.47821  0.42609  1.0000
  H   H186      1.0  0.55253  0.12538  0.20183  1.0000
  S   S61       1.0  0.35632  0.09737  0.39117  1.0000
  C   C192      1.0  0.57275  0.49113  0.37581  1.0000
  S   S62       1.0  0.50258  0.46939  0.19438  1.0000
  C   C193      1.0  0.57158  0.16855  0.13345  1.0000
  C   C194      1.0  0.40717  0.02182  0.33669  1.0000
  C   C195      1.0  0.40813  0.05075  0.32392  1.0000
  C   C196      1.0  0.39308  0.07373  0.34144  1.0000
  C   C197      1.0  0.37747  0.06824  0.37227  1.0000
  C   C198      1.0  0.37714  0.03943  0.38552  1.0000
  C   C199      1.0  0.39164  0.01632  0.36760  1.0000
  H   H187      1.0  0.41981  0.05532  0.30009  1.0000
  H   H188      1.0  0.39335  0.09589  0.33086  1.0000
  H   H189      1.0  0.36519  0.03483  0.40916  1.0000
  H   H190      1.0  0.47837  0.36751  0.30731  1.0000
  C   C200      1.0  0.42589  0.40888  0.15922  1.0000
  C   C201      1.0  0.44920  0.41357  0.13600  1.0000
  C   C202      1.0  0.44779  0.40152  0.10247  1.0000
  C   C203      1.0  0.42286  0.38514  0.09145  1.0000
  C   C204      1.0  0.39972  0.38003  0.11484  1.0000
  C   C205      1.0  0.40136  0.39170  0.14865  1.0000
  H   H191      1.0  0.46823  0.42668  0.14369  1.0000
  H   H192      1.0  0.46583  0.40555  0.08459  1.0000
  H   H193      1.0  0.38040  0.36750  0.10676  1.0000
  H   H194      1.0  0.38326  0.38781  0.16651  1.0000
  Fe  Fe30      1.0  0.49380  0.01892  0.21047  1.0000
  H   H195      1.0  0.48293  0.00064  0.34773  1.0000
  S   S63       1.0  0.49394  0.05606  0.17048  1.0000
  H   H196      1.0  0.50224  0.13681  0.17903  1.0000
  H   H197      1.0  0.56080  0.20517  0.08324  1.0000
  S   S64       1.0  0.49807  0.02323  0.26845  1.0000
  Fe  Fe31      1.0  0.60410  0.13570  0.04285  1.0000
  S   S65       1.0  0.60655  0.11004  0.09327  1.0000
  S   S66       1.0  0.61749  0.18355  0.03788  1.0000
  Fe  Fe32      1.0  0.62367  0.38335  0.44485  1.0000
  H   H198      1.0  0.49704  0.16841  0.12707  1.0000
  S   S67       1.0  0.58217  0.39217  0.41210  1.0000
  Fe  Fe33      1.0  0.33404  0.09851  0.44432  1.0000
  H   H199      1.0  0.52205  0.20901  0.09233  1.0000
  C   C206      1.0  0.55005  0.13997  0.17977  1.0000
  C   C207      1.0  0.56867  0.44067  0.30888  1.0000
  C   C208      1.0  0.54441  0.43222  0.32918  1.0000
  C   C209      1.0  0.54908  0.41728  0.36058  1.0000
  C   C210      1.0  0.57800  0.41107  0.37237  1.0000
  C   C211      1.0  0.60232  0.42004  0.35244  1.0000
  C   C212      1.0  0.59763  0.43460  0.32071  1.0000
  H   H200      1.0  0.52203  0.43683  0.32050  1.0000
  H   H201      1.0  0.53013  0.41056  0.37593  1.0000
  H   H202      1.0  0.62469  0.41533  0.36122  1.0000
  H   H203      1.0  0.59128  0.17592  0.11970  1.0000
  C   C213      1.0  0.57514  0.09348  0.11300  1.0000
  C   C214      1.0  0.57917  0.07574  0.14244  1.0000
  C   C215      1.0  0.55459  0.06333  0.15979  1.0000
  C   C216      1.0  0.52571  0.06901  0.14812  1.0000
  C   C217      1.0  0.52171  0.08633  0.11835  1.0000
  C   C218      1.0  0.54629  0.09836  0.10072  1.0000
  H   H204      1.0  0.60143  0.07179  0.15210  1.0000
  H   H205      1.0  0.55796  0.05000  0.18267  1.0000
  H   H206      1.0  0.49942  0.09073  0.10910  1.0000
  H   H207      1.0  0.54285  0.11187  0.07808  1.0000
  S   S68       1.0  0.35086  0.13031  0.48452  1.0000
  H   H208      1.0  0.57844  0.01911  0.09958  1.0000
  S   S69       1.0  0.63844  0.41697  0.48447  1.0000
  C   C219      1.0  0.52829  0.03628  0.03841  1.0000
  H   H209      1.0  0.59657  0.48743  0.37488  1.0000
  C   C220      1.0  0.40218  0.45761  0.08776  1.0000
  C   C221      1.0  0.49883  0.39437  0.22897  1.0000
  H   H210      1.0  0.45560  0.28058  0.00218  1.0000
  H   H211      1.0  0.50479  0.03402  0.03258  1.0000
  C   C222      1.0  0.49691  0.25661  0.00730  1.0000
  C   C223      1.0  0.53781  0.01693  0.36621  1.0000
  H   H212      1.0  0.46423  0.47085  0.04005  1.0000
  H   H213      1.0  0.58101  0.35660  0.25208  1.0000
  S   S70       1.0  0.56248  0.14004  0.01158  1.0000
  H   H214      1.0  0.48929  0.40317  0.20537  1.0000
  H   H215      1.0  0.53296  0.03617  0.38315  1.0000
  C   C224      1.0  0.42182  0.45637  0.05976  1.0000
  H   H216      1.0  0.36156  0.22811  0.01992  1.0000
  Fe  Fe34      1.0  0.51923  0.47529  0.24903  1.0000
  H   H217      1.0  0.56219  0.01260  0.36599  1.0000
  C   C225      1.0  0.57514  0.15115  0.16303  1.0000
  H   H218      1.0  0.58578  0.39644  0.25355  1.0000
  C   C226      1.0  0.45499  0.48931  0.09028  1.0000
  C   C227      1.0  0.51903  0.16409  0.13742  1.0000
  H   H219      1.0  0.59726  0.14513  0.17179  1.0000
  H   H220      1.0  0.45625  0.38757  0.25320  1.0000
  H   H221      1.0  0.59156  0.06520  0.00402  1.0000
  H   H222      1.0  0.54405  0.39971  0.21216  1.0000
  C   C228      1.0  0.58846  0.04218  0.05263  1.0000
  H   H223      1.0  0.41690  0.44225  0.03772  1.0000
  S   S71       1.0  0.56374  0.45741  0.26793  1.0000
  C   C229      1.0  0.57703  0.05378  0.02203  1.0000
  C   C230      1.0  0.49265  0.37423  0.28614  1.0000
  N   N19       1.0  0.54170  0.38095  0.26262  1.0000
  S   S72       1.0  0.32844  0.06083  0.48161  1.0000
  C   C231      1.0  0.52971  0.39214  0.23289  1.0000
  C   C232      1.0  0.44849  0.47218  0.06121  1.0000
  H   H224      1.0  0.53311  0.36307  0.31264  1.0000
  H   H225      1.0  0.61656  0.44100  0.30512  1.0000
  C   C233      1.0  0.52179  0.14642  0.16693  1.0000
  S   S73       1.0  0.61897  0.34654  0.48373  1.0000
  C   C234      1.0  0.57112  0.46710  0.43270  1.0000
  C   C235      1.0  0.54027  0.19254  0.08964  1.0000
  H   H226      1.0  0.61183  0.04509  0.05887  1.0000
  C   C236      1.0  0.52361  0.37181  0.28898  1.0000
  H   H227      1.0  0.53509  0.17774  0.06751  1.0000
  H   H228      1.0  0.50836  0.27491  0.01961  1.0000
  N   N20       1.0  0.54376  0.17510  0.12128  1.0000
  H   H229      1.0  0.53178  0.02247  0.33913  1.0000
  C   C237      1.0  0.48024  0.38547  0.25584  1.0000
  Fe  Fe35      1.0  0.57774  0.18677  0.00264  1.0000
  N   N21       1.0  0.55635  0.48135  0.40332  1.0000
  N   N22       1.0  0.40902  0.47400  0.11646  1.0000
  C   C238      1.0  0.52622  0.48576  0.40421  1.0000
  C   C239      1.0  0.54680  0.05073  0.01470  1.0000
  S   S74       1.0  0.63255  0.12215  0.99793  1.0000
  H   H230      1.0  0.55774  0.44804  0.44225  1.0000
  H   H231      1.0  0.37611  0.45379  0.14843  1.0000
  H   H232      1.0  0.39072  0.99403  0.37773  1.0000
  H   H233      1.0  0.39988  0.47908  0.17025  1.0000
  C   C240      1.0  0.56938  0.02769  0.07564  1.0000
  N   N23       1.0  0.53962  0.02528  0.06860  1.0000
  H   H234      1.0  0.53004  0.00770  0.11889  1.0000
  H   H235      1.0  0.38195  0.44450  0.08685  1.0000
  C   C241      1.0  0.51977  0.01004  0.09287  1.0000
  H   H236      1.0  0.59315  0.45779  0.42534  1.0000
  H   H237      1.0  0.57434  0.48326  0.45403  1.0000
  Fe  Fe36      1.0  0.45854  0.99285  0.27139  1.0000
  C   C242      1.0  0.38804  0.47523  0.14541  1.0000
  C   C243      1.0  0.46702  0.25988  0.99744  1.0000
  C   C244      1.0  0.34662  0.21929  0.99942  1.0000
  H   H238      1.0  0.49893  0.02291  0.09672  1.0000
  C   C245      1.0  0.43478  0.49013  0.11773  1.0000
  C   C246      1.0  0.51214  0.23007  0.00087  1.0000
  H   H239      1.0  0.34968  0.01697  0.65069  1.0000
  H   H240      1.0  0.59532  0.06744  0.82685  1.0000
  S   S75       1.0  0.35411  0.29647  0.94200  1.0000
  C   C247      1.0  0.46524  0.28294  0.90961  1.0000
  Fe  Fe37      1.0  0.37387  0.34235  0.93867  1.0000
  S   S76       1.0  0.37094  0.36985  0.88939  1.0000
  H   H241      1.0  0.56331  0.25445  0.94373  1.0000
  H   H242      1.0  0.45176  0.24061  0.88920  1.0000
  H   H243      1.0  0.34208  0.18970  0.55145  1.0000
  S   S77       1.0  0.46941  0.45859  0.70493  1.0000
  S   S78       1.0  0.54087  0.48376  0.64986  1.0000
  Fe  Fe38      1.0  0.47757  0.46380  0.76225  1.0000
  S   S79       1.0  0.47812  0.42817  0.80432  1.0000
  H   H244      1.0  0.57309  0.07287  0.70270  1.0000
  H   H245      1.0  0.57380  0.48139  0.58659  1.0000
  S   S80       1.0  0.38217  0.08657  0.55934  1.0000
  C   C248      1.0  0.39611  0.02814  0.65586  1.0000
  C   C249      1.0  0.36794  0.02955  0.63994  1.0000
  C   C250      1.0  0.36325  0.04695  0.61013  1.0000
  C   C251      1.0  0.38674  0.06325  0.59599  1.0000
  C   C252      1.0  0.41480  0.06205  0.61206  1.0000
  C   C253      1.0  0.41952  0.04453  0.64168  1.0000
  S   S81       1.0  0.34994  0.35803  0.98644  1.0000
  H   H246      1.0  0.35864  0.20057  0.98700  1.0000
  H   H247      1.0  0.43314  0.07458  0.60141  1.0000
  H   H248      1.0  0.44128  0.04371  0.65358  1.0000
  C   C254      1.0  0.40111  0.38668  0.86689  1.0000
  C   C255      1.0  0.39497  0.40596  0.83924  1.0000
  C   C256      1.0  0.41819  0.41922  0.82015  1.0000
  C   C257      1.0  0.44789  0.41304  0.82823  1.0000
  C   C258      1.0  0.45402  0.39388  0.85600  1.0000
  C   C259      1.0  0.43082  0.38089  0.87534  1.0000
  H   H249      1.0  0.37212  0.41057  0.83236  1.0000
  H   H250      1.0  0.41309  0.43380  0.79882  1.0000
  H   H251      1.0  0.47690  0.38891  0.86242  1.0000
  H   H252      1.0  0.43594  0.36613  0.89646  1.0000
  H   H253      1.0  0.53418  0.29834  0.94049  1.0000
  H   H254      1.0  0.61176  0.01494  0.82927  1.0000
  Fe  Fe39      1.0  0.39416  0.28568  0.97451  1.0000
  H   H255      1.0  0.44339  0.29285  0.90659  1.0000
  S   S82       1.0  0.60329  0.17633  0.95399  1.0000
  H   H256      1.0  0.57051  0.08629  0.77435  1.0000
  C   C260      1.0  0.59738  0.00525  0.77726  1.0000
  C   C261      1.0  0.35488  0.13755  0.61147  1.0000
  Fe  Fe40      1.0  0.59126  0.12872  0.96579  1.0000
  S   S83       1.0  0.57793  0.08760  0.93486  1.0000
  C   C262      1.0  0.48851  0.29917  0.92419  1.0000
  Fe  Fe41      1.0  0.49240  0.02528  0.76996  1.0000
  H   H257      1.0  0.48488  0.32188  0.93240  1.0000
  S   S84       1.0  0.50719  0.06951  0.79330  1.0000
  C   C263      1.0  0.59266  0.05310  0.80449  1.0000
  H   H258      1.0  0.50881  0.18596  0.97992  1.0000
  S   S85       1.0  0.48640  0.02377  0.71226  1.0000
  Fe  Fe42      1.0  0.63599  0.37955  0.52255  1.0000
  S   S86       1.0  0.61403  0.37979  0.57587  1.0000
  C   C264      1.0  0.56023  0.45409  0.62941  1.0000
  C   C265      1.0  0.57475  0.45950  0.59783  1.0000
  C   C266      1.0  0.59090  0.43697  0.58083  1.0000
  C   C267      1.0  0.59294  0.40872  0.59541  1.0000
  C   C268      1.0  0.57826  0.40324  0.62691  1.0000
  C   C269      1.0  0.56187  0.42572  0.64375  1.0000
  H   H259      1.0  0.47926  0.48252  0.63074  1.0000
  H   H260      1.0  0.60219  0.44161  0.55678  1.0000
  H   H261      1.0  0.57973  0.38154  0.63852  1.0000
  H   H262      1.0  0.55094  0.42122  0.66806  1.0000
  S   S87       1.0  0.40082  0.00605  0.69354  1.0000
  H   H263      1.0  0.40683  0.14636  0.58490  1.0000
  Fe  Fe43      1.0  0.34291  0.09343  0.52262  1.0000
  C   C270      1.0  0.52510  0.07424  0.83385  1.0000
  C   C271      1.0  0.53306  0.05012  0.85448  1.0000
  C   C272      1.0  0.54901  0.05473  0.88540  1.0000
  C   C273      1.0  0.55695  0.08344  0.89625  1.0000
  C   C274      1.0  0.54877  0.10759  0.87578  1.0000
  C   C275      1.0  0.53303  0.10296  0.84468  1.0000
  H   H264      1.0  0.52720  0.02790  0.84642  1.0000
  H   H265      1.0  0.55525  0.03587  0.90100  1.0000
  H   H266      1.0  0.55486  0.12977  0.88369  1.0000
  H   H267      1.0  0.52707  0.12174  0.82882  1.0000
  C   C276      1.0  0.57869  0.06368  0.77468  1.0000
  C   C277      1.0  0.45218  0.23656  0.98105  1.0000
  S   S88       1.0  0.41554  0.33002  0.96676  1.0000
  H   H268      1.0  0.57400  0.29858  0.57577  1.0000
  H   H269      1.0  0.43180  0.45872  0.63797  1.0000
  H   H270      1.0  0.39001  0.15168  0.54359  1.0000
  H   H271      1.0  0.50144  0.21793  0.89712  1.0000
  C   C278      1.0  0.60294  0.27600  0.53988  1.0000
  H   H272      1.0  0.53764  0.06838  0.72439  1.0000
  H   H273      1.0  0.57984  0.00209  0.72585  1.0000
  C   C279      1.0  0.58355  0.01665  0.74775  1.0000
  H   H274      1.0  0.64331  0.01166  0.55585  1.0000
  H   H275      1.0  0.49603  0.47038  0.86716  1.0000
  H   H276      1.0  0.34317  0.23686  0.97981  1.0000
  C   C280      1.0  0.63236  0.27155  0.52971  1.0000
  C   C281      1.0  0.33793  0.17452  0.57263  1.0000
  H   H277      1.0  0.56252  0.24395  0.89862  1.0000
  C   C282      1.0  0.59679  0.29456  0.56782  1.0000
  Fe  Fe44      1.0  0.64267  0.17073  0.98998  1.0000
  C   C283      1.0  0.51629  0.28571  0.92874  1.0000
  S   S89       1.0  0.52116  0.48827  0.75449  1.0000
  H   H278      1.0  0.55208  0.03903  0.69827  1.0000
  N   N24       1.0  0.52067  0.25683  0.91916  1.0000
  S   S90       1.0  0.41542  0.24094  0.96608  1.0000
  H   H279      1.0  0.42994  0.44552  0.59385  1.0000
  Fe  Fe45      1.0  0.51062  0.48617  0.69744  1.0000
  N   N25       1.0  0.57387  0.04537  0.74705  1.0000
  C   C284      1.0  0.60175  0.02361  0.80587  1.0000
  C   C285      1.0  0.46999  0.25362  0.89964  1.0000
  H   H280      1.0  0.46668  0.48529  0.84161  1.0000
  C   C286      1.0  0.55003  0.24313  0.92333  1.0000
  H   H281      1.0  0.40084  0.46876  0.61210  1.0000
  S   S91       1.0  0.44859  0.00275  0.78004  1.0000
  C   C287      1.0  0.49806  0.24088  0.90446  1.0000
  H   H282      1.0  0.34152  0.04770  0.59817  1.0000
  C   C288      1.0  0.55854  0.05699  0.71652  1.0000
  H   H283      1.0  0.54781  0.21969  0.93173  1.0000
  H   H284      1.0  0.63746  0.25730  0.50788  1.0000
  N   N26       1.0  0.36041  0.15741  0.58557  1.0000
  Fe  Fe46      1.0  0.44482  0.99796  0.72197  1.0000
  H   H285      1.0  0.58497  0.26530  0.52590  1.0000
  C   C289      1.0  0.62026  0.30861  0.58502  1.0000
  H   H286      1.0  0.39783  0.18338  0.57097  1.0000
  C   C290      1.0  0.42521  0.46456  0.61114  1.0000
  C   C291      1.0  0.49721  0.20651  0.98500  1.0000
  H   H287      1.0  0.61530  0.32325  0.60653  1.0000
  H   H288      1.0  0.37250  0.12336  0.62116  1.0000
  C   C292      1.0  0.65525  0.28639  0.54711  1.0000
  Fe  Fe47      1.0  0.33353  0.31073  0.99202  1.0000
  H   H289      1.0  0.45584  0.19166  0.96244  1.0000
  C   C293      1.0  0.39028  0.15998  0.57064  1.0000
  C   C294      1.0  0.48954  0.48983  0.85130  1.0000
  N   N27       1.0  0.64896  0.30504  0.57402  1.0000
  C   C295      1.0  0.46724  0.20977  0.97515  1.0000
  H   H290      1.0  0.53791  0.05960  0.99074  1.0000
  N   N28       1.0  0.44123  0.49092  0.59922  1.0000
  H   H291      1.0  0.50480  0.49122  0.82883  1.0000
  H   H292      1.0  0.48776  0.50330  0.37734  1.0000
  S   S92       1.0  0.48614  0.95118  0.27102  1.0000
  H   H293      1.0  0.36374  0.87871  0.14932  1.0000
  Fe  Fe48      1.0  0.48238  0.95266  0.21298  1.0000
  S   S93       1.0  0.47639  0.91026  0.18156  1.0000
  C   C296      1.0  0.48962  0.94212  0.40193  1.0000
  Fe  Fe49      1.0  0.37263  0.84565  0.03003  1.0000
  S   S94       1.0  0.37657  0.88374  0.06883  1.0000
  S   S95       1.0  0.35740  0.79921  0.04218  1.0000
  S   S96       1.0  0.45155  0.99169  0.21367  1.0000
  H   H294      1.0  0.43928  0.56078  0.38769  1.0000
  S   S97       1.0  0.32965  0.56944  0.39097  1.0000
  H   H295      1.0  0.44259  0.89502  0.25476  1.0000
  H   H296      1.0  0.51713  0.52039  0.32707  1.0000
  H   H297      1.0  0.61485  0.97348  0.34744  1.0000
  C   C297      1.0  0.41925  0.54327  0.34132  1.0000
  C   C298      1.0  0.39233  0.53797  0.32422  1.0000
  C   C299      1.0  0.36516  0.54609  0.33985  1.0000
  C   C300      1.0  0.36454  0.55949  0.37271  1.0000
  C   C301      1.0  0.39143  0.56449  0.38996  1.0000
  C   C302      1.0  0.41860  0.55647  0.37429  1.0000
  H   H298      1.0  0.39247  0.52790  0.29885  1.0000
  Fe  Fe50      1.0  0.52530  0.98132  0.26529  1.0000
  H   H299      1.0  0.39132  0.57485  0.41517  1.0000
  S   S98       1.0  0.45427  0.53397  0.32288  1.0000
  C   C303      1.0  0.45049  0.90479  0.14753  1.0000
  C   C304      1.0  0.42827  0.92551  0.14016  1.0000
  C   C305      1.0  0.40644  0.91911  0.11507  1.0000
  C   C306      1.0  0.40676  0.89214  0.09677  1.0000
  C   C307      1.0  0.42948  0.87178  0.10342  1.0000
  C   C308      1.0  0.45110  0.87803  0.12886  1.0000
  H   H300      1.0  0.42752  0.94617  0.15432  1.0000
  H   H301      1.0  0.38894  0.93499  0.11010  1.0000
  H   H302      1.0  0.42995  0.85091  0.08966  1.0000
  H   H303      1.0  0.46823  0.86188  0.13435  1.0000
  Fe  Fe51      1.0  0.48975  0.51759  0.19674  1.0000
  Fe  Fe52      1.0  0.46562  0.51155  0.27158  1.0000
  S   S99       1.0  0.48976  0.54383  0.14614  1.0000
  C   C309      1.0  0.40862  0.92778  0.24566  1.0000
  H   H304      1.0  0.51416  0.98760  0.08301  1.0000
  S   S100      1.0  0.51030  0.52431  0.24927  1.0000
  Fe  Fe53      1.0  0.59428  0.64682  0.02698  1.0000
  S   S101      1.0  0.58791  0.63044  0.08227  1.0000
  S   S102      1.0  0.61099  0.69352  0.01993  1.0000
  Fe  Fe54      1.0  0.62794  0.88183  0.45923  1.0000
  H   H305      1.0  0.44265  0.66291  0.09382  1.0000
  S   S103      1.0  0.58889  0.88844  0.42203  1.0000
  C   C310      1.0  0.37491  0.86723  0.17119  1.0000
  C   C311      1.0  0.49438  0.71282  0.06709  1.0000
  C   C312      1.0  0.42259  0.90058  0.24044  1.0000
  C   C313      1.0  0.57431  0.95225  0.33073  1.0000
  C   C314      1.0  0.55475  0.92874  0.33684  1.0000
  C   C315      1.0  0.56018  0.90890  0.36420  1.0000
  C   C316      1.0  0.58504  0.91240  0.38595  1.0000
  C   C317      1.0  0.60484  0.93569  0.37958  1.0000
  C   C318      1.0  0.59949  0.95546  0.35206  1.0000
  H   H306      1.0  0.53538  0.92588  0.32062  1.0000
  H   H307      1.0  0.54479  0.89091  0.36884  1.0000
  H   H308      1.0  0.62407  0.93863  0.39603  1.0000
  H   H309      1.0  0.49591  0.73373  0.05339  1.0000
  C   C319      1.0  0.56139  0.60476  0.09861  1.0000
  C   C320      1.0  0.56429  0.59472  0.13282  1.0000
  C   C321      1.0  0.54297  0.57559  0.14757  1.0000
  C   C322      1.0  0.51817  0.56665  0.12838  1.0000
  C   C323      1.0  0.51515  0.57683  0.09419  1.0000
  C   C324      1.0  0.53670  0.59563  0.07928  1.0000
  H   H310      1.0  0.58318  0.60182  0.14809  1.0000
  H   H311      1.0  0.54554  0.56812  0.17393  1.0000
  H   H312      1.0  0.49600  0.57016  0.07914  1.0000
  H   H313      1.0  0.53404  0.60335  0.05304  1.0000
  H   H314      1.0  0.42300  0.86033  0.21095  1.0000
  C   C325      1.0  0.41143  0.88106  0.21549  1.0000
  C   C326      1.0  0.53384  0.97243  0.40212  1.0000
  H   H315      1.0  0.34450  0.54221  0.32623  1.0000
  H   H316      1.0  0.55137  0.73243  0.08907  1.0000
  H   H317      1.0  0.53750  0.66217  0.10610  1.0000
  C   C327      1.0  0.38380  0.93522  0.22588  1.0000
  C   C328      1.0  0.46635  0.70011  0.07240  1.0000
  N   N29       1.0  0.38706  0.88851  0.19617  1.0000
  S   S104      1.0  0.41541  0.74348  0.00262  1.0000
  C   C329      1.0  0.51763  0.67282  0.09625  1.0000
  H   H318      1.0  0.35396  0.92112  0.18572  1.0000
  N   N30       1.0  0.51956  0.69891  0.07846  1.0000
  H   H319      1.0  0.44647  0.71105  0.06273  1.0000
  H   H320      1.0  0.55057  0.71957  0.04478  1.0000
  C   C330      1.0  0.47684  0.96134  0.37795  1.0000
  C   C331      1.0  0.46423  0.67312  0.08976  1.0000
  C   C332      1.0  0.51826  0.94773  0.41426  1.0000
  S   S105      1.0  0.34150  0.62805  0.47219  1.0000
  H   H321      1.0  0.37312  0.95655  0.22953  1.0000
  H   H322      1.0  0.52876  0.93256  0.43231  1.0000
  H   H323      1.0  0.41723  0.94324  0.26470  1.0000
  C   C333      1.0  0.37315  0.91513  0.20119  1.0000
  H   H324      1.0  0.47747  0.92281  0.41080  1.0000
  H   H325      1.0  0.39290  0.85357  0.15956  1.0000
  H   H326      1.0  0.48876  0.63840  0.11555  1.0000
  C   C334      1.0  0.54860  0.71267  0.07227  1.0000
  H   H327      1.0  0.57173  0.51203  0.32555  1.0000
  H   H328      1.0  0.56719  0.69703  0.07762  1.0000
  Fe  Fe55      1.0  0.38906  0.78610  0.99956  1.0000
  C   C335      1.0  0.49001  0.65938  0.10191  1.0000
  S   S106      1.0  0.52424  0.97965  0.20699  1.0000
  H   H329      1.0  0.45454  0.95734  0.36821  1.0000
  H   H330      1.0  0.47566  0.50175  0.09179  1.0000
  S   S107      1.0  0.56748  0.97890  0.29795  1.0000
  N   N31       1.0  0.52136  0.99084  0.37812  1.0000
  H   H331      1.0  0.55636  0.97620  0.41124  1.0000
  C   C336      1.0  0.55890  0.50520  0.34792  1.0000
  C   C337      1.0  0.49307  0.98582  0.36636  1.0000
  S   S108      1.0  0.44409  0.50879  0.21910  1.0000
  H   H332      1.0  0.44005  0.50352  0.14021  1.0000
  C   C338      1.0  0.52819  0.50957  0.34853  1.0000
  C   C339      1.0  0.51169  0.49987  0.37682  1.0000
  H   H333      1.0  0.37170  0.49330  0.14134  1.0000
  H   H334      1.0  0.35864  0.85242  0.18403  1.0000
  S   S109      1.0  0.42345  0.99154  0.31409  1.0000
  H   H335      1.0  0.34278  0.54731  0.58277  1.0000
  S   S110      1.0  0.45001  0.50512  0.76658  1.0000
  S   S111      1.0  0.35425  0.78830  0.95785  1.0000
  H   H336      1.0  0.64868  0.58375  0.88666  1.0000
  Fe  Fe56      1.0  0.36983  0.83547  0.95171  1.0000
  S   S112      1.0  0.37168  0.85384  0.89678  1.0000
  H   H337      1.0  0.48318  0.80535  0.92097  1.0000
  C   C340      1.0  0.49381  0.83270  0.87733  1.0000
  S   S113      1.0  0.40152  0.50701  0.67897  1.0000
  S   S114      1.0  0.46809  0.95351  0.72044  1.0000
  H   H338      1.0  0.58969  0.78261  0.53440  1.0000
  Fe  Fe57      1.0  0.47480  0.96027  0.77799  1.0000
  S   S115      1.0  0.47481  0.92625  0.82210  1.0000
  C   C341      1.0  0.46907  0.49691  0.61171  1.0000
  H   H339      1.0  0.60291  0.74526  0.52957  1.0000
  S   S116      1.0  0.37570  0.59919  0.55775  1.0000
  C   C342      1.0  0.39409  0.53363  0.64639  1.0000
  C   C343      1.0  0.36848  0.53039  0.62578  1.0000
  C   C344      1.0  0.36238  0.55030  0.59865  1.0000
  C   C345      1.0  0.38174  0.57389  0.59209  1.0000
  C   C346      1.0  0.40699  0.57752  0.61319  1.0000
  C   C347      1.0  0.41329  0.55739  0.64001  1.0000
  C   C348      1.0  0.64259  0.98785  0.56301  1.0000
  C   C349      1.0  0.66040  0.60453  0.89044  1.0000
  H   H340      1.0  0.42205  0.59577  0.60846  1.0000
  H   H341      1.0  0.43300  0.56025  0.65572  1.0000
  C   C350      1.0  0.39884  0.87798  0.87873  1.0000
  C   C351      1.0  0.39441  0.88897  0.84513  1.0000
  C   C352      1.0  0.41666  0.90562  0.82829  1.0000
  C   C353      1.0  0.44386  0.91111  0.84469  1.0000
  C   C354      1.0  0.44795  0.90082  0.87870  1.0000
  C   C355      1.0  0.42553  0.88453  0.89575  1.0000
  H   H342      1.0  0.37391  0.88402  0.83165  1.0000
  H   H343      1.0  0.41327  0.91314  0.80205  1.0000
  H   H344      1.0  0.46894  0.90481  0.89158  1.0000
  H   H345      1.0  0.42934  0.87623  0.92155  1.0000
  H   H346      1.0  0.44668  0.84702  0.81087  1.0000
  C   C356      1.0  0.62932  0.62736  0.84546  1.0000
  H   H347      1.0  0.51593  0.83818  0.88661  1.0000
  H   H348      1.0  0.43194  0.79178  0.93434  1.0000
  S   S117      1.0  0.61222  0.68007  0.93602  1.0000
  Fe  Fe58      1.0  0.51035  0.97991  0.71345  1.0000
  H   H349      1.0  0.45425  0.69487  0.98857  1.0000
  C   C357      1.0  0.63392  0.79978  0.57259  1.0000
  Fe  Fe59      1.0  0.59515  0.63443  0.94922  1.0000
  S   S118      1.0  0.59008  0.59460  0.91296  1.0000
  C   C358      1.0  0.60960  0.76892  0.52843  1.0000
  Fe  Fe60      1.0  0.49300  0.52929  0.75640  1.0000
  H   H350      1.0  0.57103  0.97526  0.60294  1.0000
  S   S119      1.0  0.50144  0.57200  0.78679  1.0000
  H   H351      1.0  0.35339  0.51218  0.63064  1.0000
  H   H352      1.0  0.65870  0.73692  0.53609  1.0000
  S   S120      1.0  0.48579  0.52965  0.69876  1.0000
  Fe  Fe61      1.0  0.63740  0.87634  0.53750  1.0000
  S   S121      1.0  0.61831  0.87673  0.59220  1.0000
  C   C359      1.0  0.56307  0.94864  0.64812  1.0000
  C   C360      1.0  0.57462  0.95392  0.61489  1.0000
  C   C361      1.0  0.59054  0.93181  0.59688  1.0000
  C   C362      1.0  0.59593  0.90437  0.61237  1.0000
  C   C363      1.0  0.58423  0.89899  0.64550  1.0000
  C   C364      1.0  0.56764  0.92086  0.66316  1.0000
  C   C365      1.0  0.33886  0.66922  0.57445  1.0000
  H   H353      1.0  0.59873  0.93602  0.57113  1.0000
  H   H354      1.0  0.58816  0.87784  0.65773  1.0000
  H   H355      1.0  0.55910  0.91648  0.68876  1.0000
  C   C366      1.0  0.49473  0.57095  0.90651  1.0000
  H   H356      1.0  0.60403  0.98217  0.77810  1.0000
  C   C367      1.0  0.45507  0.83731  0.83459  1.0000
  C   C368      1.0  0.52779  0.57850  0.82017  1.0000
  C   C369      1.0  0.54773  0.55667  0.83109  1.0000
  C   C370      1.0  0.56697  0.56223  0.85914  1.0000
  C   C371      1.0  0.56631  0.58950  0.87680  1.0000
  C   C372      1.0  0.54679  0.61154  0.86549  1.0000
  C   C373      1.0  0.52773  0.60606  0.83724  1.0000
  H   H357      1.0  0.54818  0.53545  0.81805  1.0000
  H   H358      1.0  0.58216  0.54510  0.86752  1.0000
  H   H359      1.0  0.54613  0.63269  0.87868  1.0000
  H   H360      1.0  0.51244  0.62313  0.82889  1.0000
  C   C374      1.0  0.48360  0.84436  0.84615  1.0000
  N   N32       1.0  0.63414  0.77483  0.55245  1.0000
  C   C375      1.0  0.50077  0.76681  0.98148  1.0000
  Fe  Fe62      1.0  0.64365  0.67587  0.98128  1.0000
  C   C376      1.0  0.42755  0.78896  0.90630  1.0000
  H   H361      1.0  0.49707  0.59214  0.91954  1.0000
  C   C377      1.0  0.47509  0.81437  0.89676  1.0000
  H   H362      1.0  0.62326  0.60408  0.83914  1.0000
  H   H363      1.0  0.61524  0.81499  0.57179  1.0000
  H   H364      1.0  0.43146  0.76541  0.89934  1.0000
  C   C378      1.0  0.51295  0.54725  0.91572  1.0000
  S   S122      1.0  0.54598  0.97845  0.67089  1.0000
  C   C379      1.0  0.47187  0.54055  0.57603  1.0000
  C   C380      1.0  0.48472  0.52189  0.60052  1.0000
  N   N33       1.0  0.44682  0.80827  0.88567  1.0000
  C   C381      1.0  0.43685  0.81913  0.85478  1.0000
  C   C382      1.0  0.42872  0.50874  0.57464  1.0000
  H   H365      1.0  0.43325  0.54858  0.54424  1.0000
  H   H366      1.0  0.52960  0.55002  0.93582  1.0000
  H   H367      1.0  0.40369  0.79442  0.90220  1.0000
  S   S123      1.0  0.40695  0.83209  0.99045  1.0000
  H   H368      1.0  0.40656  0.50414  0.56490  1.0000
  C   C383      1.0  0.51070  0.52052  0.89751  1.0000
  H   H369      1.0  0.41430  0.81468  0.84619  1.0000
  H   H370      1.0  0.49737  0.85956  0.83137  1.0000
  H   H371      1.0  0.50658  0.52676  0.61110  1.0000
  C   C384      1.0  0.47467  0.56777  0.87923  1.0000
  C   C385      1.0  0.44379  0.53386  0.56274  1.0000
  H   H372      1.0  0.63606  0.63836  0.82106  1.0000
  H   H373      1.0  0.46145  0.58647  0.87068  1.0000
  Fe  Fe63      1.0  0.33651  0.59991  0.52003  1.0000
  C   C386      1.0  0.49785  0.71333  0.97965  1.0000
  H   H374      1.0  0.60909  0.63837  0.85588  1.0000
  H   H375      1.0  0.36057  0.66045  0.56765  1.0000
  C   C387      1.0  0.65801  0.75604  0.55310  1.0000
  H   H376      1.0  0.52561  0.50249  0.90404  1.0000
  H   H377      1.0  0.48355  0.56030  0.56763  1.0000
  C   C388      1.0  0.45333  0.74255  0.99137  1.0000
  H   H378      1.0  0.62961  0.98570  0.58732  1.0000
  C   C389      1.0  0.47310  0.54077  0.86152  1.0000
  H   H379      1.0  0.36048  0.63355  0.62133  1.0000
  C   C390      1.0  0.33572  0.63319  0.62174  1.0000
  N   N34       1.0  0.49066  0.51747  0.87112  1.0000
  S   S124      1.0  0.55327  0.73806  0.96942  1.0000
  H   H380      1.0  0.65785  0.82650  0.60958  1.0000
  S   S125      1.0  0.55926  0.64999  0.98571  1.0000
  H   H381      1.0  0.45852  0.53894  0.83925  1.0000
  H   H382      1.0  0.51384  0.78690  0.97992  1.0000
  C   C391      1.0  0.65807  0.80645  0.59405  1.0000
  H   H383      1.0  0.50834  0.69201  0.97611  1.0000
  C   C392      1.0  0.51472  0.73924  0.97721  1.0000
  H   H384      1.0  0.63077  0.97583  0.54200  1.0000
  S   S126      1.0  0.33638  0.85183  0.99039  1.0000
  Fe  Fe64      1.0  0.57865  0.69518  0.97572  1.0000
  S   S127      1.0  0.51916  0.98341  0.77066  1.0000
  Fe  Fe65      1.0  0.44525  0.50229  0.70861  1.0000
  S   S128      1.0  0.62933  0.62863  0.99142  1.0000
  N   N35       1.0  0.65328  0.62889  0.87113  1.0000
  S   S129      1.0  0.64208  0.91438  0.50055  1.0000
  H   H385      1.0  0.33861  0.70041  0.53206  1.0000
  C   C393      1.0  0.47017  0.76848  0.98872  1.0000
  C   C394      1.0  0.46720  0.71501  0.98657  1.0000
  H   H386      1.0  0.45983  0.78977  0.99309  1.0000
  H   H387      1.0  0.61684  0.77415  0.50164  1.0000
  H   H388      1.0  0.65572  0.93203  0.57825  1.0000
  H   H389      1.0  0.32872  0.63430  0.64921  1.0000
  H   H390      1.0  0.32825  0.61177  0.61045  1.0000
  S   S130      1.0  0.62060  0.84463  0.49718  1.0000
  C   C395      1.0  0.76104  0.20120  0.05660  1.0000
  Fe  Fe66      1.0  0.66686  0.33458  0.47263  1.0000
  C   C396      1.0  0.77596  0.16893  0.01005  1.0000
  C   C397      1.0  0.78742  0.21726  0.05229  1.0000
  S   S131      1.0  0.95974  0.40811  0.19926  1.0000
  C   C398      1.0  0.72661  0.25993  0.01911  1.0000
  C   C399      1.0  0.83414  0.22748  0.02210  1.0000
  Fe  Fe67      1.0  0.87582  0.35053  0.02782  1.0000
  S   S132      1.0  0.88341  0.39083  0.06255  1.0000
  C   C400      1.0  0.70709  0.00604  0.47738  1.0000
  S   S133      1.0  0.86148  0.30463  0.04292  1.0000
  C   C401      1.0  0.76523  0.02122  0.39776  1.0000
  C   C402      1.0  0.98341  0.24534  0.07739  1.0000
  H   H391      1.0  0.86637  0.44623  0.23183  1.0000
  H   H392      1.0  0.83893  0.00409  0.35073  1.0000
  Fe  Fe68      1.0  0.82822  0.10513  0.43148  1.0000
  H   H393      1.0  0.73186  0.18961  0.45960  1.0000
  S   S134      1.0  0.84669  0.10316  0.37648  1.0000
  S   S135      1.0  0.77976  0.29076  0.01594  1.0000
  C   C403      1.0  0.87728  0.38898  0.19371  1.0000
  C   C404      1.0  0.75379  0.26330  0.00131  1.0000
  S   S136      1.0  0.67907  0.28550  0.46312  1.0000
  S   S137      1.0  0.78151  0.12206  0.43997  1.0000
  H   H394      1.0  0.98006  0.41967  0.41119  1.0000
  H   H395      1.0  0.78060  0.44725  0.41943  1.0000
  Fe  Fe69      1.0  0.97206  0.45178  0.22556  1.0000
  S   S138      1.0  0.67006  0.36899  0.43054  1.0000
  H   H396      1.0  0.89171  0.38238  0.21483  1.0000
  H   H397      1.0  0.74941  0.44540  0.39085  1.0000
  C   C405      1.0  0.75774  0.22183  0.48747  1.0000
  Fe  Fe70      1.0  0.68457  0.39974  0.47339  1.0000
  C   C406      1.0  0.81818  0.00864  0.36409  1.0000
  C   C407      1.0  0.70638  0.23700  0.01058  1.0000
  H   H398      1.0  0.78556  0.45386  0.37360  1.0000
  H   H399      1.0  0.77786  0.46236  0.48060  1.0000
  H   H400      1.0  0.84931  0.44992  0.15610  1.0000
  H   H401      1.0  0.87207  0.34417  0.17497  1.0000
  H   H402      1.0  0.73421  0.16524  0.03707  1.0000
  H   H403      1.0  0.88911  0.46131  0.19742  1.0000
  H   H404      1.0  0.74437  0.02589  0.41077  1.0000
  C   C408      1.0  0.88308  0.44083  0.21169  1.0000
  C   C409      1.0  0.90805  0.03242  0.32781  1.0000
  C   C410      1.0  0.90021  0.05792  0.30950  1.0000
  C   C411      1.0  0.88198  0.07965  0.32506  1.0000
  C   C412      1.0  0.87173  0.07640  0.35920  1.0000
  C   C413      1.0  0.88013  0.05120  0.37776  1.0000
  C   C414      1.0  0.89799  0.02929  0.36205  1.0000
  H   H405      1.0  0.90761  0.06061  0.28311  1.0000
  H   H406      1.0  0.87554  0.09899  0.31040  1.0000
  H   H407      1.0  0.87242  0.04832  0.40401  1.0000
  H   H408      1.0  0.75044  0.07128  0.35007  1.0000
  C   C415      1.0  0.94257  0.40422  0.15823  1.0000
  C   C416      1.0  0.93858  0.37565  0.14436  1.0000
  C   C417      1.0  0.92198  0.37124  0.11385  1.0000
  C   C418      1.0  0.90890  0.39540  0.09717  1.0000
  C   C419      1.0  0.91377  0.42405  0.11041  1.0000
  C   C420      1.0  0.93067  0.42850  0.14065  1.0000
  H   H409      1.0  0.94776  0.35675  0.15779  1.0000
  H   H410      1.0  0.91831  0.34909  0.10403  1.0000
  H   H411      1.0  0.90378  0.44286  0.09761  1.0000
  H   H412      1.0  0.93368  0.45059  0.15093  1.0000
  H   H413      1.0  0.72135  0.27493  0.04005  1.0000
  H   H414      1.0  0.68593  0.23451  0.02501  1.0000
  S   S139      1.0  0.82329  0.06598  0.46661  1.0000
  H   H415      1.0  0.81492  0.05303  0.34468  1.0000
  N   N36       1.0  0.87129  0.41828  0.18805  1.0000
  H   H416      1.0  0.98651  0.28967  0.05722  1.0000
  H   H417      1.0  0.82820  0.24640  0.00520  1.0000
  C   C421      1.0  0.85380  0.42669  0.16084  1.0000
  H   H418      1.0  0.90384  0.43310  0.22452  1.0000
  H   H419      1.0  0.92877  0.99893  0.11236  1.0000
  C   C422      1.0  0.73481  0.27134  0.49166  1.0000
  C   C423      1.0  0.75811  0.47516  0.48613  1.0000
  C   C424      1.0  0.76445  0.07141  0.37366  1.0000
  C   C425      1.0  0.84257  0.40556  0.13778  1.0000
  C   C426      1.0  0.86624  0.36725  0.17127  1.0000
  C   C427      1.0  0.84897  0.37568  0.14299  1.0000
  H   H420      1.0  0.68693  0.01823  0.47182  1.0000
  Fe  Fe71      1.0  0.82678  0.30706  0.00085  1.0000
  C   C428      1.0  0.73406  0.02130  0.48166  1.0000
  H   H421      1.0  0.84150  0.35930  0.12432  1.0000
  C   C429      1.0  0.70454  0.47840  0.49115  1.0000
  H   H422      1.0  0.68277  0.46836  0.48913  1.0000
  C   C430      1.0  0.77819  0.99324  0.40153  1.0000
  S   S140      1.0  0.97794  0.45173  0.28336  1.0000
  H   H423      1.0  0.95640  0.45406  0.36904  1.0000
  C   C431      1.0  0.71001  0.26177  0.47275  1.0000
  H   H424      1.0  0.83016  0.41233  0.11506  1.0000
  H   H425      1.0  0.98676  0.20004  0.09370  1.0000
  H   H426      1.0  0.78148  0.08922  0.37129  1.0000
  C   C432      1.0  0.80456  0.03635  0.36086  1.0000
  C   C433      1.0  0.96954  0.21675  0.99904  1.0000
  H   H427      1.0  0.84286  0.23642  0.04688  1.0000
  C   C434      1.0  0.77059  0.45741  0.39603  1.0000
  H   H428      1.0  0.74447  0.20845  0.07514  1.0000
  S   S141      1.0  0.84644  0.13517  0.47276  1.0000
  H   H429      1.0  0.79092  0.23715  0.06758  1.0000
  C   C435      1.0  0.72995  0.46186  0.48338  1.0000
  H   H430      1.0  0.69028  0.22426  0.44685  1.0000
  N   N37       1.0  0.76554  0.48910  0.40202  1.0000
  C   C436      1.0  0.70926  0.23206  0.46147  1.0000
  S   S142      1.0  0.91756  0.24685  0.01003  1.0000
  C   C437      1.0  0.73289  0.21227  0.46866  1.0000
  C   C438      1.0  0.76011  0.00546  0.48841  1.0000
  C   C439      1.0  0.75529  0.17694  0.03525  1.0000
  N   N38       1.0  0.77870  0.04248  0.37807  1.0000
  N   N39       1.0  0.80770  0.20910  0.02772  1.0000
  Fe  Fe72      1.0  0.79907  0.14909  0.48413  1.0000
  S   S143      1.0  0.92869  0.00295  0.30879  1.0000
  Fe  Fe73      1.0  0.77811  0.08493  0.47840  1.0000
  H   H431      1.0  0.75029  0.07704  0.39633  1.0000
  S   S144      1.0  0.99283  0.04865  0.14652  1.0000
  H   H432      1.0  0.95799  0.19784  0.00971  1.0000
  Fe  Fe74      1.0  0.95808  0.99964  0.26042  1.0000
  H   H433      1.0  0.95978  0.24698  0.08293  1.0000
  S   S145      1.0  0.72710  0.42601  0.46571  1.0000
  C   C440      1.0  0.99128  0.43994  0.40369  1.0000
  H   H434      1.0  0.90389  0.00966  0.37649  1.0000
  H   H435      1.0  0.71924  0.48370  0.41263  1.0000
  Fe  Fe75      1.0  0.99268  0.01915  0.19486  1.0000
  C   C441      1.0  0.97810  0.45907  0.37994  1.0000
  S   S146      1.0  0.73442  0.06004  0.47752  1.0000
  Fe  Fe76      1.0  0.89239  0.28945  0.00081  1.0000
  S   S147      1.0  0.94938  0.99427  0.20307  1.0000
  H   H436      1.0  0.99223  0.00376  0.32076  1.0000
  C   C442      1.0  0.80217  0.18543  0.00652  1.0000
  H   H437      1.0  0.78098  0.01707  0.49172  1.0000
  C   C443      1.0  0.99325  0.48469  0.36982  1.0000
  H   H438      1.0  0.85254  0.21483  0.00978  1.0000
  H   H439      1.0  0.99256  0.02494  0.36008  1.0000
  H   H440      1.0  0.90660  0.28511  0.88516  1.0000
  H   H441      1.0  0.83684  0.15525  0.61300  1.0000
  S   S148      1.0  0.85727  0.28957  0.95952  1.0000
  C   C444      1.0  0.92232  0.47131  0.63348  1.0000
  Fe  Fe77      1.0  0.87198  0.33691  0.95077  1.0000
  S   S149      1.0  0.87501  0.35472  0.89563  1.0000
  H   H442      1.0  0.93899  0.27504  0.90971  1.0000
  C   C445      1.0  0.71303  0.21694  0.98406  1.0000
  C   C446      1.0  0.90257  0.48226  0.60865  1.0000
  S   S150      1.0  0.96405  0.45744  0.72330  1.0000
  H   H443      1.0  0.74517  0.99463  0.56424  1.0000
  Fe  Fe78      1.0  0.97754  0.46289  0.77923  1.0000
  S   S151      1.0  0.97795  0.42803  0.82215  1.0000
  C   C447      1.0  0.93382  0.32233  0.84489  1.0000
  C   C448      1.0  0.76008  0.24372  0.97419  1.0000
  H   H444      1.0  0.83701  0.12420  0.58330  1.0000
  S   S152      1.0  0.79320  0.11276  0.52359  1.0000
  Fe  Fe79      1.0  0.94683  0.00765  0.70859  1.0000
  H   H445      1.0  0.96830  0.46851  0.64901  1.0000
  S   S153      1.0  0.87936  0.08666  0.54313  1.0000
  S   S154      1.0  0.69025  0.18528  0.97481  1.0000
  C   C449      1.0  0.89165  0.19207  0.51659  1.0000
  C   C450      1.0  0.75841  0.25152  0.49896  1.0000
  H   H446      1.0  0.84872  0.21286  0.51122  1.0000
  S   S155      1.0  0.68357  0.36467  0.51470  1.0000
  H   H447      1.0  0.91897  0.30885  0.91941  1.0000
  C   C451      1.0  0.95271  0.47677  0.62996  1.0000
  H   H448      1.0  0.86754  0.12969  0.61234  1.0000
  H   H449      1.0  0.77104  0.15084  0.99247  1.0000
  C   C452      1.0  0.96943  0.26808  0.98116  1.0000
  C   C453      1.0  0.89550  0.03539  0.64458  1.0000
  C   C454      1.0  0.86640  0.03837  0.63146  1.0000
  C   C455      1.0  0.86093  0.05377  0.60036  1.0000
  C   C456      1.0  0.88457  0.06640  0.58205  1.0000
  C   C457      1.0  0.91359  0.06362  0.59533  1.0000
  C   C458      1.0  0.91906  0.04816  0.62631  1.0000
  H   H450      1.0  0.77743  0.25932  0.51347  1.0000
  H   H451      1.0  0.83849  0.05576  0.59054  1.0000
  H   H452      1.0  0.93207  0.07322  0.58139  1.0000
  H   H453      1.0  0.94155  0.04601  0.63596  1.0000
  C   C459      1.0  0.90197  0.37959  0.87857  1.0000
  C   C460      1.0  0.89703  0.39223  0.84585  1.0000
  C   C461      1.0  0.91935  0.40896  0.82923  1.0000
  C   C462      1.0  0.94716  0.41275  0.84489  1.0000
  C   C463      1.0  0.95183  0.40077  0.87801  1.0000
  C   C464      1.0  0.92931  0.38452  0.89492  1.0000
  H   H454      1.0  0.87601  0.38847  0.83292  1.0000
  H   H455      1.0  0.91549  0.41776  0.80366  1.0000
  H   H456      1.0  0.97328  0.40347  0.89030  1.0000
  H   H457      1.0  0.93352  0.37489  0.91999  1.0000
  C   C465      1.0  0.98065  0.34602  0.83197  1.0000
  C   C466      1.0  0.89467  0.15488  0.56109  1.0000
  H   H458      1.0  0.91404  0.45934  0.65580  1.0000
  S   S156      1.0  0.90133  0.01567  0.68381  1.0000
  H   H459      1.0  0.90742  0.13782  0.57414  1.0000
  S   S157      1.0  0.90973  0.33511  0.98887  1.0000
  N   N40       1.0  0.86544  0.15957  0.56942  1.0000
  S   S158      1.0  0.94989  0.00510  0.76673  1.0000
  C   C467      1.0  0.85099  0.14140  0.59593  1.0000
  C   C468      1.0  0.97444  0.31676  0.88358  1.0000
  H   H460      1.0  0.69400  0.32054  0.57679  1.0000
  C   C469      1.0  0.67295  0.32090  0.59188  1.0000
  Fe  Fe80      1.0  0.99329  0.02982  0.76159  1.0000
  C   C470      1.0  0.86198  0.19691  0.52546  1.0000
  H   H461      1.0  0.98351  0.30830  0.90758  1.0000
  H   H462      1.0  0.91046  0.31912  0.83876  1.0000
  H   H463      1.0  0.87892  0.47834  0.61191  1.0000
  S   S159      1.0  0.98789  0.03547  0.70407  1.0000
  H   H464      1.0  0.67800  0.28329  0.53840  1.0000
  H   H465      1.0  0.84800  0.02860  0.64537  1.0000
  H   H466      1.0  0.81764  0.17972  0.98608  1.0000
  S   S160      1.0  0.78836  0.19784  0.49765  1.0000
  S   S161      1.0  0.83861  0.35465  0.98894  1.0000
  N   N41       1.0  0.94558  0.31086  0.87460  1.0000
  H   H467      1.0  0.67702  0.31081  0.61755  1.0000
  H   H468      1.0  0.78068  0.24601  0.96001  1.0000
  H   H469      1.0  0.74530  0.20552  0.94506  1.0000
  C   C471      1.0  0.73988  0.22075  0.96572  1.0000
  Fe  Fe81      1.0  0.83904  0.09671  0.50895  1.0000
  C   C472      1.0  0.69714  0.99288  0.56419  1.0000
  H   H470      1.0  0.69508  0.01611  0.55742  1.0000
  C   C473      1.0  0.95123  0.33986  0.82302  1.0000
  H   H471      1.0  0.73594  0.29406  0.50049  1.0000
  H   H472      1.0  0.93100  0.16632  0.52722  1.0000
  H   H473      1.0  0.95804  0.28901  0.97830  1.0000
  C   C474      1.0  0.92668  0.29403  0.89836  1.0000
  C   C475      1.0  0.90815  0.17090  0.53446  1.0000
  C   C476      1.0  0.99242  0.33438  0.86241  1.0000
  H   H474      1.0  0.94151  0.34994  0.80024  1.0000
  H   H475      1.0  0.66680  0.34461  0.59542  1.0000
  C   C477      1.0  0.84904  0.18013  0.55184  1.0000
  H   H476      1.0  0.82560  0.18326  0.55760  1.0000
  H   H477      1.0  0.99387  0.36084  0.81606  1.0000
  H   H478      1.0  0.88866  0.49179  0.53489  1.0000
  C   C478      1.0  0.95444  0.24375  0.99511  1.0000
  H   H479      1.0  0.90159  0.20426  0.49542  1.0000
  S   S162      1.0  0.67901  0.78177  0.47950  1.0000
  H   H480      1.0  0.96867  0.96140  0.34550  1.0000
  H   H481      1.0  0.85080  0.70515  0.48632  1.0000
  Fe  Fe82      1.0  0.97840  0.95393  0.20534  1.0000
  S   S163      1.0  0.97355  0.91147  0.17379  1.0000
  H   H482      1.0  0.81162  0.77839  0.07360  1.0000
  H   H483      1.0  0.72987  0.73073  0.05919  1.0000
  Fe  Fe83      1.0  0.87052  0.84471  0.02545  1.0000
  S   S164      1.0  0.86698  0.87267  0.07443  1.0000
  H   H484      1.0  0.78400  0.73100  0.07281  1.0000
  S   S165      1.0  0.85510  0.79747  0.01973  1.0000
  C   C479      1.0  0.73405  0.70998  0.48896  1.0000
  C   C480      1.0  0.75912  0.97446  0.49101  1.0000
  H   H485      1.0  0.92184  0.89941  0.03269  1.0000
  C   C481      1.0  0.74389  0.80455  0.05327  1.0000
  Fe  Fe84      1.0  0.82998  0.60363  0.45582  1.0000
  H   H486      1.0  0.73287  0.82497  0.04601  1.0000
  S   S166      1.0  0.84866  0.60218  0.40107  1.0000
  C   C482      1.0  0.71066  0.75930  0.48938  1.0000
  C   C483      1.0  0.78795  0.77854  0.06818  1.0000
  H   H487      1.0  0.80501  0.74240  0.45318  1.0000
  S   S167      1.0  0.92080  0.49644  0.32959  1.0000
  S   S168      1.0  0.78329  0.62035  0.46417  1.0000
  H   H488      1.0  0.89984  0.97158  0.06784  1.0000
  N   N42       1.0  0.77360  0.80455  0.06101  1.0000
  Fe  Fe85      1.0  0.95310  0.49508  0.28380  1.0000
  C   C484      1.0  0.73294  0.52899  0.41809  1.0000
  H   H489      1.0  0.81302  0.83036  0.07064  1.0000
  C   C485      1.0  0.73770  0.49909  0.41038  1.0000
  H   H490      1.0  0.97887  0.98111  0.12911  1.0000
  S   S169      1.0  0.94398  0.49284  0.22654  1.0000
  H   H491      1.0  0.75352  0.57166  0.42449  1.0000
  C   C486      1.0  0.72761  0.77811  0.05326  1.0000
  C   C487      1.0  0.70610  0.97503  0.48000  1.0000
  H   H492      1.0  0.70425  0.77806  0.04614  1.0000
  H   H493      1.0  0.99064  0.59563  0.12373  1.0000
  H   H494      1.0  0.68527  0.96339  0.47660  1.0000
  C   C488      1.0  0.93819  0.97964  0.09965  1.0000
  C   C489      1.0  0.75686  0.54866  0.41738  1.0000
  C   C490      1.0  0.74204  0.75151  0.06052  1.0000
  H   H495      1.0  0.85970  0.73671  0.45971  1.0000
  C   C491      1.0  0.90213  0.52669  0.34960  1.0000
  C   C492      1.0  0.90021  0.55462  0.33421  1.0000
  C   C493      1.0  0.88395  0.57750  0.35042  1.0000
  C   C494      1.0  0.86988  0.57294  0.38245  1.0000
  C   C495      1.0  0.87220  0.54513  0.39813  1.0000
  C   C496      1.0  0.88801  0.52211  0.38163  1.0000
  H   H496      1.0  0.91079  0.55847  0.30953  1.0000
  H   H497      1.0  0.88224  0.59887  0.33798  1.0000
  H   H498      1.0  0.86163  0.54128  0.42279  1.0000
  H   H499      1.0  0.97055  0.90964  0.05651  1.0000
  C   C497      1.0  0.94333  0.90076  0.14700  1.0000
  C   C498      1.0  0.94706  0.87671  0.12423  1.0000
  C   C499      1.0  0.92406  0.86802  0.10160  1.0000
  C   C500      1.0  0.89677  0.88288  0.10212  1.0000
  C   C501      1.0  0.89292  0.90675  0.12510  1.0000
  C   C502      1.0  0.91617  0.91587  0.14718  1.0000
  H   H500      1.0  0.96795  0.86481  0.12400  1.0000
  H   H501      1.0  0.92728  0.84948  0.08424  1.0000
  H   H502      1.0  0.87185  0.91830  0.12580  1.0000
  H   H503      1.0  0.91296  0.93432  0.16465  1.0000
  H   H504      1.0  0.81538  0.96552  0.38769  1.0000
  C   C503      1.0  0.92200  0.96406  0.07456  1.0000
  C   C504      1.0  0.78515  0.53837  0.40865  1.0000
  H   H505      1.0  0.80393  0.55352  0.40827  1.0000
  H   H506      1.0  0.92154  0.93266  0.00674  1.0000
  H   H507      1.0  0.69048  0.71985  0.46830  1.0000
  S   S170      1.0  0.67440  0.86612  0.44675  1.0000
  S   S171      1.0  0.98787  0.55317  0.17858  1.0000
  C   C505      1.0  0.85567  0.71243  0.45949  1.0000
  N   N43       1.0  0.93364  0.93924  0.05935  1.0000
  C   C506      1.0  0.78109  0.68931  0.39770  1.0000
  C   C507      1.0  0.79009  0.83259  0.06013  1.0000
  C   C508      1.0  0.80632  0.67131  0.39786  1.0000
  Fe  Fe86      1.0  0.98784  0.51707  0.21996  1.0000
  C   C509      1.0  0.78079  0.71525  0.41735  1.0000
  H   H508      1.0  0.79185  0.84042  0.03302  1.0000
  H   H509      1.0  0.76166  0.68299  0.38277  1.0000
  C   C510      1.0  0.96154  0.92964  0.06802  1.0000
  C   C511      1.0  0.77242  0.75165  0.06799  1.0000
  H   H510      1.0  0.80679  0.65086  0.38306  1.0000
  H   H511      1.0  0.88936  0.50060  0.39377  1.0000
  H   H512      1.0  0.85010  0.66489  0.41857  1.0000
  H   H513      1.0  0.81134  0.50036  0.39509  1.0000
  H   H514      1.0  0.98552  0.54741  0.03830  1.0000
  N   N44       1.0  0.83045  0.70497  0.43705  1.0000
  C   C512      1.0  0.83087  0.67941  0.41800  1.0000
  C   C513      1.0  0.80584  0.72280  0.43693  1.0000
  H   H515      1.0  0.71117  0.53661  0.42631  1.0000
  S   S172      1.0  0.82624  0.56590  0.49319  1.0000
  C   C514      1.0  0.97826  0.94461  0.09309  1.0000
  C   C515      1.0  0.78915  0.50829  0.40117  1.0000
  S   S173      1.0  0.98359  0.95659  0.26310  1.0000
  C   C516      1.0  0.91658  0.92348  0.03270  1.0000
  H   H516      1.0  0.77857  0.84975  0.07573  1.0000
  H   H517      1.0  0.76103  0.72907  0.41823  1.0000
  Fe  Fe87      1.0  0.68792  0.89585  0.49089  1.0000
  C   C517      1.0  0.96644  0.96973  0.10899  1.0000
  C   C518      1.0  0.70992  0.72889  0.48104  1.0000
  Fe  Fe88      1.0  0.66835  0.83127  0.48779  1.0000
  H   H518      1.0  0.89224  0.92506  0.03761  1.0000
  H   H519      1.0  0.97906  0.53478  0.10421  1.0000
  H   H520      1.0  0.98746  0.49967  0.08347  1.0000
  H   H521      1.0  0.76752  0.97653  0.41741  1.0000
  H   H522      1.0  0.87649  0.70145  0.45076  1.0000
  C   C519      1.0  0.80496  0.98705  0.38477  1.0000
  C   C520      1.0  0.73213  0.95920  0.48694  1.0000
  C   C521      1.0  0.99063  0.93309  0.38210  1.0000
  H   H523      1.0  0.73306  0.68673  0.48225  1.0000
  C   C522      1.0  0.98765  0.95902  0.36266  1.0000
  H   H524      1.0  0.98282  0.49942  0.35133  1.0000
  H   H525      1.0  0.97437  0.91546  0.37965  1.0000
  S   S174      1.0  0.73163  0.92056  0.49201  1.0000
  C   C523      1.0  0.76079  0.50522  0.49512  1.0000
  S   S175      1.0  0.84863  0.63541  0.49493  1.0000
  C   C524      1.0  0.96590  0.71995  0.99545  1.0000
  C   C525      1.0  0.96303  0.49320  0.60200  1.0000
  C   C526      1.0  0.94057  0.60868  0.70788  1.0000
  S   S176      1.0  0.86164  0.80715  0.93485  1.0000
  S   S177      1.0  0.90921  0.84037  0.98898  1.0000
  Fe  Fe89      1.0  0.87712  0.85368  0.94699  1.0000
  S   S178      1.0  0.88484  0.89458  0.91315  1.0000
  C   C527      1.0  0.70409  0.74693  0.97170  1.0000
  C   C528      1.0  0.75941  0.72123  0.50540  1.0000
  Fe  Fe90      1.0  0.82627  0.81256  0.97577  1.0000
  C   C529      1.0  0.97099  0.77328  0.99524  1.0000
  C   C530      1.0  0.69681  0.63305  0.92193  1.0000
  H   H526      1.0  0.92715  0.88181  0.74868  1.0000
  S   S179      1.0  0.97160  0.92031  0.78619  1.0000
  C   C531      1.0  0.72563  0.98089  0.56809  1.0000
  H   H527      1.0  0.70200  0.74775  0.57329  1.0000
  C   C532      1.0  0.94266  0.50391  0.57767  1.0000
  S   S180      1.0  0.79656  0.61472  0.54812  1.0000
  H   H528      1.0  0.68711  0.58716  0.93214  1.0000
  N   N45       1.0  0.91008  0.57731  0.75849  1.0000
  S   S181      1.0  0.88320  0.58897  0.56684  1.0000
  C   C533      1.0  0.70344  0.93314  0.57887  1.0000
  S   S182      1.0  0.79124  0.69884  0.51479  1.0000
  S   S183      1.0  0.97138  0.96482  0.70015  1.0000
  C   C534      1.0  0.76014  0.75163  0.51379  1.0000
  H   H529      1.0  0.90005  0.52972  0.54260  1.0000
  H   H530      1.0  0.68746  0.52133  0.50550  1.0000
  C   C535      1.0  0.89544  0.58640  0.72940  1.0000
  C   C536      1.0  0.67528  0.94594  0.57538  1.0000
  C   C537      1.0  0.75389  0.76981  0.97265  1.0000
  C   C538      1.0  0.71633  0.71896  0.97806  1.0000
  C   C539      1.0  0.89466  0.53542  0.66705  1.0000
  C   C540      1.0  0.86604  0.54011  0.65342  1.0000
  C   C541      1.0  0.86194  0.55678  0.62300  1.0000
  C   C542      1.0  0.88650  0.56909  0.60609  1.0000
  C   C543      1.0  0.91506  0.56465  0.61998  1.0000
  C   C544      1.0  0.91917  0.54778  0.65014  1.0000
  C   C545      1.0  0.73598  0.77052  0.50592  1.0000
  H   H531      1.0  0.83982  0.56002  0.61260  1.0000
  H   H532      1.0  0.93420  0.57407  0.60707  1.0000
  H   H533      1.0  0.94131  0.54440  0.66026  1.0000
  C   C546      1.0  0.91100  0.90133  0.87967  1.0000
  C   C547      1.0  0.91461  0.93049  0.86756  1.0000
  C   C548      1.0  0.93370  0.93682  0.83963  1.0000
  C   C549      1.0  0.94930  0.91396  0.82332  1.0000
  C   C550      1.0  0.94606  0.88485  0.83573  1.0000
  C   C551      1.0  0.92706  0.87854  0.86378  1.0000
  H   H534      1.0  0.90231  0.94828  0.87968  1.0000
  H   H535      1.0  0.93596  0.95931  0.83040  1.0000
  S   S184      1.0  0.83925  0.86027  0.98417  1.0000
  H   H536      1.0  0.92448  0.85601  0.87277  1.0000
  H   H537      1.0  0.75735  0.69516  0.98613  1.0000
  C   C552      1.0  0.73529  0.52204  0.50162  1.0000
  H   H538      1.0  0.94924  0.66819  0.91488  1.0000
  H   H539      1.0  0.93587  0.90980  0.71827  1.0000
  H   H540      1.0  0.88921  0.88939  0.79140  1.0000
  C   C553      1.0  0.86509  0.96043  0.78803  1.0000
  C   C554      1.0  0.88582  0.91150  0.78119  1.0000
  H   H541      1.0  0.85240  0.97643  0.80286  1.0000
  H   H542      1.0  0.70563  0.90959  0.58368  1.0000
  S   S185      1.0  0.68448  0.86016  0.53111  1.0000
  C   C555      1.0  0.89409  0.55970  0.78432  1.0000
  H   H543      1.0  0.89090  0.53675  0.77451  1.0000
  C   C556      1.0  0.72275  0.77208  0.96892  1.0000
  S   S186      1.0  0.69402  0.68631  0.98259  1.0000
  C   C557      1.0  0.97113  0.67811  0.91720  1.0000
  C   C558      1.0  0.86866  0.93158  0.80019  1.0000
  H   H544      1.0  0.95811  0.86702  0.82334  1.0000
  Fe  Fe91      1.0  0.84229  0.59850  0.53344  1.0000
  C   C559      1.0  0.91037  0.60242  0.70381  1.0000
  H   H545      1.0  0.70185  0.79287  0.61039  1.0000
  S   S187      1.0  0.89883  0.51413  0.70521  1.0000
  C   C560      1.0  0.89508  0.94797  0.73842  1.0000
  H   H546      1.0  0.71293  0.79356  0.96417  1.0000
  S   S188      1.0  0.91627  0.75074  0.97638  1.0000
  H   H547      1.0  0.84690  0.53066  0.66632  1.0000
  C   C561      1.0  0.76616  0.74179  0.97866  1.0000
  Fe  Fe92      1.0  0.78103  0.58493  0.50487  1.0000
  H   H548      1.0  0.89881  0.60894  0.68038  1.0000
  Fe  Fe93      1.0  0.89129  0.79427  0.97958  1.0000
  Fe  Fe94      1.0  0.97748  0.96434  0.75809  1.0000
  C   C562      1.0  0.95324  0.74810  0.99110  1.0000
  H   H549      1.0  0.71327  0.63497  0.94237  1.0000
  C   C563      1.0  0.68266  0.78759  0.59453  1.0000
  H   H550      1.0  0.95153  0.57582  0.78547  1.0000
  C   C564      1.0  0.68216  0.60627  0.91620  1.0000
  C   C565      1.0  0.68947  0.65775  0.90211  1.0000
  C   C566      1.0  0.97454  0.70887  0.91485  1.0000
  H   H551      1.0  0.87193  0.56952  0.78978  1.0000
  H   H552      1.0  0.90650  0.55845  0.80912  1.0000
  S   S189      1.0  0.95381  0.50643  0.78582  1.0000
  C   C567      1.0  0.66735  0.65533  0.87685  1.0000
  N   N46       1.0  0.89919  0.91998  0.75103  1.0000
  S   S190      1.0  0.73729  0.56054  0.50844  1.0000
  H   H553      1.0  0.95495  0.72257  0.91105  1.0000
  H   H554      1.0  0.87232  0.58040  0.72532  1.0000
  Fe  Fe95      1.0  0.94397  0.50290  0.72876  1.0000
  H   H555      1.0  0.90285  0.88737  0.71174  1.0000
  H   H556      1.0  0.85903  0.92499  0.82475  1.0000
  H   H557      1.0  0.68024  0.74924  0.96901  1.0000
  C   C568      1.0  0.95537  0.59919  0.73754  1.0000
  H   H558      1.0  0.90517  0.95463  0.71417  1.0000
  S   S191      1.0  0.98538  0.52673  0.71375  1.0000
  C   C569      1.0  0.93969  0.58343  0.76273  1.0000
  N   N47       1.0  0.67243  0.97537  0.56769  1.0000
  C   C570      1.0  0.91693  0.89859  0.73133  1.0000
  H   H559      1.0  0.73700  0.79379  0.51258  1.0000
  S   S192      1.0  0.77593  0.80285  0.97147  1.0000
  N   N48       1.0  0.91283  0.49853  0.58134  1.0000
  H   H560      1.0  0.77961  0.76068  0.52644  1.0000
  H   H561      1.0  0.97899  0.60349  0.74085  1.0000
  Fe  Fe96      1.0  0.80135  0.64926  0.50643  1.0000
  H   H562      1.0  0.70020  0.67889  0.90721  1.0000
  C   C571      1.0  0.87818  0.96867  0.75682  1.0000
  H   H563      1.0  0.95079  0.51690  0.55613  1.0000
  H   H564      1.0  0.87562  0.99105  0.74699  1.0000
  H   H565      1.0  0.98471  0.76549  0.92357  1.0000
  H   H566      1.0  0.77931  0.96225  0.49645  1.0000
  H   H567      1.0  0.95260  0.62042  0.68784  1.0000
  C   C572      1.0  0.72874  0.95074  0.57502  1.0000
  H   H568      1.0  0.75072  0.94086  0.57634  1.0000
  C   C573      1.0  0.70724  0.50842  0.50028  1.0000
  C   C574      1.0  0.68267  0.76218  0.57397  1.0000
  C   C575      1.0  0.89190  0.50903  0.55500  1.0000
  H   H569      1.0  0.86998  0.51463  0.56664  1.0000
  H   H570      1.0  0.78999  0.73953  0.98158  1.0000
  H   H571      1.0  0.98668  0.49772  0.59955  1.0000
  H   H572      1.0  0.96142  0.79506  0.99201  1.0000
  C   C576      1.0  0.74751  0.71661  0.98129  1.0000
  H   H573      1.0  0.95215  0.70041  0.99266  1.0000
  H   H574      1.0  0.66110  0.67488  0.86234  1.0000
  H   H575      1.0  0.99391  0.63649  0.92511  1.0000
  H   H576      1.0  0.78248  0.51548  0.49634  1.0000
