data_image0
_chemical_formula_structural       FeS2FeS2FeSFeS3FeSH2SCFeSFeSHCS2CHCH2SHCH2CHNCHC3HSHC7H4C3H2C6H4NC6H5FeC2HCHFeSCHCH2FeCHCH2C2HCN2H4SHCSCH5CHC2FeS2FeS2FeSFeS3HSHCSNFeSHSC2SCNHCHC2HC2H2NC5H5C6H4C2H2C7H4SHC4FeC2HC6HNCH2FeC2H3SHCH2C2H3CH4CHCH3C2H4CHNCSC2H4CSH2CHFeNCHC3S2FeHFeSC3S2C7H5FeSH3CFeSFeS3C3H2C2SHC2HC6H4NC6H8NH3CHSHCH3CHCFeCHC3HS2FeHFeSC2NSCHC6H5CSH2S2FeSFeS3HFeHC2HCH2FeCHC6H4CHCNHC7H2NC3HCH4C2NH4C2H5C2HCHCH2S2HFeSHSHCFeSFeS2FeS2FeSFeS3C3H2C6H5C2HNC2H3C7H4SC2H2NHCHNC2H3CH2CFeSHSC4H2C2H5CHC3H3C3NC3HCH5CH3C2HCHC2HFeC2H2C2NHCH2C2H2SH2SC2FeSHSC2FeSFeS2FeS2FeSFeS3C2H2SC6H5C2SH2FeHSH2C6H5NFeH2CHCH3CHCH2CHCNHC2HCHC3H2NCHC2HNC5H2FeH3CHCHCHCHCHSC2HCS2H2FeCHFeS2FeS2FeSFeS3HNC2H3SFeSHSNSH2S2CH2C2FeH3C7H4C6H3FeHC2NHCHCH3CHNC2H2CHC9HCHCH2CSH2CNCH4CHFeHCHSH3CHCH3C2H3CH2C3H2C2FeS2FeS2FeSFeS3CNHCHC2SFeSCHCSH2CSCH2CH3FeH2C6H5C4H8CH2C3HCHC2H3CHC2NH2C3NCH2C3NH2CHCNCHC4H2CH2CH3CH3SFe2S2C3S3HC7H5C2FeC2H4CFeCSH2FeSHSC7H4CH4C2HSC2HN2SHCH2CH2FeSNCH2CHFeH3SC2SC2HCH6S2FeSCHSH2SCHCSC4H3FeCHC3HCH3FeH2S2HSFeSCNC7H3CH3Fe2HCHC2SH2SHC3SC2NH2C2H2FeC2H3CH2CSHSHC2FeSH2SC2HCSC2FeS2FeS2FeSFeS3CHSH2C6H4C3HSC3HC4H3SH2C6H4CH4NHC5H2CH4CHCHSFe2HSH2CSHNC4H2CH2SCNC2FeC3SFeSC2HFe2SC2HCHCFeSFeS2C2HFeHC2FeS2FeS2FeSFeS3HC2SHSHC4H5C4SH2C2HC3H4C7H4NHNHC4SCH3CH3SH4SHCHCHCFeNC2HC2H2SH2FeC2H2CH2SCHSHCH2C4NC2HCNC3H4
_chemical_formula_sum              "Fe96 S192 H576 C576 N48"
_cell_length_a       36.6305
_cell_length_b       48.0395
_cell_length_c       41.9968
_cell_angle_alpha    89.7733
_cell_angle_beta     89.5624
_cell_angle_gamma    89.9511

_space_group_name_H-M_alt    "P 1"
_space_group_IT_number       1

loop_
  _space_group_symop_operation_xyz
  'x, y, z'

loop_
  _atom_site_type_symbol
  _atom_site_label
  _atom_site_symmetry_multiplicity
  _atom_site_fract_x
  _atom_site_fract_y
  _atom_site_fract_z
  _atom_site_occupancy
  Fe  Fe1       1.0  0.22913  0.16824  0.15326  1.0000
  S   S1        1.0  0.24543  0.20869  0.12995  1.0000
  S   S2        1.0  0.27233  0.13440  0.15219  1.0000
  Fe  Fe2       1.0  0.15267  0.18976  0.16905  1.0000
  S   S3        1.0  0.16351  0.23166  0.14752  1.0000
  S   S4        1.0  0.09894  0.18562  0.19494  1.0000
  Fe  Fe3       1.0  0.18992  0.20801  0.10763  1.0000
  S   S5        1.0  0.17661  0.21438  0.05542  1.0000
  Fe  Fe4       1.0  0.21749  0.22831  0.17205  1.0000
  S   S6        1.0  0.23975  0.26572  0.19758  1.0000
  S   S7        1.0  0.17545  0.16587  0.12762  1.0000
  S   S8        1.0  0.20478  0.18808  0.19679  1.0000
  Fe  Fe5       1.0  0.38303  0.04414  0.26849  1.0000
  S   S9        1.0  0.33738  0.07551  0.27492  1.0000
  H   H1        1.0  0.08122  0.23851  0.14366  1.0000
  H   H2        1.0  0.29663  0.33767  0.35674  1.0000
  S   S10       1.0  0.43924  0.05801  0.25473  1.0000
  C   C1        1.0  0.51147  0.02511  0.12523  1.0000
  Fe  Fe6       1.0  0.23179  0.29408  0.37408  1.0000
  S   S11       1.0  0.25747  0.25865  0.34716  1.0000
  Fe  Fe7       1.0  0.20142  0.31364  0.43811  1.0000
  S   S12       1.0  0.18601  0.30647  0.48989  1.0000
  H   H3        1.0  0.15279  0.27654  0.22373  1.0000
  C   C2        1.0  0.32226  0.32578  0.35311  1.0000
  S   S13       1.0  0.17745  0.28885  0.39827  1.0000
  S   S14       1.0  0.25748  0.31482  0.41616  1.0000
  C   C3        1.0  0.23121  0.23187  0.51347  1.0000
  H   H4        1.0  0.14652  0.22552  0.22904  1.0000
  C   C4        1.0  0.15606  0.24252  0.30700  1.0000
  H   H5        1.0  0.09388  0.28798  0.41273  1.0000
  H   H6        1.0  0.24869  0.21644  0.50244  1.0000
  S   S15       1.0  0.21707  0.33355  0.34889  1.0000
  H   H7        1.0  0.18267  0.32180  0.28506  1.0000
  C   C5        1.0  0.19625  0.29620  0.03743  1.0000
  H   H8        1.0  0.35859  0.15582  0.18371  1.0000
  H   H9        1.0  0.33093  0.32770  0.29002  1.0000
  C   C6        1.0  0.15323  0.26721  0.24728  1.0000
  H   H10       1.0  0.45607  0.02415  0.39073  1.0000
  N   N1        1.0  0.06176  0.30610  0.44984  1.0000
  C   C7        1.0  0.19165  0.27070  0.05354  1.0000
  H   H11       1.0  0.49683  0.04124  0.11256  1.0000
  C   C8        1.0  0.07300  0.34417  0.37039  1.0000
  C   C9        1.0  0.22052  0.25552  0.49597  1.0000
  C   C10       1.0  0.07925  0.22352  0.09561  1.0000
  H   H12       1.0  0.19744  0.26915  0.07872  1.0000
  S   S16       1.0  0.50507  0.04387  0.32198  1.0000
  H   H13       1.0  0.22979  0.25828  0.47163  1.0000
  C   C11       1.0  0.17998  0.24725  0.03690  1.0000
  C   C12       1.0  0.24558  0.26331  0.23902  1.0000
  C   C13       1.0  0.25061  0.28771  0.25659  1.0000
  C   C14       1.0  0.25433  0.28647  0.28980  1.0000
  C   C15       1.0  0.25337  0.26078  0.30557  1.0000
  C   C16       1.0  0.24940  0.23633  0.28792  1.0000
  C   C17       1.0  0.24522  0.23761  0.25476  1.0000
  H   H14       1.0  0.25133  0.30765  0.24449  1.0000
  H   H15       1.0  0.25860  0.30537  0.30300  1.0000
  H   H16       1.0  0.24884  0.21639  0.30002  1.0000
  H   H17       1.0  0.24190  0.21868  0.24151  1.0000
  C   C18       1.0  0.06154  0.17466  0.17216  1.0000
  C   C19       1.0  0.06633  0.16493  0.14106  1.0000
  C   C20       1.0  0.19814  0.27562  0.51013  1.0000
  H   H18       1.0  0.09350  0.16268  0.13119  1.0000
  H   H19       1.0  0.20541  0.31430  0.05039  1.0000
  C   C21       1.0  0.28752  0.11650  0.18646  1.0000
  C   C22       1.0  0.31574  0.09688  0.18322  1.0000
  C   C23       1.0  0.33040  0.08351  0.21009  1.0000
  C   C24       1.0  0.31692  0.08968  0.24050  1.0000
  C   C25       1.0  0.28824  0.10895  0.24374  1.0000
  C   C26       1.0  0.27357  0.12235  0.21682  1.0000
  H   H20       1.0  0.32665  0.09227  0.15981  1.0000
  H   H21       1.0  0.35259  0.06883  0.20732  1.0000
  H   H22       1.0  0.27767  0.11377  0.26720  1.0000
  H   H23       1.0  0.25170  0.13727  0.21960  1.0000
  N   N2        1.0  0.33069  0.17865  0.21998  1.0000
  C   C27       1.0  0.32371  0.18116  0.25190  1.0000
  C   C28       1.0  0.35480  0.15903  0.20909  1.0000
  C   C29       1.0  0.34165  0.16412  0.27391  1.0000
  C   C30       1.0  0.37353  0.14187  0.23047  1.0000
  C   C31       1.0  0.36675  0.14440  0.26306  1.0000
  C   C32       1.0  0.31004  0.19548  0.19716  1.0000
  H   H24       1.0  0.30368  0.19602  0.26048  1.0000
  H   H25       1.0  0.33537  0.16561  0.29914  1.0000
  H   H26       1.0  0.39164  0.12565  0.22178  1.0000
  H   H27       1.0  0.37970  0.13020  0.27973  1.0000
  H   H28       1.0  0.32603  0.19925  0.17497  1.0000
  Fe  Fe8       1.0  0.43968  0.02178  0.22133  1.0000
  C   C33       1.0  0.15003  0.23828  0.25007  1.0000
  C   C34       1.0  0.49834  0.01569  0.15486  1.0000
  H   H29       1.0  0.52216  0.02474  0.47466  1.0000
  C   C35       1.0  0.06353  0.23249  0.12428  1.0000
  H   H30       1.0  0.51047  0.04937  0.21707  1.0000
  Fe  Fe9       1.0  0.45916  0.02746  0.29142  1.0000
  S   S17       1.0  0.40255  0.01641  0.30841  1.0000
  C   C36       1.0  0.48896  0.02783  0.43289  1.0000
  H   H31       1.0  0.14949  0.20344  0.28244  1.0000
  C   C37       1.0  0.06670  0.29116  0.42246  1.0000
  H   H32       1.0  0.33322  0.32008  0.37686  1.0000
  H   H33       1.0  0.26629  0.25173  0.02716  1.0000
  Fe  Fe10      1.0  0.16440  0.33014  0.37624  1.0000
  C   C38       1.0  0.15852  0.27142  0.30340  1.0000
  H   H34       1.0  0.16155  0.28430  0.32439  1.0000
  C   C39       1.0  0.15949  0.31374  0.27093  1.0000
  H   H35       1.0  0.28475  0.18425  0.19068  1.0000
  H   H36       1.0  0.30258  0.21615  0.20716  1.0000
  C   C40       1.0  0.05675  0.21474  0.07099  1.0000
  C   C41       1.0  0.09352  0.31681  0.46695  1.0000
  H   H37       1.0  0.15781  0.23314  0.33048  1.0000
  C   C42       1.0  0.15162  0.22589  0.28011  1.0000
  N   N3        1.0  0.34825  0.34296  0.33510  1.0000
  N   N4        1.0  0.15740  0.28336  0.27380  1.0000
  H   H38       1.0  0.04064  0.26987  0.38356  1.0000
  H   H39       1.0  0.16392  0.32054  0.24588  1.0000
  H   H40       1.0  0.49320  0.05004  0.43001  1.0000
  H   H41       1.0  0.10871  0.22277  0.09271  1.0000
  S   S18       1.0  0.11138  0.33141  0.34950  1.0000
  H   H42       1.0  0.13383  0.32329  0.28015  1.0000
  C   C43       1.0  0.34897  0.34175  0.30254  1.0000
  S   S19       1.0  0.45745  0.02970  0.17035  1.0000
  C   C44       1.0  0.52827  0.02274  0.34974  1.0000
  H   H43       1.0  0.11711  0.32031  0.45059  1.0000
  H   H44       1.0  0.10205  0.30176  0.48564  1.0000
  H   H45       1.0  0.06874  0.20709  0.04899  1.0000
  H   H46       1.0  0.31593  0.30603  0.34055  1.0000
  H   H47       1.0  0.08734  0.33722  0.47812  1.0000
  C   C45       1.0  0.53468  0.05728  0.22996  1.0000
  H   H48       1.0  0.52663  0.06137  0.25513  1.0000
  C   C46       1.0  0.46808  0.01329  0.41085  1.0000
  C   C47       1.0  0.50547  0.01335  0.45796  1.0000
  Fe  Fe11      1.0  0.24088  0.15636  0.67598  1.0000
  S   S20       1.0  0.27598  0.18813  0.65094  1.0000
  S   S21       1.0  0.25509  0.11181  0.68940  1.0000
  Fe  Fe12      1.0  0.17448  0.19488  0.67696  1.0000
  S   S22       1.0  0.20372  0.22946  0.65168  1.0000
  S   S23       1.0  0.11897  0.20137  0.69895  1.0000
  Fe  Fe13      1.0  0.22687  0.19612  0.62031  1.0000
  S   S24       1.0  0.23633  0.19953  0.56712  1.0000
  Fe  Fe14      1.0  0.24980  0.21885  0.68424  1.0000
  S   S25       1.0  0.27625  0.25669  0.70502  1.0000
  S   S26       1.0  0.19336  0.16201  0.64276  1.0000
  S   S27       1.0  0.21892  0.18657  0.71201  1.0000
  H   H49       1.0  0.31043  0.21722  0.59253  1.0000
  S   S28       1.0  0.40875  0.07918  0.74869  1.0000
  H   H50       1.0  0.14290  0.23012  0.80398  1.0000
  C   C48       1.0  0.25205  0.30553  0.60066  1.0000
  S   S29       1.0  0.48627  0.03567  0.77955  1.0000
  N   N5        1.0  0.36651  0.03206  0.86456  1.0000
  Fe  Fe15      1.0  0.23309  0.30567  0.87083  1.0000
  S   S30       1.0  0.25490  0.26433  0.85442  1.0000
  H   H51       1.0  0.41382  0.05766  0.86917  1.0000
  S   S31       1.0  0.19809  0.33015  0.98498  1.0000
  C   C49       1.0  0.13280  0.09990  0.64865  1.0000
  C   C50       1.0  0.18058  0.25916  0.74895  1.0000
  S   S32       1.0  0.17982  0.30240  0.89699  1.0000
  C   C51       1.0  0.46768  0.05870  0.64114  1.0000
  N   N6        1.0  0.29339  0.25907  0.58439  1.0000
  H   H52       1.0  0.28735  0.27255  0.53621  1.0000
  C   C52       1.0  0.45860  0.06205  0.67323  1.0000
  H   H53       1.0  0.16114  0.33149  0.78492  1.0000
  C   C53       1.0  0.04654  0.19854  0.68422  1.0000
  C   C54       1.0  0.26055  0.30022  0.56882  1.0000
  H   H54       1.0  0.27354  0.27555  0.92941  1.0000
  C   C55       1.0  0.31568  0.23483  0.57586  1.0000
  C   C56       1.0  0.16700  0.31127  0.77456  1.0000
  H   H55       1.0  0.31418  0.29442  0.98868  1.0000
  H   H56       1.0  0.47945  0.06672  0.72062  1.0000
  N   N7        1.0  0.10143  0.11437  0.65514  1.0000
  C   C57       1.0  0.34631  0.06788  0.81552  1.0000
  C   C58       1.0  0.19706  0.24822  0.55924  1.0000
  C   C59       1.0  0.16138  0.09932  0.67057  1.0000
  C   C60       1.0  0.18988  0.29825  0.00458  1.0000
  C   C61       1.0  0.17782  0.27486  0.98802  1.0000
  H   H57       1.0  0.39706  0.02160  0.90616  1.0000
  H   H58       1.0  0.18791  0.24557  0.58359  1.0000
  H   H59       1.0  0.30026  0.04059  0.80951  1.0000
  H   H60       1.0  0.17271  0.27623  0.96276  1.0000
  H   H61       1.0  0.34508  0.24033  0.57634  1.0000
  C   C62       1.0  0.27235  0.25857  0.74672  1.0000
  C   C63       1.0  0.27161  0.28462  0.76155  1.0000
  C   C64       1.0  0.26661  0.28655  0.79464  1.0000
  C   C65       1.0  0.26291  0.26242  0.81311  1.0000
  C   C66       1.0  0.26471  0.23633  0.79838  1.0000
  C   C67       1.0  0.26903  0.23440  0.76521  1.0000
  H   H62       1.0  0.27460  0.30338  0.74742  1.0000
  H   H63       1.0  0.26643  0.30672  0.80587  1.0000
  H   H64       1.0  0.26243  0.21757  0.81259  1.0000
  H   H65       1.0  0.27061  0.21421  0.75405  1.0000
  C   C68       1.0  0.08247  0.19701  0.67260  1.0000
  C   C69       1.0  0.08884  0.19007  0.64073  1.0000
  H   H66       1.0  0.06452  0.09357  0.62445  1.0000
  H   H67       1.0  0.11648  0.18898  0.63157  1.0000
  C   C70       1.0  0.09851  0.32623  0.95330  1.0000
  C   C71       1.0  0.29813  0.10293  0.70543  1.0000
  C   C72       1.0  0.30606  0.07487  0.71219  1.0000
  C   C73       1.0  0.33999  0.06714  0.72515  1.0000
  C   C74       1.0  0.36616  0.08750  0.73153  1.0000
  C   C75       1.0  0.35818  0.11552  0.72486  1.0000
  C   C76       1.0  0.32435  0.12323  0.71182  1.0000
  H   H68       1.0  0.28591  0.05904  0.70728  1.0000
  H   H69       1.0  0.34581  0.04550  0.73022  1.0000
  H   H70       1.0  0.37824  0.13141  0.72985  1.0000
  H   H71       1.0  0.31854  0.14489  0.70679  1.0000
  S   S33       1.0  0.25893  0.33273  0.90777  1.0000
  H   H72       1.0  0.16341  0.23141  0.99128  1.0000
  C   C77       1.0  0.09776  0.12871  0.68308  1.0000
  C   C78       1.0  0.18614  0.27174  0.54168  1.0000
  C   C79       1.0  0.28390  0.29409  0.98862  1.0000
  C   C80       1.0  0.15798  0.11406  0.69899  1.0000
  Fe  Fe16      1.0  0.42894  0.03575  0.76085  1.0000
  C   C81       1.0  0.05935  0.18415  0.62072  1.0000
  C   C82       1.0  0.28156  0.27684  0.56108  1.0000
  H   H73       1.0  0.49543  0.02213  0.93557  1.0000
  C   C83       1.0  0.16611  0.28735  0.79364  1.0000
  C   C84       1.0  0.24677  0.21396  0.96146  1.0000
  C   C85       1.0  0.32460  0.04493  0.82321  1.0000
  C   C86       1.0  0.28590  0.26449  0.61574  1.0000
  C   C87       1.0  0.17247  0.24953  0.00424  1.0000
  C   C88       1.0  0.17168  0.23696  0.80118  1.0000
  H   H74       1.0  0.15970  0.28943  0.81879  1.0000
  N   N8        1.0  0.17339  0.26178  0.78083  1.0000
  C   C89       1.0  0.25140  0.22029  0.99357  1.0000
  H   H75       1.0  0.18797  0.21960  0.79087  1.0000
  H   H76       1.0  0.12796  0.32774  0.95083  1.0000
  Fe  Fe17      1.0  0.20377  0.33256  0.93134  1.0000
  C   C90       1.0  0.18230  0.28267  0.72929  1.0000
  C   C91       1.0  0.26715  0.26024  0.94766  1.0000
  H   H77       1.0  0.51142  0.05479  0.60702  1.0000
  H   H78       1.0  0.25883  0.29162  0.64924  1.0000
  H   H79       1.0  0.29581  0.25074  0.63436  1.0000
  S   S34       1.0  0.47337  0.01522  0.87050  1.0000
  H   H80       1.0  0.07320  0.14058  0.68811  1.0000
  C   C92       1.0  0.37829  0.07270  0.83246  1.0000
  H   H81       1.0  0.39608  0.08982  0.82562  1.0000
  H   H82       1.0  0.16869  0.28717  0.55272  1.0000
  C   C93       1.0  0.33525  0.02703  0.84785  1.0000
  C   C94       1.0  0.17557  0.30890  0.74226  1.0000
  H   H83       1.0  0.25008  0.31364  0.55008  1.0000
  H   H84       1.0  0.09205  0.29954  0.91262  1.0000
  H   H85       1.0  0.24442  0.20511  0.01189  1.0000
  C   C95       1.0  0.25488  0.23397  0.93829  1.0000
  H   H86       1.0  0.33898  0.08150  0.79587  1.0000
  H   H87       1.0  0.25160  0.22934  0.91317  1.0000
  H   H88       1.0  0.30844  0.22699  0.55182  1.0000
  H   H89       1.0  0.23531  0.32335  0.60691  1.0000
  C   C96       1.0  0.07226  0.11503  0.63141  1.0000
  H   H90       1.0  0.18344  0.24142  0.82499  1.0000
  C   C97       1.0  0.52276  0.06230  0.68585  1.0000
  H   H91       1.0  0.18047  0.11444  0.71569  1.0000
  H   H92       1.0  0.27382  0.31043  0.97207  1.0000
  H   H93       1.0  0.04154  0.20374  0.70891  1.0000
  C   C98       1.0  0.21985  0.22829  0.54525  1.0000
  C   C99       1.0  0.08052  0.34077  0.97742  1.0000
  H   H94       1.0  0.18919  0.28046  0.70425  1.0000
  H   H95       1.0  0.23671  0.19363  0.95460  1.0000
  H   H96       1.0  0.18564  0.23887  0.73860  1.0000
  H   H97       1.0  0.06433  0.17865  0.59610  1.0000
  C   C100      1.0  0.50451  0.05763  0.63199  1.0000
  H   H98       1.0  0.04722  0.12558  0.64052  1.0000
  N   N9        1.0  0.53146  0.05924  0.65431  1.0000
  C   C101      1.0  0.12603  0.12893  0.70530  1.0000
  S   S35       1.0  0.21611  0.34125  0.83948  1.0000
  C   C102      1.0  0.26500  0.28769  0.62434  1.0000
  C   C103      1.0  0.07838  0.31021  0.93207  1.0000
  H   H99       1.0  0.17694  0.32735  0.72734  1.0000
  H   H100      1.0  0.13608  0.08903  0.62623  1.0000
  H   H101      1.0  0.08161  0.12668  0.60993  1.0000
  H   H102      1.0  0.12347  0.14119  0.72685  1.0000
  C   C104      1.0  0.38807  0.05448  0.85707  1.0000
  S   S36       1.0  0.11045  0.33589  0.84315  1.0000
  H   H103      1.0  0.18657  0.08826  0.66520  1.0000
  H   H104      1.0  0.44634  0.05686  0.62352  1.0000
  C   C105      1.0  0.48628  0.06398  0.69569  1.0000
  H   H105      1.0  0.43019  0.06307  0.68083  1.0000
  Fe  Fe18      1.0  0.16423  0.33988  0.86834  1.0000
  N   N10       1.0  0.27075  0.26651  0.97925  1.0000
  C   C106      1.0  0.26364  0.24680  0.00209  1.0000
  H   H106      1.0  0.27335  0.29996  0.01258  1.0000
  C   C107      1.0  0.04244  0.33908  0.98001  1.0000
  C   C108      1.0  0.04035  0.30892  0.93539  1.0000
  C   C109      1.0  0.37872  0.01181  0.88844  1.0000
  S   S37       1.0  0.41380  0.51004  0.24424  1.0000
  S   S38       1.0  0.46090  0.46796  0.29053  1.0000
  Fe  Fe19      1.0  0.47261  0.50469  0.25859  1.0000
  H   H107      1.0  0.38254  0.66351  0.26326  1.0000
  Fe  Fe20      1.0  0.40175  0.47613  0.28025  1.0000
  S   S39       1.0  0.36000  0.44213  0.27153  1.0000
  C   C110      1.0  0.07685  0.35813  0.39933  1.0000
  C   C111      1.0  0.53137  0.48883  0.41971  1.0000
  C   C112      1.0  0.50105  0.55579  0.45538  1.0000
  S   S40       1.0  0.28004  0.38977  0.39256  1.0000
  S   S41       1.0  0.18465  0.35507  0.41760  1.0000
  C   C113      1.0  0.39338  0.37925  0.33398  1.0000
  C   C114      1.0  0.33559  0.42922  0.30501  1.0000
  C   C115      1.0  0.30767  0.40953  0.30085  1.0000
  C   C116      1.0  0.28967  0.39760  0.32738  1.0000
  C   C117      1.0  0.29946  0.40542  0.35825  1.0000
  C   C118      1.0  0.32694  0.42539  0.36229  1.0000
  C   C119      1.0  0.34500  0.43715  0.33586  1.0000
  H   H108      1.0  0.30023  0.40325  0.27706  1.0000
  H   H109      1.0  0.26839  0.38235  0.32397  1.0000
  H   H110      1.0  0.33474  0.43149  0.38607  1.0000
  H   H111      1.0  0.36685  0.45181  0.33954  1.0000
  H   H112      1.0  0.45505  0.53545  0.43369  1.0000
  Fe  Fe21      1.0  0.25622  0.65750  0.16309  1.0000
  S   S42       1.0  0.29210  0.61916  0.16541  1.0000
  H   H113      1.0  0.51599  0.53613  0.36079  1.0000
  H   H114      1.0  0.52131  0.47028  0.02413  1.0000
  H   H115      1.0  0.36722  0.36392  0.37649  1.0000
  C   C120      1.0  0.51442  0.50156  0.39354  1.0000
  Fe  Fe22      1.0  0.40974  0.53874  0.28628  1.0000
  S   S43       1.0  0.37707  0.57890  0.28823  1.0000
  Fe  Fe23      1.0  0.45386  0.49942  0.32942  1.0000
  S   S44       1.0  0.47448  0.48670  0.37810  1.0000
  S   S45       1.0  0.46931  0.53580  0.29863  1.0000
  S   S46       1.0  0.39390  0.50524  0.32115  1.0000
  C   C121      1.0  0.47510  0.51259  0.47440  1.0000
  C   C122      1.0  0.52707  0.55426  0.47941  1.0000
  C   C123      1.0  0.37392  0.67658  0.24354  1.0000
  H   H116      1.0  0.48371  0.47029  0.51236  1.0000
  H   H117      1.0  0.49567  0.47895  0.12196  1.0000
  C   C124      1.0  0.36958  0.36171  0.35084  1.0000
  C   C125      1.0  0.51609  0.48785  0.13733  1.0000
  S   S47       1.0  0.52628  0.50824  0.23129  1.0000
  H   H118      1.0  0.45514  0.49613  0.47168  1.0000
  C   C126      1.0  0.49534  0.48233  0.02418  1.0000
  C   C127      1.0  0.37225  0.35916  0.28492  1.0000
  H   H119      1.0  0.35781  0.67231  0.16405  1.0000
  C   C128      1.0  0.31575  0.60894  0.19985  1.0000
  C   C129      1.0  0.34172  0.58758  0.19736  1.0000
  C   C130      1.0  0.36079  0.57834  0.22427  1.0000
  C   C131      1.0  0.35405  0.59043  0.25393  1.0000
  C   C132      1.0  0.32812  0.61190  0.25648  1.0000
  C   C133      1.0  0.30883  0.62106  0.22952  1.0000
  H   H120      1.0  0.34723  0.57816  0.17444  1.0000
  H   H121      1.0  0.38090  0.56200  0.22196  1.0000
  H   H122      1.0  0.32270  0.62125  0.27944  1.0000
  H   H123      1.0  0.28872  0.63746  0.23168  1.0000
  N   N11       1.0  0.27606  0.53948  0.21631  1.0000
  C   C134      1.0  0.29180  0.51443  0.20902  1.0000
  C   C135      1.0  0.27864  0.55008  0.24642  1.0000
  C   C136      1.0  0.31051  0.49922  0.23223  1.0000
  C   C137      1.0  0.29750  0.53554  0.27011  1.0000
  C   C138      1.0  0.31321  0.50985  0.26296  1.0000
  C   C139      1.0  0.25595  0.55458  0.19159  1.0000
  H   H124      1.0  0.28996  0.50611  0.18512  1.0000
  H   H125      1.0  0.26679  0.57015  0.25215  1.0000
  H   H126      1.0  0.32303  0.47933  0.22651  1.0000
  H   H127      1.0  0.30055  0.54437  0.29370  1.0000
  H   H128      1.0  0.32763  0.49821  0.28115  1.0000
  H   H129      1.0  0.24706  0.57556  0.19967  1.0000
  H   H130      1.0  0.27368  0.55794  0.17028  1.0000
  H   H131      1.0  0.23132  0.54271  0.18459  1.0000
  N   N12       1.0  0.50106  0.51109  0.49764  1.0000
  H   H132      1.0  0.50194  0.57266  0.43814  1.0000
  H   H133      1.0  0.04936  0.67502  0.20819  1.0000
  H   H134      1.0  0.48125  0.48676  0.17926  1.0000
  C   C140      1.0  0.52646  0.53173  0.50061  1.0000
  H   H135      1.0  0.40938  0.39473  0.34643  1.0000
  S   S48       1.0  0.20383  0.65688  0.13557  1.0000
  H   H136      1.0  0.52016  0.46980  0.42957  1.0000
  C   C141      1.0  0.39463  0.37794  0.30082  1.0000
  H   H137      1.0  0.04885  0.37738  0.43894  1.0000
  H   H138      1.0  0.48973  0.48904  0.04908  1.0000
  H   H139      1.0  0.41166  0.39239  0.28739  1.0000
  C   C142      1.0  0.50783  0.49226  0.16980  1.0000
  H   H140      1.0  0.10374  0.36233  0.40852  1.0000
  C   C143      1.0  0.47471  0.53495  0.45293  1.0000
  Fe  Fe24      1.0  0.23913  0.35441  0.39229  1.0000
  C   C144      1.0  0.04576  0.36672  0.41648  1.0000
  H   H141      1.0  0.38035  0.64355  0.20911  1.0000
  C   C145      1.0  0.37267  0.66512  0.21297  1.0000
  C   C146      1.0  0.52901  0.52610  0.38082  1.0000
  C   C147      1.0  0.53428  0.50334  0.18999  1.0000
  H   H142      1.0  0.37209  0.35879  0.25910  1.0000
  S   S49       1.0  0.43592  0.51483  0.74116  1.0000
  S   S50       1.0  0.47774  0.47125  0.78938  1.0000
  Fe  Fe25      1.0  0.49325  0.50765  0.75823  1.0000
  H   H143      1.0  0.43170  0.58372  0.70700  1.0000
  Fe  Fe26      1.0  0.41982  0.48122  0.77642  1.0000
  S   S51       1.0  0.37743  0.44860  0.76461  1.0000
  C   C148      1.0  0.28191  0.48736  0.82926  1.0000
  C   C149      1.0  0.46078  0.58164  0.70255  1.0000
  N   N13       1.0  0.53541  0.57669  0.69134  1.0000
  S   S52       1.0  0.27196  0.40775  0.87574  1.0000
  C   C150      1.0  0.07193  0.34923  0.86318  1.0000
  H   H144      1.0  0.28289  0.46783  0.78348  1.0000
  C   C151      1.0  0.35127  0.43430  0.79627  1.0000
  C   C152      1.0  0.32352  0.41498  0.78976  1.0000
  C   C153      1.0  0.30005  0.40540  0.81422  1.0000
  C   C154      1.0  0.30405  0.41532  0.84528  1.0000
  C   C155      1.0  0.33237  0.43405  0.85186  1.0000
  C   C156      1.0  0.35605  0.44331  0.82757  1.0000
  H   H145      1.0  0.31974  0.40780  0.76563  1.0000
  H   H146      1.0  0.27821  0.39106  0.80886  1.0000
  H   H147      1.0  0.33566  0.44179  0.87583  1.0000
  H   H148      1.0  0.37757  0.45780  0.83307  1.0000
  H   H149      1.0  0.28711  0.51104  0.87239  1.0000
  C   C157      1.0  0.32192  0.52936  0.79997  1.0000
  S   S53       1.0  0.28733  0.61812  0.67703  1.0000
  H   H150      1.0  0.30815  0.52226  0.73541  1.0000
  H   H151      1.0  0.31300  0.48485  0.73834  1.0000
  S   S54       1.0  0.20763  0.65863  0.64431  1.0000
  S   S55       1.0  0.18374  0.37028  0.90491  1.0000
  Fe  Fe27      1.0  0.43073  0.54320  0.78323  1.0000
  S   S56       1.0  0.40433  0.58574  0.78186  1.0000
  Fe  Fe28      1.0  0.47001  0.50279  0.82814  1.0000
  S   S57       1.0  0.48769  0.48979  0.87762  1.0000
  S   S58       1.0  0.48934  0.53859  0.79817  1.0000
  S   S59       1.0  0.41084  0.51035  0.81722  1.0000
  H   H152      1.0  0.33782  0.54583  0.78877  1.0000
  Fe  Fe29      1.0  0.25972  0.66020  0.67216  1.0000
  H   H153      1.0  0.07921  0.62014  0.66594  1.0000
  C   C158      1.0  0.32117  0.50506  0.74898  1.0000
  C   C159      1.0  0.29343  0.51008  0.84714  1.0000
  H   H154      1.0  0.32276  0.54907  0.84605  1.0000
  C   C160      1.0  0.31344  0.53133  0.83242  1.0000
  H   H155      1.0  0.26687  0.47045  0.84059  1.0000
  H   H156      1.0  0.51245  0.56998  0.94731  1.0000
  Fe  Fe30      1.0  0.23762  0.36847  0.87856  1.0000
  C   C161      1.0  0.29107  0.48600  0.79691  1.0000
  H   H157      1.0  0.35130  0.50643  0.74628  1.0000
  C   C162      1.0  0.31944  0.60965  0.70669  1.0000
  C   C163      1.0  0.33477  0.58283  0.70691  1.0000
  C   C164      1.0  0.36065  0.57523  0.72992  1.0000
  C   C165      1.0  0.37142  0.59443  0.75292  1.0000
  C   C166      1.0  0.35603  0.62122  0.75281  1.0000
  C   C167      1.0  0.33010  0.62885  0.72977  1.0000
  H   H158      1.0  0.32668  0.56795  0.68902  1.0000
  H   H159      1.0  0.37250  0.55465  0.72960  1.0000
  H   H160      1.0  0.36425  0.63619  0.77056  1.0000
  H   H161      1.0  0.31844  0.64955  0.72981  1.0000
  C   C168      1.0  0.52057  0.50525  0.67036  1.0000
  H   H162      1.0  0.49360  0.50450  0.68101  1.0000
  C   C169      1.0  0.50801  0.55259  0.96344  1.0000
  N   N14       1.0  0.31108  0.50675  0.78275  1.0000
  H   H163      1.0  0.45805  0.49354  0.97065  1.0000
  C   C170      1.0  0.48173  0.53251  0.95660  1.0000
  C   C171      1.0  0.52652  0.50395  0.89588  1.0000
  C   C172      1.0  0.47771  0.50946  0.97680  1.0000
  C   C173      1.0  0.52471  0.50511  0.63698  1.0000
  C   C174      1.0  0.14278  0.65588  0.58000  1.0000
  C   C175      1.0  0.07832  0.62695  0.64128  1.0000
  C   C176      1.0  0.52279  0.58209  0.72144  1.0000
  H   H164      1.0  0.53144  0.53915  0.86429  1.0000
  H   H165      1.0  0.10231  0.37375  0.89662  1.0000
  N   N15       1.0  0.49896  0.50673  0.00332  1.0000
  C   C177      1.0  0.51149  0.57356  0.66672  1.0000
  C   C178      1.0  0.07673  0.64703  0.57933  1.0000
  C   C179      1.0  0.04513  0.62832  0.62529  1.0000
  H   H166      1.0  0.16629  0.64195  0.58507  1.0000
  C   C180      1.0  0.48535  0.58479  0.72746  1.0000
  H   H167      1.0  0.46568  0.53413  0.93502  1.0000
  H   H168      1.0  0.52144  0.56895  0.64290  1.0000
  H   H169      1.0  0.47537  0.58928  0.75131  1.0000
  H   H170      1.0  0.14041  0.65729  0.55369  1.0000
  C   C181      1.0  0.07553  0.36720  0.88909  1.0000
  C   C182      1.0  0.47382  0.57578  0.67200  1.0000
  N   N16       1.0  0.10924  0.64538  0.59509  1.0000
  H   H171      1.0  0.13570  0.63520  0.63875  1.0000
  H   H172      1.0  0.14917  0.67701  0.58911  1.0000
  H   H173      1.0  0.50079  0.50404  0.62210  1.0000
  H   H174      1.0  0.04721  0.39063  0.92541  1.0000
  C   C183      1.0  0.04431  0.37681  0.90532  1.0000
  C   C184      1.0  0.11028  0.63559  0.62573  1.0000
  H   H175      1.0  0.45485  0.57300  0.65256  1.0000
  H   H176      1.0  0.49331  0.49453  0.54408  1.0000
  H   H177      1.0  0.07552  0.65585  0.55556  1.0000
  H   H178      1.0  0.52654  0.44439  0.84965  1.0000
  H   H179      1.0  0.52862  0.47145  0.93138  1.0000
  C   C185      1.0  0.52959  0.54959  0.99047  1.0000
  C   C186      1.0  0.52451  0.52646  0.01036  1.0000
  H   H180      1.0  0.09608  0.35346  0.99380  1.0000
  C   C187      1.0  0.04429  0.63828  0.59406  1.0000
  H   H181      1.0  0.53004  0.47904  0.52167  1.0000
  C   C188      1.0  0.50182  0.48753  0.51993  1.0000
  H   H182      1.0  0.47296  0.46827  0.01673  1.0000
  H   H183      1.0  0.53628  0.98368  0.50169  1.0000
  S   S60       1.0  0.19736  0.72411  0.14999  1.0000
  S   S61       1.0  0.21732  0.70081  0.06001  1.0000
  H   H184      1.0  0.18496  0.77883  0.33048  1.0000
  Fe  Fe31      1.0  0.24954  0.71899  0.17706  1.0000
  S   S62       1.0  0.27325  0.75644  0.20132  1.0000
  H   H185      1.0  0.44840  0.97299  0.39664  1.0000
  S   S63       1.0  0.46388  0.99212  0.25671  1.0000
  H   H186      1.0  0.15231  0.73652  0.21372  1.0000
  C   C189      1.0  0.06633  0.70493  0.12352  1.0000
  Fe  Fe32      1.0  0.40537  0.98315  0.27087  1.0000
  S   S64       1.0  0.38666  0.93821  0.27413  1.0000
  Fe  Fe33      1.0  0.25139  0.79316  0.37501  1.0000
  S   S65       1.0  0.22974  0.82942  0.34705  1.0000
  S   S66       1.0  0.27591  0.75521  0.35184  1.0000
  Fe  Fe34      1.0  0.22329  0.81515  0.43825  1.0000
  S   S67       1.0  0.19892  0.85303  0.41504  1.0000
  S   S68       1.0  0.21813  0.81219  0.49193  1.0000
  Fe  Fe35      1.0  0.17969  0.82378  0.37741  1.0000
  S   S69       1.0  0.12581  0.82364  0.35192  1.0000
  Fe  Fe36      1.0  0.25138  0.85537  0.38697  1.0000
  S   S70       1.0  0.27543  0.89876  0.38250  1.0000
  S   S71       1.0  0.19963  0.78566  0.40269  1.0000
  S   S72       1.0  0.27733  0.81945  0.41294  1.0000
  C   C190      1.0  0.08722  0.82883  0.37645  1.0000
  C   C191      1.0  0.20998  0.91134  0.32707  1.0000
  C   C192      1.0  0.09105  0.83568  0.40860  1.0000
  H   H187      1.0  0.39391  0.71603  0.28918  1.0000
  H   H188      1.0  0.11790  0.83654  0.41907  1.0000
  C   C193      1.0  0.35538  0.92751  0.30414  1.0000
  C   C194      1.0  0.34352  0.89968  0.30513  1.0000
  C   C195      1.0  0.31895  0.89050  0.32893  1.0000
  C   C196      1.0  0.30622  0.90912  0.35202  1.0000
  C   C197      1.0  0.31785  0.93696  0.35086  1.0000
  C   C198      1.0  0.34226  0.94615  0.32702  1.0000
  H   H189      1.0  0.35352  0.88512  0.28752  1.0000
  H   H190      1.0  0.31018  0.86901  0.32958  1.0000
  H   H191      1.0  0.30805  0.95151  0.36858  1.0000
  H   H192      1.0  0.35101  0.96763  0.32645  1.0000
  H   H193      1.0  0.47824  0.94829  0.44137  1.0000
  C   C199      1.0  0.22496  0.73298  0.04088  1.0000
  C   C200      1.0  0.23020  0.75736  0.05831  1.0000
  H   H194      1.0  0.37680  0.95046  0.20481  1.0000
  N   N17       1.0  0.40282  0.96599  0.16253  1.0000
  C   C201      1.0  0.21977  0.75469  0.49434  1.0000
  C   C202      1.0  0.13851  0.74830  0.06633  1.0000
  H   H195      1.0  0.23185  0.75640  0.08399  1.0000
  H   H196      1.0  0.06319  0.84750  0.45193  1.0000
  H   H197      1.0  0.22322  0.75517  0.46874  1.0000
  C   C203      1.0  0.35084  0.70910  0.19285  1.0000
  C   C204      1.0  0.27279  0.75586  0.24317  1.0000
  C   C205      1.0  0.27201  0.73069  0.26003  1.0000
  C   C206      1.0  0.27327  0.73066  0.29339  1.0000
  C   C207      1.0  0.27491  0.75580  0.31007  1.0000
  C   C208      1.0  0.27604  0.78094  0.29322  1.0000
  C   C209      1.0  0.27517  0.78095  0.25983  1.0000
  H   H198      1.0  0.27168  0.71121  0.24746  1.0000
  H   H199      1.0  0.27281  0.71114  0.30634  1.0000
  H   H200      1.0  0.27869  0.80037  0.30584  1.0000
  H   H201      1.0  0.27659  0.80047  0.24690  1.0000
  S   S73       1.0  0.12701  0.68014  0.19883  1.0000
  C   C210      1.0  0.48092  0.97071  0.43936  1.0000
  C   C211      1.0  0.18216  0.76205  0.31349  1.0000
  H   H202      1.0  0.12358  0.70123  0.13436  1.0000
  H   H203      1.0  0.34119  0.72205  0.17339  1.0000
  N   N18       1.0  0.17250  0.74679  0.25980  1.0000
  H   H204      1.0  0.48176  0.91565  0.18287  1.0000
  C   C212      1.0  0.37353  0.98568  0.15484  1.0000
  H   H205      1.0  0.50730  0.98727  0.19377  1.0000
  N   N19       1.0  0.50131  0.98514  0.46090  1.0000
  C   C213      1.0  0.17530  0.71961  0.26940  1.0000
  C   C214      1.0  0.14243  0.77718  0.06702  1.0000
  H   H206      1.0  0.34581  0.74171  0.22725  1.0000
  H   H207      1.0  0.22536  0.71006  0.49788  1.0000
  H   H208      1.0  0.49712  0.96135  0.50355  1.0000
  C   C215      1.0  0.16749  0.75336  0.22602  1.0000
  H   H209      1.0  0.14523  0.88719  0.31913  1.0000
  H   H210      1.0  0.34898  0.70183  0.29748  1.0000
  C   C216      1.0  0.35326  0.72009  0.22355  1.0000
  Fe  Fe37      1.0  0.22388  0.69676  0.11332  1.0000
  S   S74       1.0  0.27798  0.69546  0.13798  1.0000
  H   H211      1.0  0.09430  0.88418  0.35780  1.0000
  S   S75       1.0  0.23190  0.68098  0.20407  1.0000
  C   C217      1.0  0.06006  0.84190  0.42717  1.0000
  C   C218      1.0  0.51833  0.97004  0.48733  1.0000
  C   C219      1.0  0.51729  0.99480  0.17104  1.0000
  C   C220      1.0  0.45947  0.92960  0.17701  1.0000
  H   H212      1.0  0.17273  0.70287  0.25226  1.0000
  H   H213      1.0  0.50612  0.98396  0.33317  1.0000
  C   C221      1.0  0.36523  0.71508  0.28087  1.0000
  C   C222      1.0  0.43302  0.96486  0.14321  1.0000
  H   H214      1.0  0.18437  0.69150  0.30885  1.0000
  H   H215      1.0  0.07111  0.71317  0.09986  1.0000
  H   H216      1.0  0.19457  0.75595  0.21429  1.0000
  H   H217      1.0  0.17499  0.78947  0.27368  1.0000
  H   H218      1.0  0.53566  0.95285  0.47797  1.0000
  C   C223      1.0  0.46391  0.98455  0.41409  1.0000
  H   H219      1.0  0.10175  0.90300  0.41229  1.0000
  C   C224      1.0  0.18171  0.71303  0.30138  1.0000
  C   C225      1.0  0.23194  0.78318  0.04250  1.0000
  C   C226      1.0  0.17629  0.76791  0.28130  1.0000
  H   H220      1.0  0.19955  0.91527  0.30271  1.0000
  H   H221      1.0  0.04917  0.82268  0.33823  1.0000
  H   H222      1.0  0.15153  0.77282  0.22291  1.0000
  C   C227      1.0  0.30593  0.76984  0.51528  1.0000
  C   C228      1.0  0.12360  0.90529  0.39485  1.0000
  C   C229      1.0  0.05226  0.82774  0.36314  1.0000
  N   N20       1.0  0.17999  0.90981  0.35035  1.0000
  C   C230      1.0  0.18437  0.92036  0.38032  1.0000
  C   C231      1.0  0.14827  0.89662  0.34238  1.0000
  C   C232      1.0  0.15630  0.91823  0.40301  1.0000
  H   H223      1.0  0.23498  0.80209  0.05614  1.0000
  C   C233      1.0  0.11941  0.89465  0.36427  1.0000
  H   H224      1.0  0.48574  0.94599  0.13476  1.0000
  H   H225      1.0  0.20991  0.93007  0.38703  1.0000
  H   H226      1.0  0.14610  0.81462  0.03905  1.0000
  H   H227      1.0  0.16022  0.92608  0.42692  1.0000
  H   H228      1.0  0.22565  0.89153  0.32728  1.0000
  C   C234      1.0  0.18521  0.73446  0.32351  1.0000
  H   H229      1.0  0.30738  0.76936  0.48945  1.0000
  H   H230      1.0  0.43552  0.97874  0.12285  1.0000
  H   H231      1.0  0.22931  0.92845  0.33278  1.0000
  C   C235      1.0  0.46161  0.94648  0.14995  1.0000
  C   C236      1.0  0.13365  0.73492  0.03728  1.0000
  H   H232      1.0  0.14732  0.78766  0.08939  1.0000
  C   C237      1.0  0.40042  0.94941  0.18907  1.0000
  H   H233      1.0  0.36457  0.98284  0.12986  1.0000
  C   C238      1.0  0.42872  0.93105  0.19674  1.0000
  C   C239      1.0  0.09604  0.69829  0.14307  1.0000
  H   H234      1.0  0.42683  0.91830  0.21812  1.0000
  Fe  Fe38      1.0  0.18154  0.68424  0.17422  1.0000
  C   C240      1.0  0.52382  0.99386  0.35025  1.0000
  C   C241      1.0  0.09000  0.68772  0.17374  1.0000
  H   H235      1.0  0.34926  0.98290  0.17059  1.0000
  H   H236      1.0  0.19100  0.72981  0.34830  1.0000
  C   C242      1.0  0.05412  0.68345  0.18461  1.0000
  C   C243      1.0  0.22101  0.72919  0.51090  1.0000
  N   N21       1.0  0.36394  0.70369  0.24853  1.0000
  H   H237      1.0  0.14053  0.73613  0.08808  1.0000
  C   C244      1.0  0.21520  0.77956  0.51111  1.0000
  H   H238      1.0  0.13207  0.71236  0.03652  1.0000
  H   H239      1.0  0.35344  0.73642  0.28213  1.0000
  C   C245      1.0  0.14167  0.79230  0.03845  1.0000
  C   C246      1.0  0.36031  0.68134  0.18762  1.0000
  H   H240      1.0  0.38354  0.00739  0.15776  1.0000
  H   H241      1.0  0.29776  0.81419  0.51731  1.0000
  S   S76       1.0  0.38160  0.01009  0.23236  1.0000
  H   H242      1.0  0.53858  0.95536  0.37347  1.0000
  H   H243      1.0  0.15654  0.78612  0.96299  1.0000
  S   S77       1.0  0.20243  0.72632  0.65154  1.0000
  C   C247      1.0  0.07142  0.70515  0.62277  1.0000
  C   C248      1.0  0.10027  0.70178  0.64425  1.0000
  Fe  Fe39      1.0  0.25446  0.72279  0.67905  1.0000
  S   S78       1.0  0.27560  0.76376  0.69664  1.0000
  H   H244      1.0  0.18096  0.71778  0.83723  1.0000
  S   S79       1.0  0.47887  0.96821  0.78928  1.0000
  C   C249      1.0  0.09326  0.69255  0.67532  1.0000
  C   C250      1.0  0.29238  0.77125  0.61577  1.0000
  Fe  Fe40      1.0  0.42193  0.97292  0.77026  1.0000
  S   S80       1.0  0.38389  0.93592  0.76645  1.0000
  Fe  Fe41      1.0  0.25568  0.80312  0.87213  1.0000
  S   S81       1.0  0.23058  0.83914  0.84644  1.0000
  S   S82       1.0  0.28693  0.76937  0.84670  1.0000
  Fe  Fe42      1.0  0.22787  0.82204  0.93718  1.0000
  S   S83       1.0  0.20013  0.85961  0.91623  1.0000
  S   S84       1.0  0.22602  0.81765  0.99085  1.0000
  Fe  Fe43      1.0  0.18196  0.83042  0.87789  1.0000
  S   S85       1.0  0.12713  0.82634  0.85426  1.0000
  Fe  Fe44      1.0  0.25152  0.86466  0.88698  1.0000
  S   S86       1.0  0.28175  0.90573  0.88416  1.0000
  S   S87       1.0  0.20571  0.79241  0.90098  1.0000
  S   S88       1.0  0.28045  0.82904  0.91063  1.0000
  C   C251      1.0  0.08857  0.82977  0.87927  1.0000
  C   C252      1.0  0.09226  0.83357  0.91210  1.0000
  H   H245      1.0  0.17030  0.79776  0.73375  1.0000
  H   H246      1.0  0.11916  0.83487  0.92240  1.0000
  S   S89       1.0  0.23557  0.68752  0.71033  1.0000
  C   C253      1.0  0.35339  0.92926  0.79831  1.0000
  C   C254      1.0  0.32787  0.90760  0.79572  1.0000
  C   C255      1.0  0.30542  0.90027  0.82177  1.0000
  C   C256      1.0  0.30802  0.91489  0.85039  1.0000
  C   C257      1.0  0.33289  0.93699  0.85271  1.0000
  C   C258      1.0  0.35572  0.94400  0.82688  1.0000
  H   H247      1.0  0.32589  0.89617  0.77366  1.0000
  H   H248      1.0  0.28614  0.88335  0.81971  1.0000
  H   H249      1.0  0.33511  0.94822  0.87489  1.0000
  H   H250      1.0  0.37572  0.96030  0.82934  1.0000
  H   H251      1.0  0.07707  0.71177  0.59858  1.0000
  C   C259      1.0  0.21793  0.72845  0.54424  1.0000
  C   C260      1.0  0.21219  0.75323  0.56087  1.0000
  S   S90       1.0  0.28274  0.69561  0.64300  1.0000
  H   H252      1.0  0.16460  0.81466  0.78974  1.0000
  H   H253      1.0  0.40488  0.86720  0.78606  1.0000
  Fe  Fe45      1.0  0.22872  0.69607  0.61809  1.0000
  H   H254      1.0  0.20930  0.75285  0.58648  1.0000
  S   S91       1.0  0.22364  0.69653  0.56448  1.0000
  H   H255      1.0  0.33290  0.83408  0.77895  1.0000
  H   H256      1.0  0.30248  0.72664  0.57927  1.0000
  C   C261      1.0  0.27934  0.76524  0.73825  1.0000
  C   C262      1.0  0.28832  0.74151  0.75592  1.0000
  C   C263      1.0  0.29111  0.74310  0.78919  1.0000
  C   C264      1.0  0.28380  0.76816  0.80497  1.0000
  C   C265      1.0  0.27459  0.79181  0.78726  1.0000
  C   C266      1.0  0.27294  0.79047  0.75393  1.0000
  H   H257      1.0  0.29393  0.72207  0.74391  1.0000
  H   H258      1.0  0.29874  0.72480  0.80272  1.0000
  H   H259      1.0  0.26967  0.81134  0.79905  1.0000
  H   H260      1.0  0.26613  0.80890  0.74032  1.0000
  H   H261      1.0  0.49043  0.99257  0.67316  1.0000
  N   N22       1.0  0.19524  0.74937  0.80403  1.0000
  Fe  Fe46      1.0  0.49428  0.99765  0.74925  1.0000
  H   H262      1.0  0.21914  0.71558  0.99398  1.0000
  H   H263      1.0  0.19084  0.74920  0.72357  1.0000
  C   C267      1.0  0.22884  0.78472  0.00924  1.0000
  H   H264      1.0  0.42313  0.89967  0.82833  1.0000
  C   C268      1.0  0.17382  0.79360  0.78478  1.0000
  H   H265      1.0  0.35044  0.80408  0.80011  1.0000
  H   H266      1.0  0.49388  0.99225  0.61416  1.0000
  H   H267      1.0  0.10867  0.79420  0.96954  1.0000
  C   C269      1.0  0.19724  0.73961  0.77350  1.0000
  H   H268      1.0  0.05166  0.68043  0.70916  1.0000
  C   C270      1.0  0.13634  0.79485  0.98012  1.0000
  H   H269      1.0  0.12797  0.70585  0.63659  1.0000
  H   H270      1.0  0.29119  0.81484  0.57595  1.0000
  C   C271      1.0  0.21077  0.77868  0.54434  1.0000
  H   H271      1.0  0.21342  0.74308  0.85176  1.0000
  C   C272      1.0  0.22298  0.73444  0.00754  1.0000
  N   N23       1.0  0.29835  0.77095  0.58121  1.0000
  H   H272      1.0  0.06393  0.83943  0.95688  1.0000
  C   C273      1.0  0.18824  0.75682  0.74779  1.0000
  C   C274      1.0  0.51670  0.99158  0.66133  1.0000
  H   H273      1.0  0.37920  0.82229  0.77245  1.0000
  C   C275      1.0  0.30064  0.79507  0.53096  1.0000
  H   H274      1.0  0.31010  0.75574  0.62789  1.0000
  C   C276      1.0  0.18302  0.77580  0.80990  1.0000
  C   C277      1.0  0.17675  0.78406  0.75351  1.0000
  C   C278      1.0  0.22510  0.76023  0.99170  1.0000
  H   H275      1.0  0.22831  0.71744  0.82419  1.0000
  H   H276      1.0  0.20701  0.79787  0.55737  1.0000
  N   N24       1.0  0.13700  0.77898  0.01002  1.0000
  C   C279      1.0  0.51875  0.99140  0.62786  1.0000
  H   H277      1.0  0.18055  0.78339  0.83408  1.0000
  C   C280      1.0  0.30719  0.74514  0.53284  1.0000
  C   C281      1.0  0.29667  0.79524  0.56413  1.0000
  H   H278      1.0  0.22297  0.76120  0.96607  1.0000
  N   N25       1.0  0.36921  0.84358  0.81628  1.0000
  C   C282      1.0  0.35357  0.84120  0.84587  1.0000
  C   C283      1.0  0.39396  0.86425  0.80994  1.0000
  C   C284      1.0  0.36316  0.85956  0.87021  1.0000
  C   C285      1.0  0.40440  0.88277  0.83381  1.0000
  C   C286      1.0  0.38877  0.88041  0.86409  1.0000
  H   H279      1.0  0.26344  0.76626  0.62139  1.0000
  H   H280      1.0  0.33308  0.82535  0.85062  1.0000
  Fe  Fe47      1.0  0.18550  0.68893  0.67982  1.0000
  H   H281      1.0  0.34993  0.85826  0.89338  1.0000
  H   H282      1.0  0.29884  0.79185  0.62628  1.0000
  H   H283      1.0  0.39547  0.89532  0.88247  1.0000
  C   C287      1.0  0.30312  0.74606  0.56598  1.0000
  H   H284      1.0  0.14409  0.81701  0.98365  1.0000
  C   C288      1.0  0.06102  0.83614  0.93156  1.0000
  H   H285      1.0  0.20652  0.71856  0.76884  1.0000
  C   C289      1.0  0.35736  0.82512  0.79066  1.0000
  H   H286      1.0  0.05065  0.82591  0.84060  1.0000
  C   C290      1.0  0.20473  0.73094  0.83062  1.0000
  H   H287      1.0  0.13003  0.74006  0.98662  1.0000
  C   C291      1.0  0.13284  0.75068  0.00918  1.0000
  H   H288      1.0  0.31897  0.00862  0.85288  1.0000
  S   S92       1.0  0.43824  0.99958  0.72798  1.0000
  C   C292      1.0  0.51358  0.00516  0.89068  1.0000
  C   C293      1.0  0.05717  0.68760  0.68514  1.0000
  H   H289      1.0  0.35520  0.00260  0.90159  1.0000
  C   C294      1.0  0.05358  0.82848  0.86601  1.0000
  S   S93       1.0  0.40802  0.00934  0.80097  1.0000
  S   S94       1.0  0.12929  0.68567  0.70163  1.0000
  H   H290      1.0  0.53938  0.98630  0.84994  1.0000
  H   H291      1.0  0.39434  0.99488  0.87651  1.0000
  Fe  Fe48      1.0  0.46610  0.00668  0.81761  1.0000
  C   C295      1.0  0.51727  0.01140  0.92321  1.0000
  H   H292      1.0  0.30958  0.72528  0.52079  1.0000
  Fe  Fe49      1.0  0.85234  0.21800  0.12278  1.0000
  S   S95       1.0  0.85947  0.17547  0.10141  1.0000
  S   S96       1.0  0.83742  0.25688  0.09544  1.0000
  Fe  Fe50      1.0  0.87323  0.19920  0.18931  1.0000
  S   S97       1.0  0.88242  0.15522  0.17328  1.0000
  S   S98       1.0  0.88294  0.20698  0.24165  1.0000
  Fe  Fe51      1.0  0.91028  0.17417  0.13094  1.0000
  S   S99       1.0  0.96264  0.15789  0.10960  1.0000
  Fe  Fe52      1.0  0.83069  0.16017  0.14542  1.0000
  S   S100      1.0  0.79075  0.12419  0.14878  1.0000
  S   S101      1.0  0.90555  0.21783  0.14899  1.0000
  S   S102      1.0  0.81913  0.20292  0.16486  1.0000
  H   H293      1.0  0.97992  0.34364  0.36644  1.0000
  N   N26       1.0  0.56441  0.03693  0.22779  1.0000
  C   C296      1.0  0.85533  0.28505  0.04077  1.0000
  C   C297      1.0  0.86697  0.23551  0.04024  1.0000
  H   H294      1.0  0.88078  0.30936  0.48867  1.0000
  H   H295      1.0  0.87716  0.08793  0.04345  1.0000
  H   H296      1.0  0.80292  0.27938  0.33841  1.0000
  S   S103      1.0  0.87455  0.32792  0.30013  1.0000
  Fe  Fe53      1.0  0.86199  0.31045  0.42001  1.0000
  S   S104      1.0  0.84620  0.27070  0.44519  1.0000
  H   H297      1.0  0.92153  0.11082  0.13386  1.0000
  S   S105      1.0  0.70711  0.07491  0.02957  1.0000
  N   N27       1.0  0.77243  0.33863  0.49330  1.0000
  S   S106      1.0  0.91183  0.31303  0.38880  1.0000
  H   H298      1.0  0.75350  0.12273  0.03622  1.0000
  H   H299      1.0  0.57699  0.04743  0.17948  1.0000
  S   S107      1.0  0.69916  0.06440  0.49951  1.0000
  S   S108      1.0  0.82463  0.32767  0.38278  1.0000
  C   C298      1.0  0.85532  0.25927  0.05653  1.0000
  H   H300      1.0  0.82905  0.22925  0.49226  1.0000
  H   H301      1.0  0.77372  0.01305  0.41586  1.0000
  C   C299      1.0  0.85410  0.26953  0.48645  1.0000
  C   C300      1.0  0.02619  0.17719  0.18482  1.0000
  Fe  Fe54      1.0  0.87531  0.33417  0.35352  1.0000
  H   H302      1.0  0.86702  0.21557  0.05208  1.0000
  H   H303      1.0  0.83212  0.04125  0.05375  1.0000
  H   H304      1.0  0.78498  0.27365  0.23859  1.0000
  C   C301      1.0  0.78610  0.30946  0.28662  1.0000
  C   C302      1.0  0.88537  0.24113  0.25664  1.0000
  C   C303      1.0  0.89152  0.24497  0.28929  1.0000
  C   C304      1.0  0.88940  0.27165  0.30281  1.0000
  C   C305      1.0  0.88146  0.29466  0.28362  1.0000
  C   C306      1.0  0.87669  0.29097  0.25075  1.0000
  C   C307      1.0  0.87852  0.26425  0.23727  1.0000
  H   H305      1.0  0.89691  0.22713  0.30434  1.0000
  H   H306      1.0  0.89324  0.27433  0.32812  1.0000
  H   H307      1.0  0.87077  0.30876  0.23578  1.0000
  H   H308      1.0  0.87380  0.26146  0.21208  1.0000
  C   C308      1.0  0.72933  0.08900  0.06304  1.0000
  C   C309      1.0  0.72623  0.07653  0.09308  1.0000
  C   C310      1.0  0.74480  0.08786  0.11918  1.0000
  C   C311      1.0  0.76681  0.11158  0.11548  1.0000
  C   C312      1.0  0.77001  0.12405  0.08544  1.0000
  C   C313      1.0  0.75106  0.11291  0.05937  1.0000
  H   H309      1.0  0.70937  0.05827  0.09627  1.0000
  H   H310      1.0  0.74215  0.07814  0.14238  1.0000
  H   H311      1.0  0.78686  0.14236  0.08236  1.0000
  Fe  Fe55      1.0  0.66488  0.02543  0.50547  1.0000
  H   H312      1.0  0.84646  0.30352  0.05330  1.0000
  C   C314      1.0  0.00043  0.16226  0.13464  1.0000
  C   C315      1.0  0.99566  0.17125  0.16601  1.0000
  N   N28       1.0  0.02642  0.23265  0.12828  1.0000
  H   H313      1.0  0.96845  0.17401  0.17572  1.0000
  C   C316      1.0  0.01890  0.21534  0.07511  1.0000
  H   H314      1.0  0.02233  0.18447  0.20897  1.0000
  C   C317      1.0  0.90067  0.10051  0.11997  1.0000
  H   H315      1.0  0.79207  0.31446  0.45423  1.0000
  H   H316      1.0  0.75672  0.31376  0.28273  1.0000
  H   H317      1.0  0.79492  0.32027  0.30865  1.0000
  C   C318      1.0  0.00411  0.22468  0.10397  1.0000
  H   H318      1.0  0.97799  0.27798  0.40477  1.0000
  N   N29       1.0  0.79257  0.27937  0.28845  1.0000
  C   C319      1.0  0.87548  0.08756  0.06924  1.0000
  C   C320      1.0  0.76944  0.32899  0.46035  1.0000
  H   H319      1.0  0.02904  0.23825  0.17866  1.0000
  H   H320      1.0  0.81178  0.20029  0.29187  1.0000
  C   C321      1.0  0.58366  0.03448  0.19987  1.0000
  H   H321      1.0  0.81441  0.22875  0.34129  1.0000
  C   C322      1.0  0.87027  0.29195  0.50210  1.0000
  C   C323      1.0  0.00154  0.28543  0.41772  1.0000
  C   C324      1.0  0.87145  0.08729  0.13515  1.0000
  C   C325      1.0  0.02738  0.31050  0.46180  1.0000
  C   C326      1.0  0.80038  0.26699  0.31702  1.0000
  C   C327      1.0  0.79032  0.26376  0.26135  1.0000
  C   C328      1.0  0.80680  0.23830  0.31884  1.0000
  C   C329      1.0  0.79656  0.23504  0.26231  1.0000
  C   C330      1.0  0.80507  0.22231  0.29122  1.0000
  H   H322      1.0  0.80866  0.07391  0.04665  1.0000
  C   C331      1.0  0.57159  0.01962  0.25295  1.0000
  H   H323      1.0  0.03962  0.15142  0.09821  1.0000
  C   C332      1.0  0.54359  0.01387  0.11188  1.0000
  H   H324      1.0  0.55519  0.05765  0.37154  1.0000
  H   H325      1.0  0.76091  0.30224  0.04998  1.0000
  C   C333      1.0  0.84483  0.07411  0.11688  1.0000
  S   S109      1.0  0.60416  0.02246  0.49787  1.0000
  H   H326      1.0  0.82188  0.06435  0.12899  1.0000
  H   H327      1.0  0.80253  0.31873  0.26686  1.0000
  C   C334      1.0  0.81974  0.05981  0.06527  1.0000
  N   N30       1.0  0.84710  0.07436  0.08434  1.0000
  C   C335      1.0  0.01043  0.24241  0.15836  1.0000
  H   H328      1.0  0.86888  0.08781  0.16091  1.0000
  H   H329      1.0  0.92504  0.11161  0.07492  1.0000
  H   H330      1.0  0.58693  0.02907  0.41238  1.0000
  H   H331      1.0  0.79666  0.22290  0.24054  1.0000
  C   C336      1.0  0.90266  0.10086  0.08681  1.0000
  H   H332      1.0  0.96947  0.30481  0.45476  1.0000
  Fe  Fe56      1.0  0.68142  0.03206  0.03322  1.0000
  H   H333      1.0  0.75047  0.02777  0.46860  1.0000
  C   C337      1.0  0.84152  0.24668  0.50425  1.0000
  H   H334      1.0  0.00103  0.20789  0.05651  1.0000
  S   S110      1.0  0.62080  0.02412  0.02992  1.0000
  H   H335      1.0  0.98461  0.23118  0.16392  1.0000
  H   H336      1.0  0.55594  0.02122  0.27495  1.0000
  H   H337      1.0  0.74302  0.31820  0.45693  1.0000
  C   C338      1.0  0.76700  0.29547  0.02591  1.0000
  H   H338      1.0  0.97468  0.22449  0.10718  1.0000
  C   C339      1.0  0.99677  0.30033  0.44588  1.0000
  H   H339      1.0  0.00464  0.26506  0.15689  1.0000
  H   H340      1.0  0.55373  0.02141  0.08917  1.0000
  H   H341      1.0  0.75335  0.10737  0.50284  1.0000
  C   C340      1.0  0.03580  0.15850  0.12243  1.0000
  C   C341      1.0  0.56946  0.01918  0.39511  1.0000
  H   H342      1.0  0.02332  0.32269  0.48321  1.0000
  H   H343      1.0  0.03475  0.32874  0.33592  1.0000
  H   H344      1.0  0.54305  0.07748  0.21923  1.0000
  C   C342      1.0  0.78669  0.32134  0.51599  1.0000
  H   H345      1.0  0.77407  0.25257  0.04031  1.0000
  H   H346      1.0  0.79560  0.30053  0.50976  1.0000
  C   C343      1.0  0.55146  0.03531  0.37196  1.0000
  C   C344      1.0  0.03669  0.28078  0.40588  1.0000
  C   C345      1.0  0.77425  0.26726  0.02056  1.0000
  H   H347      1.0  0.62603  0.01230  0.17431  1.0000
  H   H348      1.0  0.79617  0.05268  0.08000  1.0000
  C   C346      1.0  0.03794  0.33933  0.35841  1.0000
  C   C347      1.0  0.61141  0.01461  0.19680  1.0000
  Fe  Fe57      1.0  0.87316  0.23159  0.61943  1.0000
  S   S111      1.0  0.88446  0.19216  0.59321  1.0000
  S   S112      1.0  0.85790  0.27161  0.59503  1.0000
  Fe  Fe58      1.0  0.88834  0.20608  0.68365  1.0000
  S   S113      1.0  0.90125  0.16460  0.66233  1.0000
  S   S114      1.0  0.89256  0.20851  0.73713  1.0000
  Fe  Fe59      1.0  0.93229  0.18889  0.62592  1.0000
  S   S115      1.0  0.98728  0.17498  0.60791  1.0000
  Fe  Fe60      1.0  0.84883  0.16837  0.63094  1.0000
  S   S116      1.0  0.78385  0.11638  0.61714  1.0000
  S   S117      1.0  0.92352  0.23006  0.64947  1.0000
  S   S118      1.0  0.83704  0.21110  0.65571  1.0000
  C   C348      1.0  0.62599  0.04710  0.91333  1.0000
  N   N31       1.0  0.76881  0.31429  0.00137  1.0000
  H   H349      1.0  0.97539  0.23395  0.77095  1.0000
  C   C349      1.0  0.81423  0.16131  0.59499  1.0000
  H   H350      1.0  0.78425  0.01546  0.53811  1.0000
  C   C350      1.0  0.80369  0.15591  0.65487  1.0000
  C   C351      1.0  0.59731  0.06198  0.92741  1.0000
  S   S119      1.0  0.86465  0.32425  0.80476  1.0000
  Fe  Fe61      1.0  0.87820  0.30440  0.92472  1.0000
  S   S120      1.0  0.88501  0.26371  0.95075  1.0000
  C   C352      1.0  0.78635  0.27786  0.96529  1.0000
  H   H351      1.0  0.73985  0.17495  0.61241  1.0000
  C   C353      1.0  0.96699  0.27776  0.78029  1.0000
  S   S121      1.0  0.91870  0.31451  0.88608  1.0000
  H   H352      1.0  0.75563  0.19564  0.64536  1.0000
  H   H353      1.0  0.76943  0.20471  0.60556  1.0000
  C   C354      1.0  0.84420  0.13949  0.59571  1.0000
  S   S122      1.0  0.82977  0.31483  0.89455  1.0000
  C   C355      1.0  0.85887  0.26961  0.55328  1.0000
  H   H354      1.0  0.79163  0.23693  0.98590  1.0000
  H   H355      1.0  0.85777  0.13309  0.57392  1.0000
  C   C356      1.0  0.87582  0.26288  0.99192  1.0000
  H   H356      1.0  0.57013  0.06111  0.91730  1.0000
  H   H357      1.0  0.97122  0.34025  0.97306  1.0000
  H   H358      1.0  0.83361  0.22922  0.55124  1.0000
  Fe  Fe62      1.0  0.87053  0.32918  0.85804  1.0000
  H   H359      1.0  0.57377  0.04838  0.62121  1.0000
  H   H360      1.0  0.88518  0.21870  0.99532  1.0000
  C   C357      1.0  0.88171  0.24019  0.75598  1.0000
  C   C358      1.0  0.88504  0.24227  0.78918  1.0000
  C   C359      1.0  0.87910  0.26784  0.80459  1.0000
  C   C360      1.0  0.86969  0.29140  0.78680  1.0000
  C   C361      1.0  0.86583  0.28920  0.75368  1.0000
  C   C362      1.0  0.87179  0.26366  0.73828  1.0000
  H   H361      1.0  0.89266  0.22413  0.80297  1.0000
  H   H362      1.0  0.88202  0.26936  0.83014  1.0000
  H   H363      1.0  0.85847  0.30738  0.73986  1.0000
  H   H364      1.0  0.86919  0.26224  0.71269  1.0000
  H   H365      1.0  0.62052  0.03460  0.89243  1.0000
  C   C363      1.0  0.71725  0.06872  0.56316  1.0000
  C   C364      1.0  0.73636  0.08055  0.58867  1.0000
  C   C365      1.0  0.76166  0.10209  0.58351  1.0000
  C   C366      1.0  0.76797  0.11152  0.55233  1.0000
  H   H366      1.0  0.69349  0.06229  0.96414  1.0000
  H   H367      1.0  0.69753  0.05245  0.56765  1.0000
  H   H368      1.0  0.73127  0.07308  0.61264  1.0000
  H   H369      1.0  0.78753  0.12776  0.54756  1.0000
  H   H370      1.0  0.78065  0.32092  0.95215  1.0000
  H   H371      1.0  0.83891  0.12379  0.67927  1.0000
  H   H372      1.0  0.88367  0.30997  0.54750  1.0000
  H   H373      1.0  0.57984  0.08100  0.64180  1.0000
  C   C367      1.0  0.72312  0.07843  0.53214  1.0000
  H   H374      1.0  0.98944  0.19311  0.67348  1.0000
  H   H375      1.0  0.87417  0.10963  0.62771  1.0000
  C   C368      1.0  0.60366  0.07708  0.95513  1.0000
  C   C369      1.0  0.84415  0.24661  0.53762  1.0000
  C   C370      1.0  0.66661  0.06230  0.95345  1.0000
  H   H376      1.0  0.80258  0.31669  0.56519  1.0000
  C   C371      1.0  0.96566  0.25719  0.72796  1.0000
  H   H377      1.0  0.79529  0.27138  0.94175  1.0000
  C   C372      1.0  0.77846  0.30585  0.97140  1.0000
  C   C373      1.0  0.03703  0.34123  0.85332  1.0000
  H   H378      1.0  0.58702  0.04813  0.66204  1.0000
  H   H379      1.0  0.86421  0.30662  0.99637  1.0000
  H   H380      1.0  0.96981  0.31794  0.93954  1.0000
  C   C374      1.0  0.95584  0.32760  0.78833  1.0000
  H   H381      1.0  0.97625  0.30296  0.97861  1.0000
  C   C375      1.0  0.87209  0.29220  0.53547  1.0000
  C   C376      1.0  0.98318  0.32088  0.96292  1.0000
  N   N32       1.0  0.02288  0.32336  0.95906  1.0000
  H   H382      1.0  0.80634  0.17056  0.57251  1.0000
  H   H383      1.0  0.78779  0.16088  0.67594  1.0000
  C   C377      1.0  0.68913  0.03041  0.91209  1.0000
  C   C378      1.0  0.83332  0.13417  0.65688  1.0000
  C   C379      1.0  0.85370  0.12590  0.62691  1.0000
  N   N33       1.0  0.79504  0.16848  0.62419  1.0000
  C   C380      1.0  0.76334  0.18695  0.62179  1.0000
  H   H384      1.0  0.73868  0.01690  0.52267  1.0000
  H   H385      1.0  0.96990  0.27528  0.80581  1.0000
  C   C381      1.0  0.78418  0.25849  0.99007  1.0000
  C   C382      1.0  0.74861  0.09980  0.52682  1.0000
  C   C383      1.0  0.95756  0.28328  0.71512  1.0000
  N   N34       1.0  0.66011  0.04743  0.92635  1.0000
  H   H386      1.0  0.96710  0.23900  0.71273  1.0000
  H   H387      1.0  0.94565  0.32164  0.81242  1.0000
  C   C384      1.0  0.63855  0.07736  0.96821  1.0000
  H   H388      1.0  0.64384  0.08874  0.99000  1.0000
  C   C385      1.0  0.76256  0.34397  0.00730  1.0000
  N   N35       1.0  0.95864  0.30322  0.76754  1.0000
  C   C386      1.0  0.87716  0.23731  0.00802  1.0000
  H   H389      1.0  0.95299  0.28552  0.68973  1.0000
  C   C387      1.0  0.95425  0.30624  0.73538  1.0000
  C   C388      1.0  0.86548  0.28685  0.00851  1.0000
  C   C389      1.0  0.97046  0.25437  0.76073  1.0000
  C   C390      1.0  0.56991  0.05929  0.64432  1.0000
  H   H390      1.0  0.03415  0.32751  0.83315  1.0000
  H   H391      1.0  0.02481  0.29682  0.91848  1.0000
  C   C391      1.0  0.01706  0.19258  0.66420  1.0000
  H   H392      1.0  0.71662  0.03705  0.92013  1.0000
  H   H393      1.0  0.54404  0.06308  0.70366  1.0000
  C   C392      1.0  0.79028  0.33028  0.54748  1.0000
  H   H394      1.0  0.68866  0.03204  0.88570  1.0000
  H   H395      1.0  0.94734  0.32637  0.72531  1.0000
  H   H396      1.0  0.58152  0.08826  0.96668  1.0000
  C   C393      1.0  0.02347  0.18508  0.63249  1.0000
  H   H397      1.0  0.98282  0.33788  0.79053  1.0000
  H   H398      1.0  0.93566  0.34285  0.77897  1.0000
  H   H399      1.0  0.97909  0.34482  0.86161  1.0000
  S   S123      1.0  0.66901  0.50668  0.08341  1.0000
  Fe  Fe63      1.0  0.69069  0.49064  0.03644  1.0000
  Fe  Fe64      1.0  0.61355  0.50328  0.06139  1.0000
  S   S124      1.0  0.56030  0.48843  0.08394  1.0000
  S   S125      1.0  0.61477  0.54662  0.04137  1.0000
  C   C394      1.0  0.83690  0.52262  0.08711  1.0000
  C   C395      1.0  0.58455  0.53583  0.28720  1.0000
  C   C396      1.0  0.80548  0.50809  0.07867  1.0000
  S   S126      1.0  0.68907  0.58678  0.08772  1.0000
  S   S127      1.0  0.78673  0.39741  0.40839  1.0000
  S   S128      1.0  0.87003  0.35156  0.44404  1.0000
  H   H400      1.0  0.74701  0.37771  0.48369  1.0000
  C   C397      1.0  0.75374  0.45008  0.49486  1.0000
  C   C398      1.0  0.78703  0.43549  0.49495  1.0000
  C   C399      1.0  0.79817  0.41987  0.46825  1.0000
  C   C400      1.0  0.77586  0.41860  0.44141  1.0000
  C   C401      1.0  0.74285  0.43349  0.44123  1.0000
  C   C402      1.0  0.73186  0.44926  0.46778  1.0000
  C   C403      1.0  0.61493  0.51560  0.33395  1.0000
  H   H401      1.0  0.82369  0.40851  0.46860  1.0000
  H   H402      1.0  0.72549  0.43261  0.42053  1.0000
  H   H403      1.0  0.70619  0.46042  0.46745  1.0000
  H   H404      1.0  0.59398  0.52718  0.26402  1.0000
  H   H405      1.0  0.80576  0.49401  0.05847  1.0000
  C   C404      1.0  0.01067  0.36114  0.40498  1.0000
  C   C405      1.0  0.59264  0.47347  0.35875  1.0000
  Fe  Fe65      1.0  0.87220  0.65893  0.12233  1.0000
  C   C406      1.0  0.56038  0.53786  0.39430  1.0000
  C   C407      1.0  0.57686  0.50614  0.14487  1.0000
  H   H406      1.0  0.63897  0.49669  0.37563  1.0000
  H   H407      1.0  0.60353  0.51154  0.13551  1.0000
  H   H408      1.0  0.86190  0.52006  0.07341  1.0000
  H   H409      1.0  0.58941  0.51881  0.19274  1.0000
  C   C408      1.0  0.75942  0.36434  0.50148  1.0000
  Fe  Fe66      1.0  0.91767  0.35561  0.40996  1.0000
  C   C409      1.0  0.83573  0.54075  0.11314  1.0000
  S   S129      1.0  0.85616  0.61763  0.10070  1.0000
  H   H410      1.0  0.80413  0.43604  0.51582  1.0000
  H   H411      1.0  0.77145  0.34671  0.44329  1.0000
  Fe  Fe67      1.0  0.63677  0.52936  0.48564  1.0000
  S   S130      1.0  0.61691  0.54028  0.43617  1.0000
  H   H412      1.0  0.74634  0.63373  0.02686  1.0000
  S   S131      1.0  0.69590  0.53575  0.49683  1.0000
  C   C410      1.0  0.57723  0.52520  0.42056  1.0000
  C   C411      1.0  0.73557  0.59520  0.09072  1.0000
  C   C412      1.0  0.76178  0.58303  0.07081  1.0000
  C   C413      1.0  0.79863  0.59070  0.07343  1.0000
  C   C414      1.0  0.80945  0.61047  0.09597  1.0000
  C   C415      1.0  0.78315  0.62297  0.11549  1.0000
  C   C416      1.0  0.74634  0.61525  0.11295  1.0000
  H   H413      1.0  0.75366  0.56770  0.05344  1.0000
  H   H414      1.0  0.81889  0.58104  0.05816  1.0000
  H   H415      1.0  0.79124  0.63798  0.13319  1.0000
  H   H416      1.0  0.74895  0.50055  0.08984  1.0000
  C   C417      1.0  0.81261  0.65683  0.03175  1.0000
  H   H417      1.0  0.81119  0.63502  0.02313  1.0000
  H   H418      1.0  0.86010  0.55238  0.11921  1.0000
  H   H419      1.0  0.57570  0.49067  0.45334  1.0000
  H   H420      1.0  0.80584  0.61081  0.51310  1.0000
  C   C418      1.0  0.80329  0.56318  0.15754  1.0000
  C   C419      1.0  0.77343  0.51180  0.09627  1.0000
  H   H421      1.0  0.80821  0.55110  0.17967  1.0000
  S   S132      1.0  0.63263  0.48880  0.51225  1.0000
  C   C420      1.0  0.56492  0.47233  0.33618  1.0000
  C   C421      1.0  0.77310  0.53021  0.12198  1.0000
  H   H422      1.0  0.76162  0.57487  0.49590  1.0000
  N   N36       1.0  0.77921  0.66481  0.04887  1.0000
  N   N37       1.0  0.80396  0.54455  0.12996  1.0000
  S   S133      1.0  0.74088  0.46281  0.03781  1.0000
  H   H423      1.0  0.80685  0.43304  0.02290  1.0000
  C   C422      1.0  0.56285  0.49305  0.31277  1.0000
  H   H424      1.0  0.55567  0.54256  0.28444  1.0000
  H   H425      1.0  0.77654  0.57403  0.15947  1.0000
  C   C423      1.0  0.56267  0.50064  0.43326  1.0000
  H   H426      1.0  0.74779  0.53329  0.13512  1.0000
  H   H427      1.0  0.63437  0.53261  0.33363  1.0000
  Fe  Fe68      1.0  0.67194  0.54870  0.05998  1.0000
  S   S134      1.0  0.88484  0.37734  0.37228  1.0000
  N   N38       1.0  0.58740  0.51449  0.31211  1.0000
  C   C424      1.0  0.71512  0.65864  0.05943  1.0000
  H   H428      1.0  0.83660  0.65783  0.04779  1.0000
  H   H429      1.0  0.54450  0.45599  0.33731  1.0000
  C   C425      1.0  0.61793  0.49516  0.35762  1.0000
  H   H430      1.0  0.72610  0.62479  0.12834  1.0000
  Fe  Fe69      1.0  0.83651  0.36938  0.40444  1.0000
  H   H431      1.0  0.69014  0.64690  0.05589  1.0000
  H   H432      1.0  0.57162  0.55687  0.38442  1.0000
  H   H433      1.0  0.82448  0.57970  0.15528  1.0000
  S   S135      1.0  0.97228  0.36970  0.42854  1.0000
  C   C426      1.0  0.56876  0.51025  0.17734  1.0000
  C   C427      1.0  0.74715  0.65114  0.04322  1.0000
  S   S136      1.0  0.91626  0.66520  0.15876  1.0000
  C   C428      1.0  0.78495  0.56899  0.51023  1.0000
  C   C429      1.0  0.55065  0.49472  0.12474  1.0000
  H   H434      1.0  0.59398  0.45800  0.37759  1.0000
  C   C430      1.0  0.00684  0.34769  0.37572  1.0000
  H   H435      1.0  0.60085  0.55465  0.29274  1.0000
  H   H436      1.0  0.74816  0.34766  0.03028  1.0000
  H   H437      1.0  0.54833  0.56993  0.48101  1.0000
  H   H438      1.0  0.54115  0.49210  0.29538  1.0000
  H   H439      1.0  0.54144  0.52411  0.03127  1.0000
  H   H440      1.0  0.76999  0.52574  0.51317  1.0000
  S   S137      1.0  0.67471  0.52042  0.57180  1.0000
  S   S138      1.0  0.69708  0.53320  0.01464  1.0000
  Fe  Fe70      1.0  0.61699  0.51537  0.55455  1.0000
  S   S139      1.0  0.56335  0.50713  0.58075  1.0000
  C   C431      1.0  0.62052  0.49229  0.86334  1.0000
  H   H441      1.0  0.58840  0.56257  0.70384  1.0000
  S   S140      1.0  0.63468  0.48328  0.01621  1.0000
  H   H442      1.0  0.59874  0.51881  0.79068  1.0000
  H   H443      1.0  0.55979  0.47708  0.79082  1.0000
  S   S141      1.0  0.77996  0.37731  0.92753  1.0000
  C   C432      1.0  0.58619  0.50742  0.67560  1.0000
  H   H444      1.0  0.63686  0.49680  0.88420  1.0000
  C   C433      1.0  0.55133  0.50660  0.68980  1.0000
  S   S142      1.0  0.73958  0.46817  0.52936  1.0000
  C   C434      1.0  0.79671  0.40967  0.98006  1.0000
  C   C435      1.0  0.77112  0.40287  0.95680  1.0000
  C   C436      1.0  0.73635  0.41521  0.95796  1.0000
  C   C437      1.0  0.72708  0.43419  0.98215  1.0000
  H   H445      1.0  0.58380  0.55971  0.89324  1.0000
  H   H446      1.0  0.85765  0.59740  0.54789  1.0000
  H   H447      1.0  0.71638  0.40995  0.94013  1.0000
  Fe  Fe71      1.0  0.69071  0.49732  0.52697  1.0000
  C   C438      1.0  0.55250  0.43910  0.83721  1.0000
  H   H448      1.0  0.59688  0.45536  0.88359  1.0000
  C   C439      1.0  0.00942  0.36837  0.89584  1.0000
  C   C440      1.0  0.84231  0.55397  0.54943  1.0000
  C   C441      1.0  0.77822  0.35687  0.55581  1.0000
  H   H449      1.0  0.81712  0.67102  0.01114  1.0000
  C   C442      1.0  0.59031  0.50761  0.64224  1.0000
  H   H450      1.0  0.54171  0.58423  0.74101  1.0000
  H   H451      1.0  0.61729  0.50848  0.63159  1.0000
  H   H452      1.0  0.82354  0.40025  0.97943  1.0000
  Fe  Fe72      1.0  0.67677  0.55832  0.54041  1.0000
  H   H453      1.0  0.70018  0.44346  0.98286  1.0000
  H   H454      1.0  0.86403  0.54865  0.56576  1.0000
  S   S143      1.0  0.97093  0.37917  0.91793  1.0000
  S   S144      1.0  0.85224  0.61619  0.61914  1.0000
  H   H455      1.0  0.63791  0.52891  0.83771  1.0000
  S   S145      1.0  0.69940  0.60090  0.55175  1.0000
  Fe  Fe73      1.0  0.63940  0.52711  0.99780  1.0000
  S   S146      1.0  0.62219  0.54291  0.94918  1.0000
  C   C443      1.0  0.54080  0.49063  0.92288  1.0000
  N   N39       1.0  0.81779  0.53427  0.53982  1.0000
  C   C444      1.0  0.58575  0.52728  0.92882  1.0000
  C   C445      1.0  0.74035  0.60508  0.57303  1.0000
  C   C446      1.0  0.75755  0.58257  0.58793  1.0000
  C   C447      1.0  0.79112  0.58651  0.60336  1.0000
  C   C448      1.0  0.80783  0.61283  0.60366  1.0000
  C   C449      1.0  0.79018  0.63542  0.58943  1.0000
  C   C450      1.0  0.75649  0.63154  0.57425  1.0000
  H   H456      1.0  0.74517  0.56216  0.58730  1.0000
  H   H457      1.0  0.80457  0.56899  0.61451  1.0000
  H   H458      1.0  0.80285  0.65576  0.58949  1.0000
  C   C451      1.0  0.62093  0.51042  0.83730  1.0000
  H   H459      1.0  0.54684  0.53051  0.51912  1.0000
  H   H460      1.0  0.78106  0.36415  0.58010  1.0000
  H   H461      1.0  0.55085  0.56465  0.99549  1.0000
  Fe  Fe74      1.0  0.83485  0.35778  0.91546  1.0000
  Fe  Fe75      1.0  0.87441  0.65937  0.62858  1.0000
  H   H462      1.0  0.74320  0.64903  0.56287  1.0000
  C   C452      1.0  0.55956  0.50650  0.62278  1.0000
  H   H463      1.0  0.84650  0.50141  0.56380  1.0000
  C   C453      1.0  0.59787  0.46886  0.86284  1.0000
  C   C454      1.0  0.57033  0.50225  0.93933  1.0000
  S   S147      1.0  0.92439  0.66247  0.65931  1.0000
  H   H464      1.0  0.58094  0.49200  0.96029  1.0000
  H   H465      1.0  0.61016  0.50831  0.69045  1.0000
  S   S148      1.0  0.87256  0.37302  0.87661  1.0000
  H   H466      1.0  0.01840  0.64051  0.58190  1.0000
  C   C455      1.0  0.59894  0.50486  0.81108  1.0000
  C   C456      1.0  0.75235  0.44056  0.00579  1.0000
  C   C457      1.0  0.57683  0.48114  0.81130  1.0000
  S   S149      1.0  0.61789  0.55536  0.52668  1.0000
  C   C458      1.0  0.78718  0.42824  0.00466  1.0000
  C   C459      1.0  0.57188  0.54035  0.90148  1.0000
  N   N40       1.0  0.57673  0.46338  0.83687  1.0000
  H   H467      1.0  0.58653  0.59694  0.68590  1.0000
  H   H468      1.0  0.54594  0.43222  0.81266  1.0000
  C   C460      1.0  0.82041  0.50549  0.55133  1.0000
  C   C461      1.0  0.00585  0.35076  0.86961  1.0000
  H   H469      1.0  0.78911  0.35513  0.00762  1.0000
  H   H470      1.0  0.58146  0.56614  0.66195  1.0000
  Fe  Fe76      1.0  0.91794  0.35715  0.90748  1.0000
  C   C462      1.0  0.76235  0.37396  0.53278  1.0000
  C   C463      1.0  0.54235  0.52870  0.88499  1.0000
  H   H471      1.0  0.01994  0.62255  0.63738  1.0000
  H   H472      1.0  0.74550  0.35321  0.98816  1.0000
  H   H473      1.0  0.56544  0.42121  0.84962  1.0000
  C   C464      1.0  0.57489  0.57562  0.68543  1.0000
  H   H474      1.0  0.75260  0.39464  0.53897  1.0000
  H   H475      1.0  0.79737  0.50101  0.56800  1.0000
  C   C465      1.0  0.83897  0.58163  0.53925  1.0000
  S   S150      1.0  0.54750  0.50928  0.73171  1.0000
  H   H476      1.0  0.81851  0.49074  0.53104  1.0000
  S   S151      1.0  0.88051  0.34605  0.94836  1.0000
  H   H477      1.0  0.02857  0.35066  0.99862  1.0000
  C   C466      1.0  0.78950  0.54142  0.52038  1.0000
  C   C467      1.0  0.80986  0.58918  0.51980  1.0000
  Fe  Fe77      1.0  0.86146  0.72089  0.11219  1.0000
  S   S152      1.0  0.83213  0.75422  0.08462  1.0000
  H   H478      1.0  0.60474  0.98585  0.27074  1.0000
  H   H479      1.0  0.94936  0.73295  0.02599  1.0000
  S   S153      1.0  0.90350  0.73281  0.14813  1.0000
  C   C468      1.0  0.75359  0.83018  0.42358  1.0000
  C   C469      1.0  0.84975  0.73021  0.02700  1.0000
  H   H480      1.0  0.91974  0.73618  0.51349  1.0000
  C   C470      1.0  0.96597  0.74996  0.31274  1.0000
  S   S154      1.0  0.60300  0.97817  0.11268  1.0000
  C   C471      1.0  0.84374  0.73552  0.50627  1.0000
  C   C472      1.0  0.76203  0.82006  0.47936  1.0000
  Fe  Fe78      1.0  0.89325  0.81951  0.35592  1.0000
  S   S155      1.0  0.90619  0.86204  0.37498  1.0000
  S   S156      1.0  0.90343  0.81338  0.30322  1.0000
  Fe  Fe79      1.0  0.87075  0.79810  0.42162  1.0000
  S   S157      1.0  0.88185  0.83876  0.44562  1.0000
  S   S158      1.0  0.85112  0.75976  0.44768  1.0000
  Fe  Fe80      1.0  0.85414  0.85769  0.40332  1.0000
  S   S159      1.0  0.81154  0.89192  0.40327  1.0000
  Fe  Fe81      1.0  0.93263  0.83904  0.41518  1.0000
  S   S160      1.0  0.98678  0.84932  0.43743  1.0000
  S   S161      1.0  0.83921  0.81677  0.38112  1.0000
  S   S162      1.0  0.92363  0.79679  0.39422  1.0000
  C   C473      1.0  0.96941  0.78372  0.47204  1.0000
  H   H481      1.0  0.97706  0.73758  0.18685  1.0000
  S   S163      1.0  0.58534  0.96922  0.42513  1.0000
  H   H482      1.0  0.99436  0.83300  0.37130  1.0000
  H   H483      1.0  0.95741  0.69787  0.22109  1.0000
  C   C474      1.0  0.74348  0.91923  0.48957  1.0000
  C   C475      1.0  0.56471  0.99032  0.39583  1.0000
  C   C476      1.0  0.79533  0.89328  0.46781  1.0000
  C   C477      1.0  0.78551  0.90129  0.43696  1.0000
  C   C478      1.0  0.75449  0.91794  0.43254  1.0000
  C   C479      1.0  0.73338  0.92665  0.45868  1.0000
  H   H484      1.0  0.95862  0.77168  0.31936  1.0000
  H   H485      1.0  0.81930  0.88051  0.47141  1.0000
  H   H486      1.0  0.74667  0.92409  0.40872  1.0000
  H   H487      1.0  0.70918  0.93898  0.45477  1.0000
  C   C480      1.0  0.80088  0.97294  0.49182  1.0000
  C   C481      1.0  0.92954  0.76166  0.06098  1.0000
  C   C482      1.0  0.91809  0.80830  0.04212  1.0000
  H   H488      1.0  0.97477  0.79080  0.44791  1.0000
  S   S164      1.0  0.74527  0.93734  0.03380  1.0000
  C   C483      1.0  0.72662  0.84943  0.43173  1.0000
  C   C484      1.0  0.54884  0.98309  0.15732  1.0000
  C   C485      1.0  0.98197  0.76589  0.22637  1.0000
  H   H489      1.0  0.69746  0.86915  0.46999  1.0000
  C   C486      1.0  0.83816  0.75416  0.04301  1.0000
  C   C487      1.0  0.80511  0.97886  0.43483  1.0000
  C   C488      1.0  0.56233  0.99277  0.12790  1.0000
  C   C489      1.0  0.84799  0.76059  0.48949  1.0000
  H   H490      1.0  0.98948  0.78356  0.21160  1.0000
  H   H491      1.0  0.56318  0.96666  0.16975  1.0000
  H   H492      1.0  0.85511  0.71136  0.03997  1.0000
  S   S165      1.0  0.67736  0.99086  0.47111  1.0000
  H   H493      1.0  0.98318  0.78911  0.27002  1.0000
  H   H494      1.0  0.64026  0.98128  0.22008  1.0000
  C   C490      1.0  0.87396  0.73341  0.25077  1.0000
  C   C491      1.0  0.88391  0.75741  0.23393  1.0000
  C   C492      1.0  0.89121  0.78219  0.25028  1.0000
  C   C493      1.0  0.88828  0.78326  0.28355  1.0000
  C   C494      1.0  0.87666  0.75967  0.30038  1.0000
  C   C495      1.0  0.86976  0.73473  0.28400  1.0000
  H   H495      1.0  0.88674  0.75680  0.20838  1.0000
  H   H496      1.0  0.89989  0.80046  0.23713  1.0000
  H   H497      1.0  0.87414  0.76038  0.32606  1.0000
  H   H498      1.0  0.86179  0.71627  0.29716  1.0000
  C   C496      1.0  0.91739  0.78871  0.06674  1.0000
  H   H499      1.0  0.83311  0.94664  0.46073  1.0000
  H   H500      1.0  0.80531  0.69769  0.07397  1.0000
  H   H501      1.0  0.79204  0.79996  0.44135  1.0000
  H   H502      1.0  0.90692  0.79427  0.09012  1.0000
  N   N41       1.0  0.96807  0.74677  0.27805  1.0000
  H   H503      1.0  0.99263  0.74464  0.32356  1.0000
  C   C497      1.0  0.96116  0.72142  0.26462  1.0000
  C   C498      1.0  0.77122  0.81517  0.44747  1.0000
  C   C499      1.0  0.96425  0.71776  0.23168  1.0000
  C   C500      1.0  0.61912  0.99702  0.22239  1.0000
  C   C501      1.0  0.97850  0.76885  0.25942  1.0000
  H   H504      1.0  0.80785  0.96116  0.51301  1.0000
  H   H505      1.0  0.95206  0.70404  0.27920  1.0000
  C   C502      1.0  0.71798  0.85372  0.46385  1.0000
  H   H506      1.0  0.85309  0.80504  0.49370  1.0000
  H   H507      1.0  0.90855  0.82937  0.04625  1.0000
  H   H508      1.0  0.82172  0.79699  0.03777  1.0000
  H   H509      1.0  0.92935  0.74634  0.07999  1.0000
  C   C503      1.0  0.85026  0.78560  0.50632  1.0000
  H   H510      1.0  0.94433  0.73639  0.32311  1.0000
  C   C504      1.0  0.97487  0.74012  0.21248  1.0000
  H   H511      1.0  0.69147  0.68625  0.09426  1.0000
  S   S166      1.0  0.64226  0.95735  0.02979  1.0000
  Fe  Fe82      1.0  0.61667  0.98514  0.46779  1.0000
  Fe  Fe83      1.0  0.63188  0.99050  0.06654  1.0000
  H   H512      1.0  0.71329  0.86156  0.41332  1.0000
  S   S167      1.0  0.89691  0.68952  0.08807  1.0000
  H   H513      1.0  0.00496  0.81404  0.49307  1.0000
  H   H514      1.0  0.76103  0.82714  0.39876  1.0000
  C   C505      1.0  0.77447  0.90244  0.49408  1.0000
  S   S168      1.0  0.69157  0.00065  0.07171  1.0000
  H   H515      1.0  0.79614  0.89311  0.02169  1.0000
  N   N42       1.0  0.77752  0.99511  0.49378  1.0000
  C   C506      1.0  0.02511  0.84094  0.41382  1.0000
  C   C507      1.0  0.98656  0.79670  0.49751  1.0000
  C   C508      1.0  0.78177  0.00177  0.43711  1.0000
  C   C509      1.0  0.93879  0.75306  0.50915  1.0000
  H   H516      1.0  0.84158  0.71612  0.49340  1.0000
  H   H517      1.0  0.93087  0.75216  0.45821  1.0000
  C   C510      1.0  0.02123  0.83360  0.38183  1.0000
  H   H518      1.0  0.81509  0.97190  0.41176  1.0000
  H   H519      1.0  0.78247  0.89662  0.51795  1.0000
  S   S169      1.0  0.99393  0.70956  0.10934  1.0000
  C   C511      1.0  0.83092  0.77843  0.02557  1.0000
  N   N43       1.0  0.73616  0.83951  0.48718  1.0000
  C   C512      1.0  0.03048  0.70057  0.13431  1.0000
  C   C513      1.0  0.94511  0.76192  0.47782  1.0000
  Fe  Fe84      1.0  0.70094  0.97017  0.03206  1.0000
  C   C514      1.0  0.94110  0.75429  0.03035  1.0000
  C   C515      1.0  0.81519  0.96460  0.46237  1.0000
  C   C516      1.0  0.54221  0.97771  0.37310  1.0000
  S   S170      1.0  0.86972  0.70106  0.23136  1.0000
  Fe  Fe85      1.0  0.87913  0.69872  0.17810  1.0000
  S   S171      1.0  0.83341  0.68982  0.14402  1.0000
  C   C517      1.0  0.78009  0.68662  0.06970  1.0000
  C   C518      1.0  0.71597  0.68053  0.08117  1.0000
  H   H520      1.0  0.77595  0.80831  0.49776  1.0000
  Fe  Fe86      1.0  0.93719  0.69892  0.12628  1.0000
  Fe  Fe87      1.0  0.67428  0.96344  0.51423  1.0000
  S   S172      1.0  0.61443  0.95500  0.50882  1.0000
  C   C519      1.0  0.02439  0.68960  0.16479  1.0000
  C   C520      1.0  0.74860  0.69478  0.08621  1.0000
  H   H521      1.0  0.99683  0.68572  0.17298  1.0000
  C   C521      1.0  0.59914  0.99951  0.25069  1.0000
  H   H522      1.0  0.74977  0.71193  0.10294  1.0000
  C   C522      1.0  0.76852  0.00988  0.46702  1.0000
  Fe  Fe88      1.0  0.87021  0.72188  0.61930  1.0000
  S   S173      1.0  0.84505  0.76044  0.59834  1.0000
  Fe  Fe89      1.0  0.89518  0.69823  0.68256  1.0000
  S   S174      1.0  0.89386  0.70165  0.73616  1.0000
  S   S175      1.0  0.91901  0.73018  0.64961  1.0000
  C   C523      1.0  0.70119  0.90248  0.90568  1.0000
  C   C524      1.0  0.03548  0.69925  0.63224  1.0000
  H   H523      1.0  0.81163  0.72272  0.71626  1.0000
  Fe  Fe90      1.0  0.94393  0.69423  0.62389  1.0000
  H   H524      1.0  0.98454  0.70580  0.75099  1.0000
  C   C525      1.0  0.82383  0.76731  0.67966  1.0000
  C   C526      1.0  0.82089  0.79101  0.73128  1.0000
  Fe  Fe91      1.0  0.89748  0.82280  0.85359  1.0000
  S   S176      1.0  0.91178  0.86250  0.87865  1.0000
  S   S177      1.0  0.90846  0.81963  0.80072  1.0000
  Fe  Fe92      1.0  0.86977  0.79560  0.91446  1.0000
  S   S178      1.0  0.88118  0.83301  0.94442  1.0000
  S   S179      1.0  0.85228  0.75446  0.93487  1.0000
  Fe  Fe93      1.0  0.85757  0.85731  0.90368  1.0000
  S   S180      1.0  0.81751  0.89333  0.90573  1.0000
  Fe  Fe94      1.0  0.93396  0.83458  0.91686  1.0000
  S   S181      1.0  0.98720  0.83813  0.94303  1.0000
  S   S182      1.0  0.84168  0.81939  0.87558  1.0000
  S   S183      1.0  0.92417  0.79539  0.88979  1.0000
  H   H525      1.0  0.00560  0.80575  0.77169  1.0000
  C   C527      1.0  0.72154  0.88112  0.91950  1.0000
  C   C528      1.0  0.95209  0.76545  0.97392  1.0000
  S   S184      1.0  0.66494  0.99836  0.54920  1.0000
  H   H526      1.0  0.99550  0.83054  0.87500  1.0000
  S   S185      1.0  0.71786  0.93057  0.52280  1.0000
  H   H527      1.0  0.00063  0.68629  0.67108  1.0000
  C   C529      1.0  0.80745  0.89351  0.97116  1.0000
  C   C530      1.0  0.80072  0.90675  0.94207  1.0000
  C   C531      1.0  0.77785  0.93022  0.94139  1.0000
  C   C532      1.0  0.76110  0.94003  0.96941  1.0000
  H   H528      1.0  0.80825  0.76506  0.80598  1.0000
  H   H529      1.0  0.82493  0.87538  0.97195  1.0000
  H   H530      1.0  0.77252  0.94052  0.91895  1.0000
  H   H531      1.0  0.74309  0.95779  0.96845  1.0000
  H   H532      1.0  0.96931  0.76492  0.83872  1.0000
  C   C533      1.0  0.00534  0.77358  0.73621  1.0000
  C   C534      1.0  0.84284  0.73534  0.53970  1.0000
  C   C535      1.0  0.80773  0.74109  0.76264  1.0000
  C   C536      1.0  0.54864  0.99115  0.67932  1.0000
  S   S186      1.0  0.84360  0.69292  0.65462  1.0000
  H   H533      1.0  0.71565  0.86565  0.52441  1.0000
  H   H534      1.0  0.97891  0.72458  0.80557  1.0000
  C   C537      1.0  0.99951  0.74536  0.73032  1.0000
  C   C538      1.0  0.84530  0.76032  0.55649  1.0000
  H   H535      1.0  0.74140  0.86965  0.90537  1.0000
  C   C539      1.0  0.67684  0.91778  0.92442  1.0000
  C   C540      1.0  0.84682  0.75475  0.97641  1.0000
  C   C541      1.0  0.84855  0.78549  0.53974  1.0000
  H   H536      1.0  0.61093  0.98898  0.61812  1.0000
  H   H537      1.0  0.85038  0.80489  0.55264  1.0000
  H   H538      1.0  0.00189  0.73724  0.70630  1.0000
  H   H539      1.0  0.82946  0.79752  0.97903  1.0000
  C   C542      1.0  0.57729  0.98977  0.92410  1.0000
  C   C543      1.0  0.89891  0.73445  0.75391  1.0000
  C   C544      1.0  0.89486  0.73688  0.78702  1.0000
  C   C545      1.0  0.89774  0.76298  0.80173  1.0000
  C   C546      1.0  0.90508  0.78665  0.78333  1.0000
  C   C547      1.0  0.90973  0.78415  0.75032  1.0000
  C   C548      1.0  0.90649  0.75812  0.73561  1.0000
  H   H540      1.0  0.88895  0.71858  0.80128  1.0000
  H   H541      1.0  0.89399  0.76480  0.82723  1.0000
  H   H542      1.0  0.91555  0.80246  0.73607  1.0000
  H   H543      1.0  0.90989  0.75644  0.71017  1.0000
  N   N44       1.0  0.81793  0.76689  0.71423  1.0000
  H   H544      1.0  0.86235  0.71176  0.98148  1.0000
  N   N45       1.0  0.99207  0.76622  0.79176  1.0000
  H   H545      1.0  0.97914  0.79899  0.82419  1.0000
  C   C549      1.0  0.98672  0.73845  0.78626  1.0000
  C   C550      1.0  0.02603  0.83495  0.91827  1.0000
  C   C551      1.0  0.99008  0.72765  0.75546  1.0000
  C   C552      1.0  0.72691  0.84433  0.52075  1.0000
  S   S187      1.0  0.54747  0.99462  0.72124  1.0000
  C   C553      1.0  0.02828  0.69092  0.66362  1.0000
  H   H546      1.0  0.81576  0.78759  0.66898  1.0000
  H   H547      1.0  0.93153  0.81579  0.99298  1.0000
  H   H548      1.0  0.80735  0.75105  0.66767  1.0000
  C   C554      1.0  0.55268  0.99091  0.61207  1.0000
  H   H549      1.0  0.85308  0.76354  0.67410  1.0000
  H   H550      1.0  0.60741  0.98904  0.67731  1.0000
  H   H551      1.0  0.59527  0.97271  0.87919  1.0000
  S   S188      1.0  0.00048  0.70042  0.60386  1.0000
  H   H552      1.0  0.80412  0.72125  0.77470  1.0000
  H   H553      1.0  0.01630  0.77650  0.83596  1.0000
  H   H554      1.0  0.96840  0.78212  0.96212  1.0000
  H   H555      1.0  0.65461  0.92378  0.97123  1.0000
  S   S189      1.0  0.89686  0.68804  0.59078  1.0000
  H   H556      1.0  0.75161  0.84270  0.53587  1.0000
  C   C555      1.0  0.81199  0.74207  0.72952  1.0000
  H   H557      1.0  0.83948  0.71589  0.55242  1.0000
  C   C556      1.0  0.81694  0.79077  0.76446  1.0000
  H   H558      1.0  0.82726  0.81051  0.71939  1.0000
  C   C557      1.0  0.57354  0.98351  0.89163  1.0000
  Fe  Fe95      1.0  0.63613  0.99151  0.99352  1.0000
  N   N46       1.0  0.95620  0.76558  0.53398  1.0000
  C   C558      1.0  0.67351  0.91166  0.95690  1.0000
  C   C559      1.0  0.81016  0.76564  0.78017  1.0000
  H   H559      1.0  0.92386  0.76740  0.57602  1.0000
  C   C560      1.0  0.58257  0.98958  0.66354  1.0000
  C   C561      1.0  0.94840  0.75644  0.56665  1.0000
  H   H560      1.0  0.75485  0.98500  0.53922  1.0000
  H   H561      1.0  0.94336  0.73366  0.56752  1.0000
  S   S190      1.0  0.69576  0.00235  0.99398  1.0000
  H   H562      1.0  0.97193  0.76030  0.58261  1.0000
  H   H563      1.0  0.66083  0.93449  0.91403  1.0000
  Fe  Fe96      1.0  0.60499  0.99261  0.53940  1.0000
  C   C562      1.0  0.00154  0.78372  0.76728  1.0000
  C   C563      1.0  0.83559  0.77882  0.99235  1.0000
  H   H564      1.0  0.92712  0.76173  0.95966  1.0000
  H   H565      1.0  0.70477  0.90741  0.88062  1.0000
  C   C564      1.0  0.98921  0.77711  0.82426  1.0000
  H   H566      1.0  0.82058  0.80977  0.77805  1.0000
  H   H567      1.0  0.96891  0.74622  0.97382  1.0000
  S   S191      1.0  0.55370  0.99461  0.57017  1.0000
  C   C565      1.0  0.85371  0.73042  0.99378  1.0000
  H   H568      1.0  0.01238  0.78757  0.71679  1.0000
  S   S192      1.0  0.61854  0.98069  0.94322  1.0000
  H   H569      1.0  0.70637  0.82884  0.52893  1.0000
  C   C566      1.0  0.79101  0.90353  0.99928  1.0000
  H   H570      1.0  0.99261  0.79780  0.54826  1.0000
  H   H571      1.0  0.68513  0.00826  0.91906  1.0000
  C   C567      1.0  0.02237  0.83107  0.88545  1.0000
  C   C568      1.0  0.76753  0.92666  0.99845  1.0000
  C   C569      1.0  0.58464  0.98949  0.63001  1.0000
  C   C570      1.0  0.97942  0.78743  0.52857  1.0000
  N   N47       1.0  0.94166  0.77364  0.00632  1.0000
  C   C571      1.0  0.69015  0.88460  0.00440  1.0000
  C   C572      1.0  0.54903  0.00377  0.93989  1.0000
  H   H572      1.0  0.55163  0.00870  0.96488  1.0000
  C   C573      1.0  0.93068  0.80041  0.01194  1.0000
  N   N48       1.0  0.69420  0.89107  0.97041  1.0000
  C   C574      1.0  0.71767  0.87565  0.95209  1.0000
  C   C575      1.0  0.76326  0.00354  0.52500  1.0000
  C   C576      1.0  0.54190  0.99122  0.87495  1.0000
  H   H573      1.0  0.73449  0.85960  0.96282  1.0000
  H   H574      1.0  0.67005  0.86759  0.00793  1.0000
  H   H575      1.0  0.71680  0.87838  0.01482  1.0000
  H   H576      1.0  0.68110  0.90317  0.01806  1.0000
