data_image0
_chemical_formula_structural       FeSCS3FeS2FeS2FeNFeCS2HFeS2C6H4C5H2NC4HC2HC2H2CHCHC5H4C2SCH3CH5C3HNCHC3HNC2H2CH6SHCHNCSHCHCNH3CHC2H2CHFeH2C2H2FeCHC2S3H4C3HFeHSCHS2H2FeS2H2CN2HC6H6C5H4CHCHCH2C3HFe2CH2C2HSH4C3SHC3H2SCH3SHC3HFeS5FeS2FeS2FeHFeHS2HFeS2C6H4C5H2C3HCHC5H3CH2C5H2NH3C2H2CHCNSCSHSCH2CH3SNCHCNC2HCH3CH3SH2CNC2HC2HC3H2SH2C2HCFeCFeH2C4HC2H3SFeCSC2S2HSFeS2NHC3HC6H5CHCHCH3FeH4CHC2SHCH4CNCHCFeH2C3H7SH2CHNCH2C3HCHFeNSFeS2HCFeC2FeHCFeSCSFeS2CFeS2FeSHFeSFeHS2H2C6H4C4H2CSCH2CHC6H4CFeHC2FeCH2C2H3SC2SH2FeC2SCNSCH2NC6H9SCSHC2SC2FeHCSHC2HSHCH2CSHSH4CFeSH3CHFeS2FeS2FeS2FeSFeS4NC3HCH2NHC4HCHC6H5CH4C7H4CHCNC7H3CHC2NC6H6C2H3C2H3CH2C2H5S2CHCHCHSCNH2SH2Fe2HNFeS2CSFeC2FeSCFeSHSCS2CFeS2FeSHFeSFeHS2NHC6H4C4H2CFeCHCNHC6H4C4H4CHC3HSC4SCHCHCH4SHFeHS2HCFeSCHC5HC3HC2HNCSHCHSFeHCH2C2NH2CSH3C3H4CH2SC2H3CNH3NSHFeSH5FeSHFeS2FeS2FeSFeS3C4HSHCH2C4HCHC7H4CH2CHC8H4CH3CH2C2HCHCHCHNCHC2HNHSH2SHSCHSH2CHCHSCFeCFeSNS4FeS2FeS2FeSFeCS2HC3FeH3C5H2C5H2C6H2C6H4SHCH2C3HCH3C2HC4H4NCNHFeH2CHC3NCHCHNC4H2SFeCH3NCH2CHCH2C3H2C2H2S2C2NCH6CH5CHCFeH2CH3SC2HFeSFe2HSFeC2HS2CHNS2CHFeH3SC6H4CH2SHCHSCHNC6HSH4C2H3FeCHC2HCH2CHSHNHFeS6FeS2FeS2FeHFeCS2HC4H3CFeC3H2CHC3H2SC4H3C6H5CH2CHC2FeC3HCFeN2C6H8CSHC2H4CHCHFe2CNH2CSH3C4HC4H6C2SH2C2HSFeCHFeSHFeHSFeHCFeS2CH3CH5NHC6H4CSHC2SHCH2C4HSHSCH4C2HC4HSCHC2NC3HFeCH4C2HC2S
_chemical_formula_sum              "Fe96 S192 C576 N48 H576"
_cell_length_a       63.2503
_cell_length_b       49.8561
_cell_length_c       31.7502
_cell_angle_alpha    90.0998
_cell_angle_beta     89.6576
_cell_angle_gamma    89.8547

_space_group_name_H-M_alt    "P 1"
_space_group_IT_number       1

loop_
  _space_group_symop_operation_xyz
  'x, y, z'

loop_
  _atom_site_type_symbol
  _atom_site_label
  _atom_site_symmetry_multiplicity
  _atom_site_fract_x
  _atom_site_fract_y
  _atom_site_fract_z
  _atom_site_occupancy
  Fe  Fe1       1.0  0.31744  0.35899  0.10050  1.0000
  S   S1        1.0  0.28200  0.35103  0.10858  1.0000
  C   C1        1.0  0.05916  0.16890  0.40116  1.0000
  S   S2        1.0  0.15997  0.35391  0.02307  1.0000
  S   S3        1.0  0.12287  0.41714  0.02950  1.0000
  S   S4        1.0  0.13761  0.28608  0.03798  1.0000
  Fe  Fe2       1.0  0.17577  0.10925  0.08795  1.0000
  S   S5        1.0  0.16570  0.10491  0.02134  1.0000
  S   S6        1.0  0.21092  0.11806  0.09731  1.0000
  Fe  Fe3       1.0  0.13030  0.09906  0.12174  1.0000
  S   S7        1.0  0.11834  0.09393  0.05508  1.0000
  S   S8        1.0  0.10179  0.09470  0.16715  1.0000
  Fe  Fe4       1.0  0.14742  0.06906  0.04337  1.0000
  N   N1        1.0  0.22561  0.04912  0.04650  1.0000
  Fe  Fe5       1.0  0.13794  0.13012  0.03987  1.0000
  C   C2        1.0  0.22512  0.42724  0.02327  1.0000
  S   S9        1.0  0.15874  0.07189  0.11016  1.0000
  S   S10       1.0  0.14863  0.13683  0.10620  1.0000
  H   H1        1.0  0.20849  0.05789  0.10314  1.0000
  Fe  Fe6       1.0  0.02598  0.10352  0.37756  1.0000
  S   S11       1.0  0.05996  0.10844  0.35169  1.0000
  S   S12       1.0  0.02007  0.09863  0.44780  1.0000
  C   C3        1.0  0.09057  0.09889  0.21882  1.0000
  C   C4        1.0  0.10230  0.10809  0.25320  1.0000
  C   C5        1.0  0.09266  0.11091  0.29335  1.0000
  C   C6        1.0  0.07111  0.10481  0.29987  1.0000
  C   C7        1.0  0.05932  0.09597  0.26535  1.0000
  C   C8        1.0  0.06899  0.09298  0.22527  1.0000
  H   H2        1.0  0.11887  0.11272  0.24901  1.0000
  H   H3        1.0  0.10204  0.11769  0.31963  1.0000
  H   H4        1.0  0.04277  0.09114  0.26960  1.0000
  H   H5        1.0  0.05968  0.08582  0.19912  1.0000
  C   C9        1.0  0.23022  0.11681  0.05612  1.0000
  C   C10       1.0  0.25184  0.11764  0.06630  1.0000
  C   C11       1.0  0.26757  0.11557  0.03467  1.0000
  C   C12       1.0  0.19156  0.24976  0.04652  1.0000
  C   C13       1.0  0.22459  0.11455  0.01369  1.0000
  H   H6        1.0  0.25645  0.11961  0.09892  1.0000
  H   H7        1.0  0.28408  0.11584  0.04313  1.0000
  N   N2        1.0  0.30742  0.27345  0.02039  1.0000
  C   C14       1.0  0.13401  0.44961  0.02722  1.0000
  C   C15       1.0  0.14557  0.00028  0.00916  1.0000
  C   C16       1.0  0.07159  0.13326  0.44855  1.0000
  C   C17       1.0  0.07432  0.13377  0.02567  1.0000
  H   H8        1.0  0.12651  0.00903  0.06389  1.0000
  C   C18       1.0  0.24501  0.04981  0.02719  1.0000
  C   C19       1.0  0.13493  0.25193  0.02453  1.0000
  H   H9        1.0  0.09337  0.21499  0.08313  1.0000
  C   C20       1.0  0.13640  0.20511  0.04678  1.0000
  C   C21       1.0  0.13806  0.23259  0.05599  1.0000
  H   H10       1.0  0.13883  0.19047  0.07132  1.0000
  H   H11       1.0  0.14192  0.23894  0.08764  1.0000
  C   C22       1.0  0.31006  0.22695  0.00072  1.0000
  H   H12       1.0  0.11190  0.46599  0.07246  1.0000
  C   C23       1.0  0.32680  0.98536  0.02558  1.0000
  H   H13       1.0  0.00602  0.21463  0.45312  1.0000
  C   C24       1.0  0.26313  0.35413  0.06732  1.0000
  C   C25       1.0  0.24191  0.34694  0.07485  1.0000
  C   C26       1.0  0.22656  0.34902  0.04284  1.0000
  C   C27       1.0  0.18458  0.46192  0.09097  1.0000
  C   C28       1.0  0.26876  0.36348  0.02727  1.0000
  H   H14       1.0  0.23734  0.33971  0.10570  1.0000
  H   H15       1.0  0.21036  0.34335  0.04919  1.0000
  H   H16       1.0  0.28488  0.36941  0.02091  1.0000
  H   H17       1.0  0.04536  0.16245  0.38216  1.0000
  C   C29       1.0  0.18823  0.17564  0.02757  1.0000
  C   C30       1.0  0.13223  0.99355  0.04275  1.0000
  S   S13       1.0  0.12779  0.16248  0.99409  1.0000
  C   C31       1.0  0.30154  0.29415  0.05115  1.0000
  H   H18       1.0  0.03420  0.17990  0.46648  1.0000
  H   H19       1.0  0.17528  0.16549  0.01019  1.0000
  H   H20       1.0  0.28837  0.28763  0.07204  1.0000
  C   C32       1.0  0.22418  0.05016  0.09257  1.0000
  H   H21       1.0  0.31540  0.29913  0.07092  1.0000
  H   H22       1.0  0.19226  0.04559  0.03841  1.0000
  H   H23       1.0  0.19573  0.21434  0.08399  1.0000
  H   H24       1.0  0.05941  0.14057  0.01077  1.0000
  H   H25       1.0  0.23607  0.06426  0.10559  1.0000
  C   C33       1.0  0.20248  0.45719  0.06588  1.0000
  C   C34       1.0  0.08905  0.19423  0.08881  1.0000
  C   C35       1.0  0.19243  0.41172  0.05643  1.0000
  H   H26       1.0  0.07365  0.16399  0.38267  1.0000
  N   N3        1.0  0.20617  0.43232  0.04894  1.0000
  C   C36       1.0  0.15158  0.45511  0.00178  1.0000
  H   H27       1.0  0.31287  0.10698  0.14590  1.0000
  C   C37       1.0  0.25345  0.36552  0.99529  1.0000
  C   C38       1.0  0.04485  0.16326  0.47229  1.0000
  C   C39       1.0  0.08324  0.15730  0.13640  1.0000
  H   H28       1.0  0.08298  0.14904  0.16805  1.0000
  N   N4        1.0  0.07929  0.15095  0.06180  1.0000
  C   C40       1.0  0.08434  0.17726  0.05501  1.0000
  C   C41       1.0  0.07853  0.14093  0.10189  1.0000
  H   H29       1.0  0.00978  0.26103  0.48100  1.0000
  H   H30       1.0  0.20819  0.11404  0.00493  1.0000
  C   C42       1.0  0.30378  0.24698  0.02915  1.0000
  H   H31       1.0  0.22663  0.02986  0.10596  1.0000
  H   H32       1.0  0.20368  0.16745  0.01669  1.0000
  H   H33       1.0  0.05851  0.19098  0.40558  1.0000
  H   H34       1.0  0.29646  0.24116  0.05870  1.0000
  H   H35       1.0  0.18616  0.17046  0.06140  1.0000
  H   H36       1.0  0.23612  0.41378  0.04052  1.0000
  S   S14       1.0  0.33018  0.35687  0.03476  1.0000
  H   H37       1.0  0.08517  0.18511  0.02317  1.0000
  C   C43       1.0  0.13108  0.19677  0.00619  1.0000
  H   H38       1.0  0.09251  0.19688  0.15624  1.0000
  N   N5        1.0  0.05883  0.15505  0.44186  1.0000
  C   C44       1.0  0.26187  0.11284  0.99230  1.0000
  S   S15       1.0  0.15320  0.03380  0.99925  1.0000
  H   H39       1.0  0.19443  0.26350  0.07239  1.0000
  C   C45       1.0  0.19206  0.22198  0.05291  1.0000
  H   H40       1.0  0.08735  0.13463  0.00201  1.0000
  C   C46       1.0  0.12549  0.47010  0.05266  1.0000
  N   N6        1.0  0.18750  0.20471  0.02066  1.0000
  H   H41       1.0  0.19532  0.39212  0.04267  1.0000
  H   H42       1.0  0.18567  0.28130  0.00169  1.0000
  H   H43       1.0  0.08220  0.12615  0.42395  1.0000
  C   C47       1.0  0.17437  0.41576  0.08137  1.0000
  H   H44       1.0  0.07456  0.12006  0.10750  1.0000
  C   C48       1.0  0.08860  0.18408  0.12974  1.0000
  C   C49       1.0  0.31783  0.28065  0.98427  1.0000
  H   H45       1.0  0.16314  0.39963  0.08640  1.0000
  H   H46       1.0  0.30772  0.20591  0.00825  1.0000
  C   C50       1.0  0.18672  0.25979  0.00673  1.0000
  H   H47       1.0  0.31840  0.05806  0.13321  1.0000
  Fe  Fe7       1.0  0.14139  0.32085  0.99246  1.0000
  H   H48       1.0  0.21319  0.47366  0.05962  1.0000
  H   H49       1.0  0.31037  0.98290  0.01722  1.0000
  C   C51       1.0  0.23226  0.35838  0.00278  1.0000
  C   C52       1.0  0.32829  0.09943  0.13645  1.0000
  H   H50       1.0  0.29608  0.31272  0.03514  1.0000
  H   H51       1.0  0.15619  0.44457  0.11706  1.0000
  Fe  Fe8       1.0  0.13693  0.38209  0.99315  1.0000
  C   C53       1.0  0.20763  0.04645  0.02313  1.0000
  H   H52       1.0  0.23368  0.44598  0.01524  1.0000
  C   C54       1.0  0.17049  0.44101  0.09876  1.0000
  C   C55       1.0  0.12988  0.24362  0.98375  1.0000
  S   S16       1.0  0.32950  0.10459  0.02449  1.0000
  S   S17       1.0  0.00301  0.07088  0.36176  1.0000
  S   S18       1.0  0.00216  0.13695  0.37118  1.0000
  H   H53       1.0  0.25927  0.05219  0.04560  1.0000
  H   H54       1.0  0.22074  0.41734  0.99312  1.0000
  H   H55       1.0  0.07248  0.11240  0.03497  1.0000
  H   H56       1.0  0.32809  0.02661  0.00456  1.0000
  C   C56       1.0  0.33136  0.07206  0.12926  1.0000
  C   C57       1.0  0.24672  0.04852  0.98326  1.0000
  C   C58       1.0  0.09113  0.41206  0.85478  1.0000
  H   H57       1.0  0.04433  0.29165  0.58114  1.0000
  Fe  Fe9       1.0  0.13648  0.35147  0.90963  1.0000
  H   H58       1.0  0.02304  0.26881  0.63559  1.0000
  S   S19       1.0  0.12423  0.35623  0.84169  1.0000
  C   C59       1.0  0.03707  0.27975  0.64498  1.0000
  H   H59       1.0  0.02452  0.28401  0.74273  1.0000
  S   S20       1.0  0.15584  0.38628  0.93384  1.0000
  S   S21       1.0  0.16064  0.32102  0.93254  1.0000
  H   H60       1.0  0.09289  0.41139  0.82079  1.0000
  H   H61       1.0  0.32180  0.30151  0.97850  1.0000
  Fe  Fe10      1.0  0.01317  0.34886  0.69158  1.0000
  S   S22       1.0  0.03442  0.34288  0.75000  1.0000
  S   S23       1.0  0.01858  0.35365  0.62112  1.0000
  H   H62       1.0  0.23564  0.11075  0.94948  1.0000
  H   H63       1.0  0.26208  0.05022  0.96797  1.0000
  C   C60       1.0  0.06683  0.30738  0.62555  1.0000
  N   N7        1.0  0.04264  0.28151  0.68649  1.0000
  N   N8        1.0  0.10721  0.42138  0.87937  1.0000
  H   H64       1.0  0.12371  0.44217  0.83077  1.0000
  C   C61       1.0  0.09918  0.35171  0.81675  1.0000
  C   C62       1.0  0.08171  0.34058  0.83755  1.0000
  C   C63       1.0  0.06210  0.33819  0.81666  1.0000
  C   C64       1.0  0.05953  0.34707  0.77486  1.0000
  C   C65       1.0  0.07698  0.35826  0.75410  1.0000
  C   C66       1.0  0.09664  0.36039  0.77482  1.0000
  H   H65       1.0  0.08330  0.33378  0.86972  1.0000
  H   H66       1.0  0.04879  0.32939  0.83310  1.0000
  H   H67       1.0  0.07534  0.36527  0.72205  1.0000
  H   H68       1.0  0.10999  0.36907  0.75832  1.0000
  H   H69       1.0  0.08618  0.32039  0.67747  1.0000
  H   H70       1.0  0.13652  0.44281  0.88104  1.0000
  C   C67       1.0  0.05657  0.12770  0.51805  1.0000
  C   C68       1.0  0.32430  0.26116  0.95513  1.0000
  C   C69       1.0  0.04909  0.29263  0.61392  1.0000
  C   C70       1.0  0.07249  0.40234  0.87308  1.0000
  C   C71       1.0  0.04359  0.14986  0.51089  1.0000
  H   H71       1.0  0.12356  0.20976  0.94326  1.0000
  H   H72       1.0  0.03904  0.25297  0.73552  1.0000
  H   H73       1.0  0.17820  0.24970  0.94310  1.0000
  H   H74       1.0  0.19435  0.04359  0.96083  1.0000
  C   C72       1.0  0.00552  0.99824  0.52872  1.0000
  H   H75       1.0  0.25806  0.37291  0.96455  1.0000
  C   C73       1.0  0.07068  0.11929  0.48671  1.0000
  H   H76       1.0  0.05629  0.39399  0.93151  1.0000
  C   C74       1.0  0.01105  0.45748  0.54275  1.0000
  H   H77       1.0  0.17911  0.20069  0.95598  1.0000
  H   H78       1.0  0.13657  0.41232  0.85034  1.0000
  C   C75       1.0  0.00360  0.24548  0.50131  1.0000
  C   C76       1.0  0.12698  0.43017  0.85945  1.0000
  C   C77       1.0  0.08695  0.41154  0.94171  1.0000
  H   H79       1.0  0.07596  0.31798  0.60182  1.0000
  Fe  Fe11      1.0  0.31664  0.11063  0.95980  1.0000
  Fe  Fe12      1.0  0.17785  0.35575  0.96244  1.0000
  C   C78       1.0  0.10532  0.42120  0.92232  1.0000
  H   H80       1.0  0.32583  0.21875  0.94175  1.0000
  H   H81       1.0  0.02366  0.44411  0.55213  1.0000
  C   C79       1.0  0.07257  0.30873  0.66786  1.0000
  C   C80       1.0  0.06030  0.29542  0.69803  1.0000
  H   H82       1.0  0.06459  0.29699  0.73100  1.0000
  S   S24       1.0  0.28084  0.10766  0.95139  1.0000
  H   H83       1.0  0.12733  0.25839  0.95935  1.0000
  H   H84       1.0  0.01524  0.25937  0.70613  1.0000
  H   H85       1.0  0.03203  0.15613  0.53440  1.0000
  H   H86       1.0  0.05997  0.39446  0.85338  1.0000
  C   C81       1.0  0.32030  0.23416  0.96340  1.0000
  C   C82       1.0  0.22842  0.04639  0.95916  1.0000
  C   C83       1.0  0.02973  0.26871  0.71924  1.0000
  S   S25       1.0  0.21357  0.36256  0.96150  1.0000
  H   H87       1.0  0.01437  0.01642  0.53431  1.0000
  C   C84       1.0  0.12777  0.21608  0.97474  1.0000
  C   C85       1.0  0.07048  0.40196  0.91686  1.0000
  C   C86       1.0  0.18294  0.21438  0.98142  1.0000
  H   H88       1.0  0.08044  0.10163  0.49138  1.0000
  H   H89       1.0  0.11813  0.42830  0.94191  1.0000
  S   S26       1.0  0.11624  0.34903  0.96814  1.0000
  C   C87       1.0  0.18247  0.24203  0.97387  1.0000
  H   H90       1.0  0.22950  0.04604  0.92504  1.0000
  H   H91       1.0  0.05528  0.11667  0.54737  1.0000
  H   H92       1.0  0.08569  0.41115  0.97585  1.0000
  S   S27       1.0  0.00053  0.28653  0.56119  1.0000
  H   H93       1.0  0.16316  0.98503  0.95586  1.0000
  C   C88       1.0  0.20874  0.04522  0.97915  1.0000
  C   C89       1.0  0.00155  0.21895  0.48534  1.0000
  C   C90       1.0  0.24028  0.11277  0.98209  1.0000
  H   H94       1.0  0.15838  0.43949  0.98229  1.0000
  Fe  Fe13      1.0  0.30608  0.84617  0.10345  1.0000
  S   S28       1.0  0.27168  0.83251  0.10586  1.0000
  S   S29       1.0  0.31975  0.88075  0.13994  1.0000
  S   S30       1.0  0.15660  0.84738  0.01769  1.0000
  S   S31       1.0  0.12377  0.91328  0.02827  1.0000
  S   S32       1.0  0.12977  0.78307  0.03807  1.0000
  Fe  Fe14      1.0  0.18135  0.61717  0.09575  1.0000
  S   S33       1.0  0.16835  0.60645  0.03307  1.0000
  S   S34       1.0  0.21533  0.63196  0.09979  1.0000
  Fe  Fe15      1.0  0.13892  0.60292  0.14107  1.0000
  S   S35       1.0  0.12370  0.59083  0.07963  1.0000
  S   S36       1.0  0.12381  0.60341  0.20751  1.0000
  Fe  Fe16      1.0  0.15482  0.57006  0.06491  1.0000
  H   H95       1.0  0.28212  0.90392  0.07607  1.0000
  Fe  Fe17      1.0  0.13923  0.62830  0.05406  1.0000
  H   H96       1.0  0.09077  0.64126  0.07263  1.0000
  S   S37       1.0  0.16924  0.57993  0.12759  1.0000
  S   S38       1.0  0.15290  0.64139  0.11566  1.0000
  H   H97       1.0  0.21511  0.57511  0.07142  1.0000
  Fe  Fe18      1.0  0.01334  0.60133  0.35951  1.0000
  S   S39       1.0  0.03183  0.60365  0.29630  1.0000
  S   S40       1.0  0.01904  0.60151  0.43019  1.0000
  C   C91       1.0  0.09802  0.60225  0.23142  1.0000
  C   C92       1.0  0.09627  0.60388  0.27566  1.0000
  C   C93       1.0  0.07631  0.60398  0.29616  1.0000
  C   C94       1.0  0.05767  0.60274  0.27266  1.0000
  C   C95       1.0  0.05942  0.60120  0.22840  1.0000
  C   C96       1.0  0.07937  0.60074  0.20793  1.0000
  H   H98       1.0  0.11049  0.60504  0.29435  1.0000
  H   H99       1.0  0.07538  0.60519  0.33014  1.0000
  H   H100      1.0  0.04519  0.60009  0.20975  1.0000
  H   H101      1.0  0.08024  0.59901  0.17404  1.0000
  C   C97       1.0  0.23343  0.63163  0.05674  1.0000
  C   C98       1.0  0.25504  0.63533  0.06469  1.0000
  C   C99       1.0  0.27002  0.63429  0.03173  1.0000
  C   C100      1.0  0.09771  0.65497  0.13569  1.0000
  C   C101      1.0  0.22691  0.62762  0.01512  1.0000
  H   H102      1.0  0.26027  0.63865  0.09666  1.0000
  H   H103      1.0  0.28651  0.63708  0.03866  1.0000
  C   C102      1.0  0.13472  0.49579  0.05337  1.0000
  C   C103      1.0  0.13303  0.94644  0.02108  1.0000
  C   C104      1.0  0.15249  0.50116  0.02843  1.0000
  H   H104      1.0  0.21036  0.62499  0.00820  1.0000
  C   C105      1.0  0.22601  0.83971  0.99376  1.0000
  H   H105      1.0  0.12826  0.51129  0.07362  1.0000
  C   C106      1.0  0.27803  0.56657  0.06131  1.0000
  C   C107      1.0  0.12983  0.74839  0.02740  1.0000
  C   C108      1.0  0.19354  0.72949  0.05856  1.0000
  C   C109      1.0  0.13393  0.70283  0.05402  1.0000
  C   C110      1.0  0.13459  0.73069  0.06032  1.0000
  H   H106      1.0  0.13737  0.68952  0.07981  1.0000
  H   H107      1.0  0.13868  0.73858  0.09097  1.0000
  H   H108      1.0  0.08472  0.72594  0.09495  1.0000
  C   C111      1.0  0.18780  0.68442  0.03335  1.0000
  H   H109      1.0  0.29413  0.68858  0.06418  1.0000
  H   H110      1.0  0.29106  0.73644  0.08486  1.0000
  C   C112      1.0  0.25451  0.83420  0.06185  1.0000
  C   C113      1.0  0.23265  0.83062  0.06789  1.0000
  C   C114      1.0  0.21845  0.83341  0.03407  1.0000
  C   C115      1.0  0.10574  0.67223  0.20586  1.0000
  C   C116      1.0  0.26208  0.83952  0.02124  1.0000
  H   H111      1.0  0.22662  0.82630  0.09912  1.0000
  H   H112      1.0  0.20164  0.83135  0.03945  1.0000
  N   N9        1.0  0.18494  0.73966  0.02248  1.0000
  H   H113      1.0  0.08211  0.68680  0.04656  1.0000
  H   H114      1.0  0.19912  0.74287  0.08305  1.0000
  H   H115      1.0  0.01118  0.75646  0.47652  1.0000
  C   C117      1.0  0.23705  0.90620  0.99472  1.0000
  C   C118      1.0  0.26947  0.90481  0.05309  1.0000
  H   H116      1.0  0.28897  0.56869  0.08733  1.0000
  H   H117      1.0  0.31428  0.79163  0.02559  1.0000
  C   C119      1.0  0.00015  0.71540  0.48016  1.0000
  H   H118      1.0  0.17452  0.48481  0.98304  1.0000
  C   C120      1.0  0.08793  0.70584  0.10647  1.0000
  N   N10       1.0  0.23253  0.90164  0.03630  1.0000
  S   S41       1.0  0.31991  0.85868  0.04198  1.0000
  C   C121      1.0  0.09132  0.65830  0.09394  1.0000
  S   S42       1.0  0.00687  0.52752  0.47356  1.0000
  H   H119      1.0  0.20176  0.69352  0.09328  1.0000
  S   S43       1.0  0.16580  0.53227  0.03053  1.0000
  C   C122      1.0  0.29721  0.73133  0.05391  1.0000
  H   H120      1.0  0.27880  0.84201  0.01581  1.0000
  H   H121      1.0  0.10743  0.69131  0.22359  1.0000
  C   C123      1.0  0.28583  0.56441  0.02028  1.0000
  H   H122      1.0  0.30133  0.78209  0.07338  1.0000
  H   H123      1.0  0.24494  0.89713  0.09836  1.0000
  H   H124      1.0  0.28588  0.78738  0.02666  1.0000
  S   S44       1.0  0.32767  0.61984  0.02482  1.0000
  N   N11       1.0  0.24244  0.56406  0.03532  1.0000
  C   C124      1.0  0.09432  0.70177  0.14813  1.0000
  H   H125      1.0  0.21046  0.57110  0.01647  1.0000
  C   C125      1.0  0.26360  0.62982  0.99020  1.0000
  N   N12       1.0  0.30349  0.75107  0.02668  1.0000
  C   C126      1.0  0.30110  0.77937  0.03861  1.0000
  C   C127      1.0  0.27424  0.90918  0.01072  1.0000
  H   H126      1.0  0.11530  0.96174  0.07417  1.0000
  C   C128      1.0  0.12590  0.96674  0.04848  1.0000
  H   H127      1.0  0.09561  0.71897  0.16889  1.0000
  H   H128      1.0  0.21452  0.54186  0.04867  1.0000
  H   H129      1.0  0.10184  0.63507  0.14663  1.0000
  C   C129      1.0  0.25614  0.56637  0.06834  1.0000
  H   H130      1.0  0.09395  0.65956  0.22264  1.0000
  H   H131      1.0  0.25017  0.56853  0.10028  1.0000
  H   H132      1.0  0.19933  0.77695  0.00720  1.0000
  S   S45       1.0  0.12500  0.65748  0.00739  1.0000
  H   H133      1.0  0.12127  0.66168  0.20652  1.0000
  H   H134      1.0  0.20340  0.91838  0.05721  1.0000
  C   C130      1.0  0.19507  0.70172  0.06458  1.0000
  N   N13       1.0  0.09911  0.67653  0.16220  1.0000
  C   C131      1.0  0.12788  0.69239  0.01504  1.0000
  C   C132      1.0  0.21046  0.89849  0.04984  1.0000
  H   H135      1.0  0.17188  0.77433  0.99247  1.0000
  C   C133      1.0  0.18368  0.76882  0.01680  1.0000
  C   C134      1.0  0.08638  0.68390  0.07933  1.0000
  H   H136      1.0  0.20926  0.88542  0.07809  1.0000
  C   C135      1.0  0.24840  0.90110  0.06545  1.0000
  C   C136      1.0  0.30664  0.69748  0.00262  1.0000
  C   C137      1.0  0.29881  0.70426  0.04239  1.0000
  H   H137      1.0  0.00694  0.70975  0.45008  1.0000
  H   H138      1.0  0.20090  0.88873  0.02480  1.0000
  S   S46       1.0  0.32435  0.93293  0.05103  1.0000
  H   H139      1.0  0.17832  0.77880  0.04637  1.0000
  H   H140      1.0  0.30803  0.67655  0.99334  1.0000
  C   C138      1.0  0.21958  0.56289  0.04338  1.0000
  C   C139      1.0  0.24792  0.84211  0.98742  1.0000
  H   H141      1.0  0.18858  0.66290  0.03796  1.0000
  C   C140      1.0  0.16075  0.48079  0.00239  1.0000
  Fe  Fe19      1.0  0.13480  0.87769  0.98923  1.0000
  C   C141      1.0  0.24999  0.56171  0.99498  1.0000
  Fe  Fe20      1.0  0.13505  0.81621  0.99027  1.0000
  H   H142      1.0  0.30274  0.56484  0.01436  1.0000
  H   H143      1.0  0.29057  0.91174  0.00076  1.0000
  C   C142      1.0  0.31111  0.74458  0.98751  1.0000
  C   C143      1.0  0.27176  0.56208  0.98683  1.0000
  C   C144      1.0  0.12448  0.73806  0.98792  1.0000
  C   C145      1.0  0.14672  0.95309  0.98798  1.0000
  H   H144      1.0  0.18128  0.48186  0.10321  1.0000
  C   C146      1.0  0.17815  0.72278  0.99133  1.0000
  C   C147      1.0  0.17935  0.69493  0.99640  1.0000
  H   H145      1.0  0.99824  0.56503  0.26700  1.0000
  H   H146      1.0  0.08312  0.90889  0.98410  1.0000
  H   H147      1.0  0.02396  0.77838  0.76172  1.0000
  S   S47       1.0  0.20883  0.84671  0.95116  1.0000
  Fe  Fe21      1.0  0.13030  0.84632  0.90679  1.0000
  C   C148      1.0  0.05436  0.79447  0.64205  1.0000
  S   S48       1.0  0.11737  0.85191  0.83961  1.0000
  C   C149      1.0  0.00197  0.55698  0.56359  1.0000
  C   C150      1.0  0.06615  0.89471  0.88509  1.0000
  S   S49       1.0  0.15250  0.87919  0.92803  1.0000
  S   S50       1.0  0.15259  0.81340  0.92851  1.0000
  H   H148      1.0  0.11387  0.93458  0.82943  1.0000
  S   S51       1.0  0.28204  0.62738  0.94780  1.0000
  Fe  Fe22      1.0  0.00960  0.84386  0.68604  1.0000
  S   S52       1.0  0.02809  0.83604  0.74744  1.0000
  S   S53       1.0  0.01862  0.84812  0.61728  1.0000
  N   N14       1.0  0.10016  0.91610  0.88353  1.0000
  H   H149      1.0  0.26155  0.91282  0.94816  1.0000
  C   C151      1.0  0.02694  0.76128  0.63517  1.0000
  C   C152      1.0  0.02655  0.75849  0.67896  1.0000
  C   C153      1.0  0.00254  0.74208  0.49537  1.0000
  H   H150      1.0  0.23669  0.62374  0.95003  1.0000
  C   C154      1.0  0.09245  0.84685  0.81458  1.0000
  C   C155      1.0  0.07513  0.83532  0.83532  1.0000
  C   C156      1.0  0.05560  0.83250  0.81436  1.0000
  C   C157      1.0  0.05298  0.84127  0.77251  1.0000
  C   C158      1.0  0.07026  0.85290  0.75184  1.0000
  C   C159      1.0  0.08984  0.85556  0.77271  1.0000
  H   H151      1.0  0.07680  0.82855  0.86749  1.0000
  H   H152      1.0  0.04239  0.82341  0.83073  1.0000
  H   H153      1.0  0.06860  0.85975  0.71971  1.0000
  H   H154      1.0  0.10307  0.86455  0.75627  1.0000
  H   H155      1.0  0.08388  0.90284  0.82871  1.0000
  C   C160      1.0  0.12325  0.71009  0.98195  1.0000
  H   H156      1.0  0.04091  0.78225  0.58272  1.0000
  C   C161      1.0  0.10006  0.91762  0.92654  1.0000
  H   H157      1.0  0.04004  0.74823  0.75811  1.0000
  C   C162      1.0  0.04091  0.77944  0.61666  1.0000
  H   H158      1.0  0.01084  0.53852  0.56777  1.0000
  H   H159      1.0  0.27773  0.56127  0.95472  1.0000
  H   H160      1.0  0.11850  0.70216  0.95171  1.0000
  Fe  Fe23      1.0  0.17284  0.84635  0.95526  1.0000
  H   H161      1.0  0.06489  0.80914  0.62802  1.0000
  H   H162      1.0  0.31624  0.76021  0.96603  1.0000
  H   H163      1.0  0.03621  0.56704  0.50669  1.0000
  H   H164      1.0  0.17123  0.73077  0.96277  1.0000
  C   C163      1.0  0.08353  0.90476  0.86275  1.0000
  H   H165      1.0  0.12912  0.90777  0.85247  1.0000
  C   C164      1.0  0.06591  0.89623  0.92898  1.0000
  C   C165      1.0  0.99971  0.49826  0.50442  1.0000
  S   S54       1.0  0.11139  0.84676  0.96721  1.0000
  H   H166      1.0  0.01614  0.74992  0.61566  1.0000
  C   C166      1.0  0.03424  0.57813  0.53691  1.0000
  H   H167      1.0  0.31928  0.71257  0.94421  1.0000
  H   H168      1.0  0.01864  0.97744  0.58251  1.0000
  H   H169      1.0  0.01524  0.74486  0.69313  1.0000
  H   H170      1.0  0.06399  0.80306  0.70528  1.0000
  C   C167      1.0  0.11869  0.92520  0.85961  1.0000
  N   N15       1.0  0.04001  0.77302  0.70362  1.0000
  C   C168      1.0  0.05374  0.79095  0.68574  1.0000
  H   H171      1.0  0.25397  0.84676  0.95632  1.0000
  C   C169      1.0  0.03904  0.76976  0.74948  1.0000
  Fe  Fe24      1.0  0.31735  0.62088  0.95812  1.0000
  H   H172      1.0  0.05217  0.78045  0.76544  1.0000
  H   H173      1.0  0.17324  0.68156  0.97235  1.0000
  C   C170      1.0  0.15283  0.97995  0.98191  1.0000
  C   C171      1.0  0.08293  0.90785  0.94991  1.0000
  C   C172      1.0  0.00792  0.97593  0.55620  1.0000
  H   H174      1.0  0.04116  0.59845  0.53298  1.0000
  H   H175      1.0  0.05320  0.88528  0.86839  1.0000
  H   H176      1.0  0.04333  0.56751  0.56165  1.0000
  H   H177      1.0  0.15241  0.93765  0.96680  1.0000
  H   H178      1.0  0.12792  0.94030  0.87755  1.0000
  H   H179      1.0  0.00795  0.61996  0.52793  1.0000
  H   H180      1.0  0.22451  0.90614  0.97150  1.0000
  S   S55       1.0  0.00020  0.92414  0.58658  1.0000
  H   H181      1.0  0.12062  0.75158  0.96245  1.0000
  H   H182      1.0  0.11335  0.92619  0.94311  1.0000
  C   C173      1.0  0.31285  0.71772  0.97495  1.0000
  H   H183      1.0  0.05270  0.88816  0.94680  1.0000
  N   N16       1.0  0.01174  0.57939  0.54814  1.0000
  C   C174      1.0  0.00036  0.60229  0.54094  1.0000
  H   H184      1.0  0.03190  0.48425  0.50858  1.0000
  H   H185      1.0  0.23918  0.56021  0.96871  1.0000
  C   C175      1.0  0.01570  0.48044  0.51786  1.0000
  C   C176      1.0  0.25796  0.90989  0.98127  1.0000
  C   C177      1.0  0.24190  0.62693  0.98206  1.0000
  H   H186      1.0  0.39721  0.11820  0.11995  1.0000
  C   C178      1.0  0.36758  0.08111  0.10985  1.0000
  H   H187      1.0  0.56411  0.18198  0.99588  1.0000
  Fe  Fe25      1.0  0.35570  0.33137  0.06287  1.0000
  N   N17       1.0  0.56848  0.41797  0.31706  1.0000
  S   S56       1.0  0.36710  0.29564  0.02441  1.0000
  Fe  Fe26      1.0  0.36192  0.36924  0.13897  1.0000
  S   S57       1.0  0.38745  0.38420  0.18503  1.0000
  S   S58       1.0  0.37661  0.36689  0.07424  1.0000
  H   H188      1.0  0.58366  0.23862  0.98793  1.0000
  C   C179      1.0  0.58962  0.41328  0.32247  1.0000
  Fe  Fe27      1.0  0.64992  0.39435  0.07373  1.0000
  C   C180      1.0  0.33681  0.01016  0.01837  1.0000
  C   C181      1.0  0.62731  0.46971  0.05430  1.0000
  Fe  Fe28      1.0  0.63751  0.33505  0.05788  1.0000
  H   H189      1.0  0.37935  0.14601  0.12652  1.0000
  C   C182      1.0  0.39298  0.45849  0.07514  1.0000
  Fe  Fe29      1.0  0.63502  0.35817  0.14663  1.0000
  S   S59       1.0  0.62045  0.35674  0.21357  1.0000
  C   C183      1.0  0.35810  0.01349  0.02860  1.0000
  S   S60       1.0  0.61980  0.37076  0.08529  1.0000
  Fe  Fe30      1.0  0.63707  0.08520  0.99064  1.0000
  S   S61       1.0  0.63127  0.05047  0.03553  1.0000
  S   S62       1.0  0.63077  0.17990  0.04404  1.0000
  C   C184      1.0  0.36814  0.24181  0.00717  1.0000
  Fe  Fe31      1.0  0.46467  0.35936  0.38652  1.0000
  S   S63       1.0  0.48918  0.32703  0.37667  1.0000
  S   S64       1.0  0.43187  0.35077  0.35876  1.0000
  Fe  Fe32      1.0  0.49467  0.39480  0.44015  1.0000
  S   S65       1.0  0.52113  0.36427  0.43188  1.0000
  H   H190      1.0  0.33739  0.45294  0.08123  1.0000
  Fe  Fe33      1.0  0.51159  0.36127  0.36345  1.0000
  S   S66       1.0  0.52836  0.36410  0.29867  1.0000
  Fe  Fe34      1.0  0.49679  0.33173  0.44572  1.0000
  H   H191      1.0  0.35358  0.04165  0.10916  1.0000
  S   S67       1.0  0.48656  0.39345  0.37080  1.0000
  S   S68       1.0  0.47089  0.36245  0.45685  1.0000
  H   H192      1.0  0.39874  0.44909  0.04640  1.0000
  H   H193      1.0  0.34250  0.13849  0.13492  1.0000
  C   C185      1.0  0.59429  0.35528  0.23528  1.0000
  C   C186      1.0  0.59176  0.35036  0.27875  1.0000
  C   C187      1.0  0.57167  0.35185  0.29849  1.0000
  C   C188      1.0  0.55375  0.35848  0.27500  1.0000
  C   C189      1.0  0.55618  0.36260  0.23130  1.0000
  C   C190      1.0  0.57625  0.36095  0.21153  1.0000
  H   H194      1.0  0.60554  0.34581  0.29748  1.0000
  H   H195      1.0  0.57017  0.34836  0.33197  1.0000
  H   H196      1.0  0.54249  0.36765  0.21265  1.0000
  H   H197      1.0  0.57784  0.36480  0.17814  1.0000
  C   C191      1.0  0.63091  0.27039  0.01819  1.0000
  C   C192      1.0  0.63147  0.21459  0.03314  1.0000
  C   C193      1.0  0.62669  0.23269  0.06575  1.0000
  C   C194      1.0  0.62659  0.26049  0.05845  1.0000
  H   H198      1.0  0.54396  0.42714  0.27345  1.0000
  H   H199      1.0  0.62250  0.27420  0.08368  1.0000
  C   C195      1.0  0.64792  0.46523  0.03961  1.0000
  S   S69       1.0  0.65125  0.32147  0.11917  1.0000
  C   C196      1.0  0.63234  0.01594  0.02317  1.0000
  H   H200      1.0  0.38267  0.07378  0.09804  1.0000
  H   H201      1.0  0.59561  0.40751  0.35307  1.0000
  C   C197      1.0  0.37867  0.45387  0.14537  1.0000
  H   H202      1.0  0.61870  0.45359  0.06931  1.0000
  C   C198      1.0  0.39925  0.37464  0.23380  1.0000
  C   C199      1.0  0.41796  0.38757  0.24654  1.0000
  C   C200      1.0  0.42820  0.38054  0.28443  1.0000
  C   C201      1.0  0.41967  0.36069  0.31058  1.0000
  C   C202      1.0  0.40093  0.34782  0.29789  1.0000
  C   C203      1.0  0.39088  0.35454  0.25964  1.0000
  H   H203      1.0  0.42462  0.40317  0.22694  1.0000
  H   H204      1.0  0.44255  0.39067  0.29364  1.0000
  H   H205      1.0  0.39411  0.33249  0.31785  1.0000
  H   H206      1.0  0.37649  0.34445  0.25054  1.0000
  C   C204      1.0  0.36242  0.26157  0.03676  1.0000
  Fe  Fe35      1.0  0.34857  0.14160  0.01081  1.0000
  H   H207      1.0  0.62022  0.40955  0.29207  1.0000
  C   C205      1.0  0.35426  0.20676  0.05253  1.0000
  C   C206      1.0  0.34889  0.22644  0.08254  1.0000
  Fe  Fe36      1.0  0.35536  0.08126  0.99248  1.0000
  C   C207      1.0  0.34877  0.46036  0.01834  1.0000
  H   H208      1.0  0.38279  0.13128  0.07538  1.0000
  H   H209      1.0  0.58484  0.19712  0.02722  1.0000
  C   C208      1.0  0.35294  0.48019  0.98804  1.0000
  C   C209      1.0  0.36390  0.21454  0.01479  1.0000
  H   H210      1.0  0.34154  0.22055  0.11194  1.0000
  H   H211      1.0  0.55840  0.42955  0.37855  1.0000
  H   H212      1.0  0.56820  0.43011  0.21216  1.0000
  S   S70       1.0  0.66014  0.11420  0.01874  1.0000
  C   C210      1.0  0.56080  0.42436  0.27811  1.0000
  C   C211      1.0  0.35112  0.06280  0.11597  1.0000
  S   S71       1.0  0.66421  0.38366  0.13615  1.0000
  H   H213      1.0  0.63399  0.00440  0.08850  1.0000
  H   H214      1.0  0.62289  0.22518  0.09685  1.0000
  Fe  Fe37      1.0  0.63820  0.14670  0.99730  1.0000
  C   C212      1.0  0.35279  0.25379  0.07458  1.0000
  C   C213      1.0  0.60364  0.41461  0.28826  1.0000
  S   S72       1.0  0.34863  0.17271  0.06322  1.0000
  C   C214      1.0  0.63366  0.99732  0.05627  1.0000
  N   N18       1.0  0.36453  0.10786  0.11747  1.0000
  S   S73       1.0  0.66083  0.43380  0.04464  1.0000
  C   C215      1.0  0.59594  0.42094  0.24843  1.0000
  H   H215      1.0  0.53733  0.41900  0.34447  1.0000
  H   H216      1.0  0.38813  0.42053  0.10647  1.0000
  N   N19       1.0  0.44235  0.33293  0.20446  1.0000
  C   C216      1.0  0.44139  0.31881  0.24135  1.0000
  C   C217      1.0  0.45937  0.34896  0.19579  1.0000
  C   C218      1.0  0.45753  0.32101  0.27111  1.0000
  C   C219      1.0  0.47583  0.35153  0.22482  1.0000
  C   C220      1.0  0.47482  0.33749  0.26269  1.0000
  C   C221      1.0  0.42557  0.32995  0.17310  1.0000
  H   H217      1.0  0.42781  0.30638  0.24860  1.0000
  H   H218      1.0  0.46019  0.36002  0.16647  1.0000
  H   H219      1.0  0.45633  0.31063  0.30108  1.0000
  H   H220      1.0  0.48928  0.36439  0.21832  1.0000
  H   H221      1.0  0.48736  0.33957  0.28559  1.0000
  H   H222      1.0  0.42278  0.34915  0.15616  1.0000
  H   H223      1.0  0.42988  0.31412  0.14995  1.0000
  H   H224      1.0  0.41023  0.32466  0.18821  1.0000
  H   H225      1.0  0.34848  0.26880  0.09774  1.0000
  S   S74       1.0  0.33543  0.39669  0.11758  1.0000
  C   C222      1.0  0.63643  0.22449  0.99310  1.0000
  S   S75       1.0  0.35565  0.42668  0.00713  1.0000
  H   H226      1.0  0.55482  0.39438  0.36556  1.0000
  C   C223      1.0  0.55409  0.41522  0.35321  1.0000
  C   C224      1.0  0.38684  0.44216  0.10883  1.0000
  S   S76       1.0  0.62872  0.30496  0.00706  1.0000
  C   C225      1.0  0.57441  0.42604  0.24328  1.0000
  C   C226      1.0  0.36920  0.99188  0.04654  1.0000
  Fe  Fe38      1.0  0.34959  0.39263  0.05304  1.0000
  H   H227      1.0  0.36823  0.19956  0.99156  1.0000
  C   C227      1.0  0.38186  0.12670  0.10956  1.0000
  S   S77       1.0  0.34246  0.33160  0.12865  1.0000
  H   H228      1.0  0.38567  0.99429  0.05466  1.0000
  C   C228      1.0  0.34514  0.11717  0.13024  1.0000
  C   C229      1.0  0.34077  0.46801  0.05773  1.0000
  H   H229      1.0  0.60652  0.42075  0.22134  1.0000
  S   S78       1.0  0.37127  0.04445  0.02053  1.0000
  H   H230      1.0  0.47532  0.25400  0.46997  1.0000
  C   C230      1.0  0.63601  0.25233  0.98563  1.0000
  H   H231      1.0  0.37369  0.44125  0.17148  1.0000
  H   H232      1.0  0.51325  0.01809  0.47900  1.0000
  C   C231      1.0  0.58137  0.18561  0.99801  1.0000
  S   S79       1.0  0.37592  0.11776  0.98530  1.0000
  H   H233      1.0  0.58970  0.16611  0.00151  1.0000
  S   S80       1.0  0.50336  0.43301  0.47956  1.0000
  H   H234      1.0  0.46413  0.46620  0.48160  1.0000
  H   H235      1.0  0.47000  0.10333  0.76204  1.0000
  H   H236      1.0  0.48847  0.10521  0.80508  1.0000
  H   H237      1.0  0.53879  0.38052  0.55949  1.0000
  C   C232      1.0  0.42451  0.07493  0.87106  1.0000
  Fe  Fe39      1.0  0.36097  0.12250  0.92146  1.0000
  S   S81       1.0  0.38517  0.13757  0.87223  1.0000
  H   H238      1.0  0.35901  0.47441  0.95739  1.0000
  H   H239      1.0  0.48437  0.32915  0.55987  1.0000
  H   H240      1.0  0.60787  0.23805  0.86141  1.0000
  C   C233      1.0  0.49918  0.26473  0.51491  1.0000
  H   H241      1.0  0.52327  0.33472  0.55579  1.0000
  Fe  Fe40      1.0  0.63018  0.11998  0.91218  1.0000
  S   S82       1.0  0.61371  0.13130  0.84994  1.0000
  S   S83       1.0  0.65390  0.15097  0.93435  1.0000
  Fe  Fe41      1.0  0.46334  0.10492  0.67193  1.0000
  S   S84       1.0  0.48474  0.13982  0.68492  1.0000
  S   S85       1.0  0.43165  0.09533  0.70440  1.0000
  Fe  Fe42      1.0  0.49434  0.07859  0.60672  1.0000
  S   S86       1.0  0.51829  0.11190  0.61711  1.0000
  S   S87       1.0  0.50076  0.04553  0.55575  1.0000
  Fe  Fe43      1.0  0.51082  0.10857  0.68708  1.0000
  S   S88       1.0  0.52951  0.10005  0.74794  1.0000
  Fe  Fe44      1.0  0.49077  0.14138  0.61419  1.0000
  S   S89       1.0  0.48691  0.17869  0.56996  1.0000
  S   S90       1.0  0.48885  0.07356  0.67632  1.0000
  S   S91       1.0  0.46732  0.10805  0.60130  1.0000
  S   S92       1.0  0.65242  0.08535  0.92645  1.0000
  N   N20       1.0  0.45887  0.08599  0.81881  1.0000
  C   C234      1.0  0.49630  0.46499  0.50319  1.0000
  C   C235      1.0  0.49787  0.01104  0.53875  1.0000
  C   C236      1.0  0.44605  0.06465  0.81005  1.0000
  H   H242      1.0  0.48215  0.99654  0.59447  1.0000
  C   C237      1.0  0.58854  0.22743  0.96014  1.0000
  H   H243      1.0  0.60746  0.18811  0.86206  1.0000
  H   H244      1.0  0.43359  0.11033  0.90524  1.0000
  N   N21       1.0  0.55169  0.04701  0.60213  1.0000
  H   H245      1.0  0.44872  0.05267  0.78193  1.0000
  C   C238      1.0  0.48074  0.22138  0.51407  1.0000
  C   C239      1.0  0.49216  0.21192  0.54921  1.0000
  C   C240      1.0  0.50699  0.22933  0.56723  1.0000
  C   C241      1.0  0.51044  0.25533  0.55026  1.0000
  H   H246      1.0  0.48164  0.43857  0.58079  1.0000
  C   C242      1.0  0.59535  0.24155  0.92452  1.0000
  H   H247      1.0  0.51599  0.22271  0.59414  1.0000
  C   C243      1.0  0.59020  0.12212  0.82220  1.0000
  C   C244      1.0  0.57578  0.10322  0.83766  1.0000
  C   C245      1.0  0.55740  0.09686  0.81451  1.0000
  C   C246      1.0  0.55304  0.10925  0.77561  1.0000
  C   C247      1.0  0.56744  0.12815  0.76012  1.0000
  C   C248      1.0  0.58583  0.13451  0.78327  1.0000
  H   H248      1.0  0.57883  0.09342  0.86739  1.0000
  H   H249      1.0  0.54649  0.08214  0.82692  1.0000
  H   H250      1.0  0.56443  0.13795  0.73038  1.0000
  H   H251      1.0  0.59681  0.14913  0.77083  1.0000
  H   H252      1.0  0.52733  0.01092  0.67838  1.0000
  C   C249      1.0  0.47626  0.09251  0.78986  1.0000
  H   H253      1.0  0.54482  0.06561  0.54389  1.0000
  H   H254      1.0  0.51529  0.41993  0.56726  1.0000
  H   H255      1.0  0.46006  0.41690  0.59460  1.0000
  H   H256      1.0  0.63087  0.02079  0.95593  1.0000
  C   C250      1.0  0.48417  0.24743  0.49713  1.0000
  C   C251      1.0  0.39743  0.12565  0.82493  1.0000
  C   C252      1.0  0.39032  0.10295  0.80328  1.0000
  C   C253      1.0  0.40084  0.09423  0.76628  1.0000
  C   C254      1.0  0.41883  0.10769  0.75081  1.0000
  C   C255      1.0  0.42592  0.13043  0.77236  1.0000
  C   C256      1.0  0.41516  0.13946  0.80888  1.0000
  H   H257      1.0  0.37663  0.09222  0.81490  1.0000
  H   H258      1.0  0.39506  0.07675  0.74974  1.0000
  H   H259      1.0  0.43960  0.14119  0.76082  1.0000
  H   H260      1.0  0.42073  0.15713  0.82519  1.0000
  C   C257      1.0  0.55841  0.06618  0.67025  1.0000
  H   H261      1.0  0.46425  0.11977  0.85867  1.0000
  C   C258      1.0  0.54642  0.04603  0.68913  1.0000
  N   N22       1.0  0.48698  0.39672  0.56904  1.0000
  C   C259      1.0  0.50844  0.39999  0.56699  1.0000
  C   C260      1.0  0.47833  0.37166  0.56658  1.0000
  C   C261      1.0  0.52184  0.37779  0.56239  1.0000
  C   C262      1.0  0.49126  0.34900  0.56257  1.0000
  C   C263      1.0  0.51315  0.35214  0.56026  1.0000
  C   C264      1.0  0.47296  0.42015  0.57132  1.0000
  C   C265      1.0  0.63194  0.00663  0.98163  1.0000
  H   H262      1.0  0.48445  0.07402  0.77877  1.0000
  H   H263      1.0  0.63946  0.25992  0.95444  1.0000
  H   H264      1.0  0.56539  0.08183  0.68953  1.0000
  C   C266      1.0  0.48840  0.99120  0.56379  1.0000
  H   H265      1.0  0.56980  0.08250  0.61188  1.0000
  C   C267      1.0  0.51139  0.47900  0.52735  1.0000
  C   C268      1.0  0.43743  0.09691  0.87931  1.0000
  N   N23       1.0  0.43605  0.19001  0.62070  1.0000
  C   C269      1.0  0.42771  0.18201  0.65850  1.0000
  C   C270      1.0  0.43465  0.17375  0.58603  1.0000
  C   C271      1.0  0.41728  0.15741  0.66209  1.0000
  C   C272      1.0  0.42443  0.14894  0.58859  1.0000
  C   C273      1.0  0.41577  0.14073  0.62695  1.0000
  C   C274      1.0  0.44750  0.21550  0.61816  1.0000
  H   H266      1.0  0.42926  0.19455  0.68625  1.0000
  H   H267      1.0  0.44190  0.17961  0.55637  1.0000
  H   H268      1.0  0.41076  0.15099  0.69209  1.0000
  H   H269      1.0  0.43922  0.23143  0.63637  1.0000
  H   H270      1.0  0.46376  0.21282  0.63064  1.0000
  H   H271      1.0  0.44898  0.22257  0.58506  1.0000
  C   C275      1.0  0.55403  0.04830  0.55620  1.0000
  C   C276      1.0  0.50584  0.00320  0.49892  1.0000
  H   H272      1.0  0.40832  0.12119  0.62982  1.0000
  H   H273      1.0  0.54413  0.04597  0.72306  1.0000
  H   H274      1.0  0.42382  0.13583  0.56130  1.0000
  C   C277      1.0  0.56083  0.06643  0.62642  1.0000
  C   C278      1.0  0.53986  0.02717  0.62042  1.0000
  H   H275      1.0  0.46927  0.20836  0.49942  1.0000
  H   H276      1.0  0.41841  0.04207  0.82873  1.0000
  H   H277      1.0  0.41072  0.07116  0.89073  1.0000
  C   C279      1.0  0.53702  0.02641  0.66413  1.0000
  H   H278      1.0  0.52213  0.26820  0.56452  1.0000
  H   H279      1.0  0.46130  0.36910  0.56677  1.0000
  C   C280      1.0  0.45465  0.10221  0.85268  1.0000
  C   C281      1.0  0.42882  0.05863  0.83626  1.0000
  H   H280      1.0  0.64024  0.21071  0.96779  1.0000
  H   H281      1.0  0.46599  0.42388  0.53977  1.0000
  H   H282      1.0  0.37568  0.24767  0.97792  1.0000
  H   H283      1.0  0.53217  0.01210  0.60116  1.0000
  H   H284      1.0  0.57092  0.05049  0.54714  1.0000
  S   S93       1.0  0.34155  0.08460  0.92754  1.0000
  S   S94       1.0  0.50451  0.29813  0.49495  1.0000
  C   C282      1.0  0.60230  0.22739  0.88908  1.0000
  H   H285      1.0  0.54783  0.02996  0.54057  1.0000
  C   C283      1.0  0.60216  0.19940  0.88948  1.0000
  H   H286      1.0  0.52713  0.47073  0.53041  1.0000
  C   C284      1.0  0.59521  0.18593  0.92559  1.0000
  H   H287      1.0  0.59510  0.16416  0.92538  1.0000
  S   S95       1.0  0.33457  0.14892  0.94728  1.0000
  C   C285      1.0  0.47605  0.47637  0.49991  1.0000
  N   N24       1.0  0.58885  0.19998  0.96056  1.0000
  H   H288      1.0  0.33307  0.26694  0.92713  1.0000
  H   H289      1.0  0.59571  0.26334  0.92494  1.0000
  S   S96       1.0  0.61346  0.11768  0.97501  1.0000
  H   H290      1.0  0.57363  0.78358  0.43336  1.0000
  H   H291      1.0  0.55017  0.87084  0.09762  1.0000
  Fe  Fe45      1.0  0.33477  0.89259  0.07808  1.0000
  Fe  Fe46      1.0  0.34795  0.83385  0.06005  1.0000
  H   H292      1.0  0.61081  0.93391  0.12985  1.0000
  N   N25       1.0  0.40029  0.79101  0.09993  1.0000
  Fe  Fe47      1.0  0.34912  0.85539  0.14972  1.0000
  S   S97       1.0  0.36579  0.84476  0.21190  1.0000
  S   S98       1.0  0.36496  0.86899  0.08950  1.0000
  C   C286      1.0  0.38703  0.75530  0.16181  1.0000
  S   S99       1.0  0.36128  0.67873  0.04899  1.0000
  Fe  Fe48      1.0  0.63885  0.89255  0.04281  1.0000
  C   C287      1.0  0.36511  0.72302  0.99680  1.0000
  C   C288      1.0  0.56224  0.89065  0.04208  1.0000
  Fe  Fe49      1.0  0.63414  0.83137  0.05420  1.0000
  S   S100      1.0  0.64887  0.83212  0.11852  1.0000
  C   C289      1.0  0.38631  0.78287  0.16928  1.0000
  Fe  Fe50      1.0  0.62880  0.86921  0.13030  1.0000
  S   S101      1.0  0.60718  0.88510  0.18372  1.0000
  H   H293      1.0  0.56831  0.90132  0.14682  1.0000
  S   S102      1.0  0.61273  0.86645  0.06735  1.0000
  C   C290      1.0  0.58498  0.92841  0.05569  1.0000
  S   S103      1.0  0.61615  0.54767  0.02301  1.0000
  S   S104      1.0  0.64347  0.67318  0.05175  1.0000
  C   C291      1.0  0.42557  0.90670  0.46684  1.0000
  Fe  Fe51      1.0  0.47286  0.86516  0.36200  1.0000
  S   S105      1.0  0.49299  0.82798  0.36150  1.0000
  S   S106      1.0  0.45108  0.87851  0.30767  1.0000
  Fe  Fe52      1.0  0.49543  0.88823  0.44101  1.0000
  S   S107      1.0  0.51743  0.85199  0.44473  1.0000
  H   H294      1.0  0.38042  0.79061  0.19914  1.0000
  Fe  Fe53      1.0  0.52055  0.85540  0.37356  1.0000
  S   S108      1.0  0.55102  0.84199  0.33906  1.0000
  Fe  Fe54      1.0  0.48895  0.82605  0.43233  1.0000
  H   H295      1.0  0.53049  0.79197  0.35510  1.0000
  S   S109      1.0  0.50072  0.89309  0.37085  1.0000
  S   S110      1.0  0.46657  0.86186  0.43194  1.0000
  N   N26       1.0  0.58241  0.92489  0.09813  1.0000
  H   H296      1.0  0.38128  0.51913  0.11553  1.0000
  C   C292      1.0  0.59077  0.87189  0.22493  1.0000
  C   C293      1.0  0.57578  0.88893  0.24442  1.0000
  C   C294      1.0  0.56298  0.87994  0.27825  1.0000
  C   C295      1.0  0.56528  0.85384  0.29383  1.0000
  C   C296      1.0  0.58020  0.83676  0.27420  1.0000
  C   C297      1.0  0.59267  0.84557  0.23974  1.0000
  H   H297      1.0  0.57422  0.90941  0.23369  1.0000
  H   H298      1.0  0.55177  0.89345  0.29306  1.0000
  H   H299      1.0  0.58227  0.81658  0.28592  1.0000
  H   H300      1.0  0.60415  0.83221  0.22544  1.0000
  C   C298      1.0  0.62767  0.76183  0.02767  1.0000
  C   C299      1.0  0.63691  0.70711  0.04211  1.0000
  C   C300      1.0  0.64286  0.72684  0.07142  1.0000
  C   C301      1.0  0.63843  0.75414  0.06409  1.0000
  H   H301      1.0  0.57780  0.91376  0.99347  1.0000
  H   H302      1.0  0.38913  0.52183  0.04159  1.0000
  C   C302      1.0  0.63373  0.96026  0.00651  1.0000
  Fe  Fe55      1.0  0.64193  0.64165  0.00013  1.0000
  C   C303      1.0  0.62867  0.51609  0.02903  1.0000
  H   H303      1.0  0.65794  0.52770  0.99948  1.0000
  C   C304      1.0  0.62137  0.74203  0.99882  1.0000
  N   N27       1.0  0.44614  0.93387  0.41947  1.0000
  H   H304      1.0  0.55511  0.81026  0.42250  1.0000
  C   C305      1.0  0.39001  0.85392  0.23702  1.0000
  C   C306      1.0  0.39625  0.84007  0.27362  1.0000
  C   C307      1.0  0.41503  0.84681  0.29515  1.0000
  C   C308      1.0  0.42782  0.86776  0.28059  1.0000
  C   C309      1.0  0.42160  0.88155  0.24393  1.0000
  C   C310      1.0  0.40295  0.87460  0.22212  1.0000
  H   H305      1.0  0.38639  0.82407  0.28561  1.0000
  H   H306      1.0  0.41947  0.83599  0.32326  1.0000
  H   H307      1.0  0.43128  0.89785  0.23234  1.0000
  H   H308      1.0  0.39843  0.88558  0.19422  1.0000
  C   C311      1.0  0.35955  0.76897  0.02180  1.0000
  C   C312      1.0  0.35299  0.75883  0.06074  1.0000
  C   C313      1.0  0.35294  0.73105  0.06800  1.0000
  C   C314      1.0  0.35916  0.71305  0.03628  1.0000
  H   H309      1.0  0.38155  0.74140  0.18574  1.0000
  H   H310      1.0  0.61049  0.60724  0.13855  1.0000
  H   H311      1.0  0.55325  0.74790  0.46035  1.0000
  H   H312      1.0  0.63586  0.95547  0.07367  1.0000
  C   C315      1.0  0.38318  0.49750  0.11370  1.0000
  H   H313      1.0  0.47840  0.94336  0.41026  1.0000
  C   C316      1.0  0.61775  0.49508  0.04906  1.0000
  C   C317      1.0  0.35006  0.50755  0.99761  1.0000
  C   C318      1.0  0.64476  0.57054  0.10959  1.0000
  H   H314      1.0  0.51063  0.97095  0.45368  1.0000
  S   S111      1.0  0.63300  0.92558  0.99485  1.0000
  C   C319      1.0  0.36545  0.75093  0.98973  1.0000
  C   C320      1.0  0.56129  0.79059  0.41122  1.0000
  C   C321      1.0  0.63471  0.96961  0.04798  1.0000
  C   C322      1.0  0.44074  0.92659  0.45966  1.0000
  S   S112      1.0  0.48038  0.78460  0.46217  1.0000
  C   C323      1.0  0.39470  0.74572  0.12331  1.0000
  H   H315      1.0  0.64320  0.76918  0.08667  1.0000
  C   C324      1.0  0.52901  0.77532  0.37688  1.0000
  H   H316      1.0  0.49554  0.72433  0.40112  1.0000
  C   C325      1.0  0.40136  0.76397  0.09257  1.0000
  H   H317      1.0  0.41468  0.89166  0.36478  1.0000
  H   H318      1.0  0.60990  0.59419  0.08521  1.0000
  H   H319      1.0  0.59518  0.94408  0.04370  1.0000
  H   H320      1.0  0.36790  0.95054  0.06739  1.0000
  S   S113      1.0  0.65873  0.85719  0.02337  1.0000
  H   H321      1.0  0.46019  0.96515  0.38294  1.0000
  Fe  Fe56      1.0  0.34649  0.58348  0.00704  1.0000
  H   H322      1.0  0.46355  0.96839  0.43881  1.0000
  S   S114      1.0  0.62251  0.79588  0.01591  1.0000
  S   S115      1.0  0.36130  0.80391  0.01279  1.0000
  H   H323      1.0  0.49936  0.76217  0.35068  1.0000
  C   C326      1.0  0.39314  0.80055  0.13788  1.0000
  Fe  Fe57      1.0  0.35501  0.64472  0.00309  1.0000
  S   S116      1.0  0.37530  0.60811  0.99215  1.0000
  C   C327      1.0  0.57501  0.91136  0.02703  1.0000
  H   H324      1.0  0.34846  0.72348  0.09870  1.0000
  C   C328      1.0  0.64934  0.51169  0.01482  1.0000
  C   C329      1.0  0.62612  0.71480  0.00578  1.0000
  C   C330      1.0  0.61876  0.60711  0.10766  1.0000
  C   C331      1.0  0.39816  0.50264  0.04273  1.0000
  C   C332      1.0  0.50943  0.73704  0.40201  1.0000
  H   H325      1.0  0.65109  0.72101  0.09975  1.0000
  C   C333      1.0  0.54189  0.75063  0.43528  1.0000
  C   C334      1.0  0.56992  0.90463  0.11317  1.0000
  C   C335      1.0  0.51152  0.75833  0.37387  1.0000
  H   H326      1.0  0.61853  0.62772  0.09414  1.0000
  C   C336      1.0  0.42161  0.90170  0.39175  1.0000
  C   C337      1.0  0.41596  0.89421  0.43258  1.0000
  H   H327      1.0  0.39499  0.72431  0.11679  1.0000
  N   N28       1.0  0.54383  0.77146  0.40748  1.0000
  C   C338      1.0  0.34314  0.51523  0.03776  1.0000
  S   S117      1.0  0.65427  0.89726  0.10570  1.0000
  H   H328      1.0  0.58732  0.94154  0.15950  1.0000
  C   C339      1.0  0.33792  0.96365  0.04318  1.0000
  H   H329      1.0  0.42425  0.81607  0.07474  1.0000
  S   S118      1.0  0.34292  0.54919  0.05372  1.0000
  Fe  Fe58      1.0  0.63233  0.58180  0.98829  1.0000
  H   H330      1.0  0.60175  0.49834  0.06015  1.0000
  C   C340      1.0  0.46285  0.95372  0.41244  1.0000
  H   H331      1.0  0.39747  0.82793  0.06689  1.0000
  H   H332      1.0  0.52302  0.71679  0.45531  1.0000
  C   C341      1.0  0.55960  0.88727  0.08543  1.0000
  C   C342      1.0  0.52485  0.73287  0.43254  1.0000
  N   N29       1.0  0.64051  0.59742  0.11262  1.0000
  H   H333      1.0  0.40684  0.75635  0.06237  1.0000
  H   H334      1.0  0.63209  0.55631  0.10426  1.0000
  C   C343      1.0  0.43693  0.92154  0.38574  1.0000
  S   S119      1.0  0.65887  0.60392  0.01863  1.0000
  H   H335      1.0  0.55485  0.87685  0.02022  1.0000
  H   H336      1.0  0.44170  0.92660  0.35383  1.0000
  H   H337      1.0  0.34871  0.77228  0.08591  1.0000
  C   C344      1.0  0.40779  0.80988  0.06784  1.0000
  C   C345      1.0  0.59439  0.94175  0.12734  1.0000
  C   C346      1.0  0.37678  0.48172  0.14791  1.0000
  H   H338      1.0  0.39254  0.82198  0.14407  1.0000
  H   H339      1.0  0.40714  0.80090  0.03576  1.0000
  H   H340      1.0  0.56893  0.79383  0.37998  1.0000
  H   H341      1.0  0.39557  0.49245  0.01201  1.0000
  C   C347      1.0  0.35917  0.96705  0.05381  1.0000
  H   H342      1.0  0.41523  0.50721  0.04613  1.0000
  H   H343      1.0  0.65311  0.63661  0.12250  1.0000
  S   S120      1.0  0.33340  0.81945  0.12004  1.0000
  C   C348      1.0  0.65646  0.61528  0.12018  1.0000
  C   C349      1.0  0.65889  0.48639  0.02010  1.0000
  H   H344      1.0  0.37019  0.49101  0.17599  1.0000
  H   H345      1.0  0.59490  0.96289  0.11633  1.0000
  H   H346      1.0  0.40451  0.87834  0.43758  1.0000
  C   C350      1.0  0.33800  0.49536  0.06738  1.0000
  N   N30       1.0  0.39098  0.48579  0.07779  1.0000
  H   H347      1.0  0.33251  0.50115  0.09843  1.0000
  H   H348      1.0  0.62132  0.69978  0.98316  1.0000
  H   H349      1.0  0.65225  0.63128  0.79676  1.0000
  N   N31       1.0  0.65962  0.59073  0.81268  1.0000
  S   S121      1.0  0.64815  0.58025  0.92467  1.0000
  H   H350      1.0  0.51738  0.60384  0.82711  1.0000
  Fe  Fe59      1.0  0.36282  0.60942  0.92542  1.0000
  S   S122      1.0  0.38697  0.59480  0.87545  1.0000
  H   H351      1.0  0.37016  0.70930  0.97226  1.0000
  H   H352      1.0  0.39742  0.60273  0.68700  1.0000
  H   H353      1.0  0.46476  0.63228  0.79946  1.0000
  H   H354      1.0  0.48997  0.60327  0.84246  1.0000
  H   H355      1.0  0.52891  0.73660  0.56040  1.0000
  Fe  Fe60      1.0  0.63093  0.61932  0.91268  1.0000
  S   S123      1.0  0.61604  0.63283  0.85002  1.0000
  H   H356      1.0  0.43986  0.57436  0.59205  1.0000
  Fe  Fe61      1.0  0.46865  0.62124  0.67700  1.0000
  S   S124      1.0  0.49811  0.64602  0.68333  1.0000
  S   S125      1.0  0.43896  0.63525  0.71328  1.0000
  Fe  Fe62      1.0  0.48947  0.58337  0.61011  1.0000
  S   S126      1.0  0.52038  0.60644  0.61296  1.0000
  S   S127      1.0  0.47885  0.54672  0.56887  1.0000
  Fe  Fe63      1.0  0.51578  0.60685  0.68397  1.0000
  S   S128      1.0  0.53738  0.59331  0.73849  1.0000
  Fe  Fe64      1.0  0.50050  0.64486  0.61218  1.0000
  S   S129      1.0  0.51041  0.68492  0.57926  1.0000
  S   S130      1.0  0.48585  0.58196  0.68103  1.0000
  S   S131      1.0  0.47001  0.62184  0.60576  1.0000
  C   C351      1.0  0.49485  0.95646  0.50934  1.0000
  C   C352      1.0  0.40789  0.58727  0.67468  1.0000
  C   C353      1.0  0.50100  0.60774  0.81606  1.0000
  C   C354      1.0  0.48627  0.51525  0.54399  1.0000
  H   H357      1.0  0.45547  0.50953  0.51674  1.0000
  S   S132      1.0  0.65820  0.64433  0.93735  1.0000
  H   H358      1.0  0.49791  0.59374  0.78950  1.0000
  C   C355      1.0  0.48856  0.75789  0.49706  1.0000
  H   H359      1.0  0.61297  0.74783  0.97066  1.0000
  H   H360      1.0  0.51843  0.51410  0.56552  1.0000
  C   C356      1.0  0.50772  0.75826  0.51913  1.0000
  C   C357      1.0  0.48177  0.71283  0.52682  1.0000
  C   C358      1.0  0.50109  0.71298  0.54829  1.0000
  C   C359      1.0  0.51396  0.73597  0.54404  1.0000
  H   H361      1.0  0.63153  0.97175  0.94124  1.0000
  C   C360      1.0  0.47840  0.64494  0.79412  1.0000
  H   H362      1.0  0.47158  0.69551  0.52938  1.0000
  C   C361      1.0  0.43176  0.57169  0.62199  1.0000
  C   C362      1.0  0.59375  0.62179  0.82016  1.0000
  C   C363      1.0  0.58769  0.63647  0.78426  1.0000
  C   C364      1.0  0.57058  0.62818  0.75887  1.0000
  C   C365      1.0  0.55938  0.60481  0.76875  1.0000
  C   C366      1.0  0.56547  0.59011  0.80460  1.0000
  C   C367      1.0  0.58245  0.59854  0.83020  1.0000
  H   H363      1.0  0.59630  0.65445  0.77598  1.0000
  H   H364      1.0  0.56619  0.63976  0.73147  1.0000
  H   H365      1.0  0.55698  0.57201  0.81270  1.0000
  H   H366      1.0  0.58684  0.58692  0.85756  1.0000
  C   C368      1.0  0.63960  0.58002  0.79684  1.0000
  H   H367      1.0  0.49066  0.70712  0.75787  1.0000
  H   H368      1.0  0.42001  0.61353  0.57963  1.0000
  C   C369      1.0  0.47531  0.67089  0.77862  1.0000
  H   H369      1.0  0.45946  0.67793  0.77155  1.0000
  C   C370      1.0  0.51310  0.67738  0.77869  1.0000
  C   C371      1.0  0.47567  0.73494  0.50140  1.0000
  C   C372      1.0  0.40179  0.60724  0.83155  1.0000
  C   C373      1.0  0.39724  0.63174  0.81209  1.0000
  C   C374      1.0  0.40885  0.63997  0.77618  1.0000
  C   C375      1.0  0.42535  0.62410  0.75951  1.0000
  C   C376      1.0  0.43017  0.59982  0.77937  1.0000
  C   C377      1.0  0.41834  0.59139  0.81485  1.0000
  H   H370      1.0  0.38454  0.64414  0.82430  1.0000
  H   H371      1.0  0.40493  0.65880  0.76119  1.0000
  H   H372      1.0  0.44278  0.58732  0.76706  1.0000
  H   H373      1.0  0.42201  0.57239  0.82956  1.0000
  C   C378      1.0  0.41184  0.56452  0.69916  1.0000
  H   H374      1.0  0.40424  0.56229  0.72972  1.0000
  H   H375      1.0  0.44765  0.53420  0.63432  1.0000
  H   H376      1.0  0.42187  0.63233  0.62793  1.0000
  C   C379      1.0  0.41387  0.61512  0.61242  1.0000
  H   H377      1.0  0.39666  0.61945  0.61082  1.0000
  H   H378      1.0  0.37059  0.75857  0.95947  1.0000
  C   C380      1.0  0.43621  0.54881  0.64581  1.0000
  C   C381      1.0  0.49281  0.68719  0.77086  1.0000
  H   H379      1.0  0.52686  0.68962  0.77195  1.0000
  C   C382      1.0  0.51558  0.65127  0.79407  1.0000
  H   H380      1.0  0.64224  0.56114  0.77893  1.0000
  C   C383      1.0  0.66361  0.61768  0.81084  1.0000
  H   H381      1.0  0.53140  0.64364  0.79930  1.0000
  C   C384      1.0  0.42620  0.54526  0.68467  1.0000
  H   H382      1.0  0.47957  0.94937  0.56916  1.0000
  N   N32       1.0  0.41774  0.59057  0.63657  1.0000
  C   C385      1.0  0.47115  0.50113  0.52006  1.0000
  H   H383      1.0  0.51787  0.77560  0.51662  1.0000
  C   C386      1.0  0.50648  0.50378  0.54747  1.0000
  C   C387      1.0  0.48693  0.96429  0.54923  1.0000
  H   H384      1.0  0.42975  0.52781  0.70373  1.0000
  N   N33       1.0  0.49832  0.63547  0.80168  1.0000
  H   H385      1.0  0.62872  0.57606  0.82376  1.0000
  S   S133      1.0  0.33469  0.58282  0.94071  1.0000
  H   H386      1.0  0.42173  0.90059  0.49875  1.0000
  H   H387      1.0  0.63153  0.59447  0.77562  1.0000
  S   S134      1.0  0.34398  0.64780  0.93602  1.0000
  H   H388      1.0  0.35403  0.52269  0.97450  1.0000
  S   S135      1.0  0.49203  0.92196  0.49228  1.0000
  C   C388      1.0  0.50432  0.97631  0.48431  1.0000
  H   H389      1.0  0.46080  0.73420  0.48481  1.0000
  S   S136      1.0  0.61370  0.61951  0.97509  1.0000
  H   H390      1.0  0.66485  0.71783  0.93965  1.0000
  H   H391      1.0  0.65598  0.76553  0.92442  1.0000
  C   C389      1.0  0.63237  0.97886  0.97341  1.0000
  H   H392      1.0  0.44850  0.93577  0.48645  1.0000
  C   C390      1.0  0.80520  0.03672  0.02176  1.0000
  H   H393      1.0  0.81336  0.03944  0.05237  1.0000
  S   S137      1.0  0.96940  0.09942  0.42664  1.0000
  C   C391      1.0  0.68801  0.28889  0.02456  1.0000
  Fe  Fe65      1.0  0.67856  0.34835  0.10233  1.0000
  C   C392      1.0  0.89263  0.20931  0.15881  1.0000
  Fe  Fe66      1.0  0.97857  0.10392  0.35794  1.0000
  S   S138      1.0  0.96046  0.10141  0.29507  1.0000
  N   N34       1.0  0.80312  0.20478  0.02392  1.0000
  S   S139      1.0  0.82470  0.35060  0.03241  1.0000
  S   S140      1.0  0.84536  0.41859  0.06387  1.0000
  S   S141      1.0  0.85617  0.29086  0.05888  1.0000
  S   S142      1.0  0.71327  0.33607  0.10598  1.0000
  Fe  Fe67      1.0  0.85668  0.10873  0.14007  1.0000
  S   S143      1.0  0.87584  0.10531  0.08026  1.0000
  S   S144      1.0  0.86984  0.11530  0.20687  1.0000
  Fe  Fe68      1.0  0.81426  0.10933  0.09070  1.0000
  S   S145      1.0  0.83076  0.10600  0.02867  1.0000
  S   S146      1.0  0.77835  0.11385  0.09502  1.0000
  Fe  Fe69      1.0  0.85138  0.07529  0.05992  1.0000
  S   S147      1.0  0.85986  0.04072  0.01664  1.0000
  Fe  Fe70      1.0  0.85349  0.13613  0.05429  1.0000
  C   C393      1.0  0.78067  0.40401  0.04703  1.0000
  S   S148      1.0  0.83334  0.07633  0.12131  1.0000
  S   S149      1.0  0.83575  0.14183  0.11484  1.0000
  H   H394      1.0  0.91401  0.25486  0.12376  1.0000
  C   C394      1.0  0.72292  0.11724  0.03020  1.0000
  C   C395      1.0  0.73821  0.11710  0.06238  1.0000
  C   C396      1.0  0.75982  0.11364  0.05301  1.0000
  Fe  Fe71      1.0  0.85124  0.32404  0.01136  1.0000
  H   H395      1.0  0.70643  0.12017  0.03807  1.0000
  H   H396      1.0  0.73327  0.11983  0.09480  1.0000
  H   H397      1.0  0.73978  0.39541  0.11536  1.0000
  C   C397      1.0  0.84613  0.45266  0.04920  1.0000
  C   C398      1.0  0.71359  0.40852  0.05320  1.0000
  C   C399      1.0  0.84977  0.99882  0.06997  1.0000
  C   C400      1.0  0.85706  0.00668  0.03024  1.0000
  C   C401      1.0  0.84600  0.46046  0.00693  1.0000
  H   H398      1.0  0.90410  0.06115  0.32781  1.0000
  H   H399      1.0  0.84657  0.01378  0.09391  1.0000
  C   C402      1.0  0.85634  0.25717  0.04300  1.0000
  C   C403      1.0  0.77007  0.39875  0.08477  1.0000
  C   C404      1.0  0.86019  0.20252  0.02248  1.0000
  C   C405      1.0  0.85232  0.21014  0.06194  1.0000
  C   C406      1.0  0.85055  0.23742  0.07225  1.0000
  H   H400      1.0  0.84817  0.19507  0.08492  1.0000
  H   H401      1.0  0.84495  0.24327  0.10322  1.0000
  C   C407      1.0  0.76116  0.34229  0.99612  1.0000
  C   C408      1.0  0.72465  0.34468  0.02204  1.0000
  C   C409      1.0  0.73118  0.33766  0.06264  1.0000
  C   C410      1.0  0.75268  0.33222  0.06943  1.0000
  C   C411      1.0  0.76757  0.33453  0.03645  1.0000
  C   C412      1.0  0.72904  0.11384  0.98808  1.0000
  H   H402      1.0  0.75793  0.32654  0.10055  1.0000
  H   H403      1.0  0.78398  0.33018  0.04239  1.0000
  C   C413      1.0  0.93521  0.10643  0.27117  1.0000
  C   C414      1.0  0.93280  0.10002  0.22820  1.0000
  C   C415      1.0  0.91302  0.10250  0.20801  1.0000
  C   C416      1.0  0.89528  0.11152  0.23054  1.0000
  C   C417      1.0  0.89770  0.11799  0.27349  1.0000
  C   C418      1.0  0.91748  0.11545  0.29371  1.0000
  H   H404      1.0  0.94634  0.09292  0.21037  1.0000
  H   H405      1.0  0.91151  0.09726  0.17509  1.0000
  H   H406      1.0  0.88414  0.12502  0.29133  1.0000
  H   H407      1.0  0.91899  0.12044  0.32673  1.0000
  S   S150      1.0  0.86410  0.16863  0.00956  1.0000
  H   H408      1.0  0.77896  0.39332  0.11261  1.0000
  C   C419      1.0  0.89606  0.42998  0.01777  1.0000
  H   H409      1.0  0.91110  0.05540  0.40443  1.0000
  H   H410      1.0  0.88946  0.22362  0.18383  1.0000
  C   C420      1.0  0.86366  0.24959  0.00313  1.0000
  C   C421      1.0  0.94199  0.03818  0.39424  1.0000
  C   C422      1.0  0.89575  0.16332  0.13586  1.0000
  H   H411      1.0  0.90513  0.20661  0.05577  1.0000
  C   C423      1.0  0.90159  0.19988  0.08753  1.0000
  H   H412      1.0  0.67069  0.05905  0.07846  1.0000
  H   H413      1.0  0.90332  0.15804  0.07001  1.0000
  H   H414      1.0  0.88764  0.17479  0.19924  1.0000
  C   C424      1.0  0.84826  0.47222  0.08073  1.0000
  C   C425      1.0  0.92275  0.04905  0.38126  1.0000
  H   H415      1.0  0.84831  0.46627  0.11349  1.0000
  C   C426      1.0  0.68881  0.24060  0.01105  1.0000
  C   C427      1.0  0.89164  0.18185  0.16780  1.0000
  C   C428      1.0  0.93424  0.04449  0.30901  1.0000
  C   C429      1.0  0.90063  0.17231  0.09539  1.0000
  H   H416      1.0  0.70880  0.42914  0.06262  1.0000
  H   H417      1.0  0.81398  0.04913  0.99845  1.0000
  H   H418      1.0  0.67827  0.27212  0.10248  1.0000
  H   H419      1.0  0.96286  0.01882  0.26223  1.0000
  N   N35       1.0  0.68816  0.03660  0.03357  1.0000
  C   C430      1.0  0.80172  0.17575  0.03095  1.0000
  N   N36       1.0  0.89748  0.21798  0.11902  1.0000
  H   H420      1.0  0.97766  0.04723  0.28149  1.0000
  Fe  Fe72      1.0  0.84524  0.38526  0.01553  1.0000
  H   H421      1.0  0.70345  0.29188  0.00840  1.0000
  H   H422      1.0  0.89506  0.14202  0.14257  1.0000
  C   C431      1.0  0.68466  0.99732  0.99015  1.0000
  H   H423      1.0  0.70819  0.34870  0.01599  1.0000
  C   C432      1.0  0.81128  0.21406  0.98670  1.0000
  C   C433      1.0  0.89904  0.24686  0.11077  1.0000
  C   C434      1.0  0.79807  0.98970  0.03836  1.0000
  N   N37       1.0  0.80514  0.00826  0.00992  1.0000
  C   C435      1.0  0.80544  0.25976  0.00939  1.0000
  H   H424      1.0  0.93137  0.04793  0.27579  1.0000
  C   C436      1.0  0.76598  0.11025  0.01090  1.0000
  H   H425      1.0  0.79901  0.17077  0.06470  1.0000
  N   N38       1.0  0.73671  0.40639  0.05079  1.0000
  C   C437      1.0  0.73954  0.34685  0.98899  1.0000
  C   C438      1.0  0.79583  0.22239  0.05382  1.0000
  C   C439      1.0  0.89867  0.45577  0.03400  1.0000
  C   C440      1.0  0.67815  0.22940  0.09397  1.0000
  H   H426      1.0  0.67495  0.29384  0.00259  1.0000
  H   H427      1.0  0.70695  0.39407  0.07639  1.0000
  S   S151      1.0  0.87306  0.35883  0.00081  1.0000
  Fe  Fe73      1.0  0.99481  0.13073  0.44034  1.0000
  C   C441      1.0  0.91878  0.05214  0.33837  1.0000
  H   H428      1.0  0.69878  0.06564  0.07800  1.0000
  H   H429      1.0  0.97220  0.02297  0.37446  1.0000
  H   H430      1.0  0.89856  0.25135  0.07646  1.0000
  N   N39       1.0  0.95315  0.03411  0.32202  1.0000
  C   C442      1.0  0.95712  0.03086  0.36401  1.0000
  H   H431      1.0  0.88545  0.25781  0.12519  1.0000
  H   H432      1.0  0.78932  0.21507  0.08331  1.0000
  C   C443      1.0  0.68075  0.25586  0.08023  1.0000
  H   H433      1.0  0.78251  0.10755  0.00309  1.0000
  C   C444      1.0  0.96970  0.02824  0.29078  1.0000
  H   H434      1.0  0.68822  0.19762  0.00124  1.0000
  H   H435      1.0  0.79164  0.26413  0.07114  1.0000
  C   C445      1.0  0.74795  0.40006  0.08613  1.0000
  C   C446      1.0  0.86137  0.98709  0.99952  1.0000
  C   C447      1.0  0.68412  0.00975  0.02970  1.0000
  H   H436      1.0  0.78849  0.16715  0.01248  1.0000
  H   H437      1.0  0.94543  0.03595  0.42753  1.0000
  C   C448      1.0  0.79698  0.25012  0.04711  1.0000
  C   C449      1.0  0.89911  0.47767  0.00670  1.0000
  H   H438      1.0  0.89500  0.41291  0.03886  1.0000
  H   H439      1.0  0.79782  0.40290  0.04548  1.0000
  S   S152      1.0  0.66558  0.35990  0.04014  1.0000
  S   S153      1.0  0.98795  0.02479  0.45800  1.0000
  C   C450      1.0  0.68659  0.04974  0.07483  1.0000
  C   C451      1.0  0.68098  0.20833  0.06548  1.0000
  N   N40       1.0  0.68598  0.26114  0.03918  1.0000
  C   C452      1.0  0.74699  0.41177  0.01370  1.0000
  H   H440      1.0  0.67345  0.22530  0.12623  1.0000
  H   H441      1.0  0.78878  0.04450  0.02440  1.0000
  H   H442      1.0  0.98185  0.01433  0.30349  1.0000
  H   H443      1.0  0.79309  0.99592  0.06963  1.0000
  H   H444      1.0  0.67831  0.18776  0.07535  1.0000
  H   H445      1.0  0.81672  0.16573  0.02125  1.0000
  C   C453      1.0  0.68644  0.21390  0.02377  1.0000
  H   H446      1.0  0.68723  0.30345  0.05105  1.0000
  H   H447      1.0  0.70611  0.40382  0.02246  1.0000
  H   H448      1.0  0.89954  0.45887  0.06777  1.0000
  H   H449      1.0  0.68892  0.03524  0.10093  1.0000
  H   H450      1.0  0.69536  0.07301  0.00170  1.0000
  C   C454      1.0  0.86571  0.22227  0.99302  1.0000
  H   H451      1.0  0.67991  0.99789  0.05708  1.0000
  C   C455      1.0  0.76908  0.41041  0.01116  1.0000
  Fe  Fe74      1.0  0.99522  0.06777  0.43133  1.0000
  H   H452      1.0  0.73811  0.41664  0.98562  1.0000
  H   H453      1.0  0.80680  0.28123  0.00411  1.0000
  C   C456      1.0  0.69258  0.05169  0.99872  1.0000
  H   H454      1.0  0.84424  0.44556  0.98245  1.0000
  H   H455      1.0  0.69682  0.05221  0.93129  1.0000
  H   H456      1.0  0.87478  0.43355  0.89796  1.0000
  S   S154      1.0  0.96720  0.34849  0.61099  1.0000
  C   C457      1.0  0.99177  0.99703  0.49418  1.0000
  C   C458      1.0  0.89650  0.47346  0.96345  1.0000
  H   H457      1.0  0.92277  0.39525  0.69990  1.0000
  Fe  Fe75      1.0  0.96513  0.34436  0.68194  1.0000
  S   S155      1.0  0.93374  0.33477  0.71609  1.0000
  Fe  Fe76      1.0  0.99486  0.31967  0.61268  1.0000
  Fe  Fe77      1.0  0.86104  0.35885  0.93373  1.0000
  H   H458      1.0  0.86711  0.99310  0.96878  1.0000
  S   S156      1.0  0.88647  0.37317  0.88612  1.0000
  Fe  Fe78      1.0  0.99047  0.38235  0.62220  1.0000
  C   C459      1.0  0.98928  0.23163  0.56821  1.0000
  C   C460      1.0  0.99347  0.19828  0.51073  1.0000
  H   H459      1.0  0.91182  0.37787  0.54834  1.0000
  S   S157      1.0  0.83398  0.38734  0.94898  1.0000
  S   S158      1.0  0.84070  0.32172  0.94380  1.0000
  C   C461      1.0  0.89372  0.42648  0.97432  1.0000
  H   H460      1.0  0.86837  0.26475  0.98060  1.0000
  N   N41       1.0  0.89372  0.44809  0.94787  1.0000
  S   S159      1.0  0.98330  0.42287  0.58720  1.0000
  S   S160      1.0  0.71029  0.11354  0.94636  1.0000
  C   C462      1.0  0.81194  0.00036  0.97079  1.0000
  H   H461      1.0  0.89099  0.37346  0.71669  1.0000
  Fe  Fe79      1.0  0.81497  0.35044  0.96532  1.0000
  H   H462      1.0  0.89019  0.46266  0.88463  1.0000
  H   H463      1.0  0.89098  0.34310  0.68634  1.0000
  H   H464      1.0  0.87186  0.36934  0.67565  1.0000
  S   S161      1.0  0.77953  0.34675  0.95403  1.0000
  C   C463      1.0  0.92198  0.34454  0.76534  1.0000
  C   C464      1.0  0.90416  0.33044  0.78033  1.0000
  C   C465      1.0  0.89339  0.33841  0.81754  1.0000
  C   C466      1.0  0.90009  0.36096  0.84016  1.0000
  C   C467      1.0  0.91787  0.37511  0.82507  1.0000
  C   C468      1.0  0.92882  0.36691  0.78818  1.0000
  H   H465      1.0  0.89860  0.31317  0.76300  1.0000
  H   H466      1.0  0.87974  0.32731  0.82840  1.0000
  H   H467      1.0  0.92330  0.39254  0.84212  1.0000
  H   H468      1.0  0.94241  0.37809  0.77722  1.0000
  C   C469      1.0  0.69336  0.03994  0.95873  1.0000
  H   H469      1.0  0.90283  0.43034  0.88972  1.0000
  H   H470      1.0  0.68934  0.00330  0.92352  1.0000
  S   S162      1.0  0.99124  0.31358  0.68265  1.0000
  H   H471      1.0  0.73433  0.35256  0.95786  1.0000
  C   C470      1.0  0.89026  0.44364  0.90278  1.0000
  H   H472      1.0  0.81956  0.24898  0.94981  1.0000
  S   S163      1.0  0.98659  0.37940  0.69334  1.0000
  C   C471      1.0  0.98743  0.20502  0.55237  1.0000
  H   H473      1.0  0.87187  0.21642  0.96245  1.0000
  N   N42       1.0  0.90319  0.37674  0.65370  1.0000
  C   C472      1.0  0.90034  0.37140  0.61184  1.0000
  C   C473      1.0  0.91986  0.39212  0.66661  1.0000
  C   C474      1.0  0.91395  0.38230  0.58150  1.0000
  C   C475      1.0  0.93372  0.40343  0.63710  1.0000
  C   C476      1.0  0.93060  0.39861  0.59428  1.0000
  C   C477      1.0  0.88849  0.36516  0.68456  1.0000
  H   H474      1.0  0.88757  0.35846  0.60177  1.0000
  S   S164      1.0  0.99101  0.16384  0.49264  1.0000
  H   H475      1.0  0.98106  0.18953  0.57256  1.0000
  H   H476      1.0  0.94712  0.41534  0.64726  1.0000
  H   H477      1.0  0.94143  0.40694  0.57109  1.0000
  H   H478      1.0  0.75559  0.10772  0.94625  1.0000
  C   C478      1.0  0.97423  0.46982  0.54231  1.0000
  C   C479      1.0  0.68926  0.01259  0.95446  1.0000
  H   H479      1.0  0.89146  0.40644  0.96182  1.0000
  H   H480      1.0  0.98428  0.23614  0.60007  1.0000
  H   H481      1.0  0.95804  0.46594  0.55145  1.0000
  Fe  Fe80      1.0  0.67439  0.11623  0.95448  1.0000
  C   C480      1.0  0.99022  0.45182  0.55534  1.0000
  H   H482      1.0  0.81736  0.20010  0.96326  1.0000
  C   C481      1.0  0.81257  0.24165  0.97888  1.0000
  C   C482      1.0  0.99741  0.25227  0.54284  1.0000
  H   H483      1.0  0.81815  0.01496  0.94865  1.0000
  C   C483      1.0  0.75066  0.11035  0.97869  1.0000
  H   H484      1.0  0.69255  0.24486  0.97836  1.0000
  H   H485      1.0  0.77718  0.41381  0.98141  1.0000
  C   C484      1.0  0.97720  0.60887  0.25157  1.0000
  H   H486      1.0  0.94279  0.64644  0.19456  1.0000
  S   S165      1.0  0.96781  0.59153  0.44235  1.0000
  H   H487      1.0  0.93289  0.60103  0.16957  1.0000
  N   N43       1.0  0.97192  0.58394  0.23706  1.0000
  H   H488      1.0  0.78476  0.82428  0.11959  1.0000
  Fe  Fe81      1.0  0.96555  0.59206  0.37097  1.0000
  S   S166      1.0  0.93814  0.57801  0.32843  1.0000
  S   S167      1.0  0.84878  0.66998  0.99589  1.0000
  S   S168      1.0  0.82371  0.85348  0.02283  1.0000
  S   S169      1.0  0.84515  0.91805  0.05887  1.0000
  S   S170      1.0  0.85895  0.79219  0.04497  1.0000
  S   S171      1.0  0.70837  0.85404  0.09439  1.0000
  Fe  Fe82      1.0  0.85676  0.61150  0.12959  1.0000
  S   S172      1.0  0.87279  0.60978  0.06597  1.0000
  S   S173      1.0  0.87548  0.62546  0.18799  1.0000
  Fe  Fe83      1.0  0.81222  0.60397  0.08915  1.0000
  S   S174      1.0  0.82587  0.60169  0.02431  1.0000
  S   S175      1.0  0.77635  0.60318  0.10038  1.0000
  Fe  Fe84      1.0  0.85074  0.57532  0.05275  1.0000
  H   H489      1.0  0.67483  0.48311  0.00865  1.0000
  Fe  Fe85      1.0  0.84632  0.63625  0.04351  1.0000
  C   C485      1.0  0.74929  0.59671  0.98356  1.0000
  S   S176      1.0  0.83606  0.57524  0.11761  1.0000
  S   S177      1.0  0.83134  0.64026  0.10728  1.0000
  H   H490      1.0  0.85264  0.87283  0.12706  1.0000
  C   C486      1.0  0.72112  0.60493  0.03357  1.0000
  C   C487      1.0  0.73616  0.60579  0.06636  1.0000
  C   C488      1.0  0.75789  0.60228  0.05793  1.0000
  C   C489      1.0  0.76431  0.59777  0.01623  1.0000
  H   H491      1.0  0.70456  0.60789  0.04051  1.0000
  H   H492      1.0  0.73098  0.60937  0.09837  1.0000
  H   H493      1.0  0.80520  0.78225  0.13313  1.0000
  C   C490      1.0  0.85052  0.95193  0.04763  1.0000
  Fe  Fe86      1.0  0.99693  0.56556  0.43487  1.0000
  C   C491      1.0  0.85124  0.49932  0.07011  1.0000
  C   C492      1.0  0.85217  0.50696  0.02781  1.0000
  C   C493      1.0  0.95617  0.58098  0.20809  1.0000
  H   H494      1.0  0.68093  0.97614  0.98713  1.0000
  H   H495      1.0  0.85378  0.51408  0.09455  1.0000
  C   C494      1.0  0.85371  0.75837  0.03299  1.0000
  H   H496      1.0  0.95128  0.56114  0.19812  1.0000
  C   C495      1.0  0.84913  0.70371  0.01243  1.0000
  C   C496      1.0  0.85787  0.71111  0.05107  1.0000
  C   C497      1.0  0.86029  0.73840  0.06115  1.0000
  H   H497      1.0  0.86345  0.69579  0.07244  1.0000
  H   H498      1.0  0.86772  0.74399  0.09049  1.0000
  S   S178      1.0  0.86063  0.53933  0.01333  1.0000
  C   C498      1.0  0.72169  0.86134  0.01089  1.0000
  C   C499      1.0  0.72726  0.85552  0.05253  1.0000
  C   C500      1.0  0.74858  0.85023  0.06155  1.0000
  C   C501      1.0  0.76417  0.85069  0.02958  1.0000
  H   H499      1.0  0.69834  0.57232  0.11723  1.0000
  H   H500      1.0  0.75295  0.84563  0.09355  1.0000
  H   H501      1.0  0.78035  0.84617  0.03710  1.0000
  C   C502      1.0  0.92080  0.59180  0.28969  1.0000
  C   C503      1.0  0.90980  0.57422  0.26275  1.0000
  C   C504      1.0  0.89611  0.58402  0.23118  1.0000
  C   C505      1.0  0.89288  0.61164  0.22658  1.0000
  C   C506      1.0  0.90357  0.62920  0.25400  1.0000
  C   C507      1.0  0.91756  0.61941  0.28505  1.0000
  H   H502      1.0  0.91202  0.55281  0.26618  1.0000
  H   H503      1.0  0.88797  0.57018  0.21066  1.0000
  H   H504      1.0  0.90113  0.65060  0.25108  1.0000
  H   H505      1.0  0.92568  0.63323  0.30565  1.0000
  H   H506      1.0  0.85206  0.82334  0.12034  1.0000
  C   C508      1.0  0.96701  0.63175  0.23621  1.0000
  H   H507      1.0  0.81531  0.78748  0.08027  1.0000
  H   H508      1.0  0.86118  0.94486  0.98407  1.0000
  C   C509      1.0  0.81872  0.87645  0.12877  1.0000
  H   H509      1.0  0.83317  0.78222  0.12326  1.0000
  C   C510      1.0  0.68949  0.74815  0.02170  1.0000
  C   C511      1.0  0.90637  0.78451  0.99354  1.0000
  Fe  Fe87      1.0  0.67268  0.86001  0.08766  1.0000
  C   C512      1.0  0.95124  0.62896  0.20599  1.0000
  C   C513      1.0  0.84209  0.72371  0.98475  1.0000
  C   C514      1.0  0.67748  0.60650  0.12230  1.0000
  H   H510      1.0  0.84095  0.96544  0.10944  1.0000
  C   C515      1.0  0.83723  0.83420  0.12306  1.0000
  Fe  Fe88      1.0  0.84573  0.88694  0.00677  1.0000
  N   N44       1.0  0.81835  0.82088  0.12102  1.0000
  N   N45       1.0  0.81945  0.62272  0.21927  1.0000
  C   C516      1.0  0.83318  0.60681  0.24116  1.0000
  C   C517      1.0  0.80312  0.61154  0.19730  1.0000
  C   C518      1.0  0.83087  0.57891  0.24116  1.0000
  C   C519      1.0  0.80017  0.58374  0.19709  1.0000
  C   C520      1.0  0.81421  0.56735  0.21902  1.0000
  C   C521      1.0  0.82280  0.65182  0.21867  1.0000
  H   H511      1.0  0.84642  0.61564  0.25776  1.0000
  H   H512      1.0  0.79248  0.62399  0.17902  1.0000
  H   H513      1.0  0.84222  0.56640  0.25754  1.0000
  H   H514      1.0  0.78748  0.57499  0.17873  1.0000
  H   H515      1.0  0.81244  0.54571  0.21803  1.0000
  H   H516      1.0  0.83783  0.65643  0.20185  1.0000
  H   H517      1.0  0.80985  0.66257  0.20219  1.0000
  H   H518      1.0  0.82380  0.65972  0.25131  1.0000
  C   C522      1.0  0.83769  0.86215  0.12706  1.0000
  S   S179      1.0  0.98519  0.62947  0.36472  1.0000
  H   H519      1.0  0.81896  0.89820  0.13051  1.0000
  C   C523      1.0  0.81795  0.79178  0.11424  1.0000
  C   C524      1.0  0.79968  0.83478  0.12246  1.0000
  H   H520      1.0  0.90194  0.77075  0.01968  1.0000
  H   H521      1.0  0.70639  0.79059  0.05777  1.0000
  H   H522      1.0  0.69813  0.74307  0.04999  1.0000
  H   H523      1.0  0.78472  0.87374  0.12666  1.0000
  C   C525      1.0  0.66558  0.56109  0.11119  1.0000
  H   H524      1.0  0.67884  0.79904  0.06569  1.0000
  C   C526      1.0  0.79955  0.86274  0.12649  1.0000
  H   H525      1.0  0.70540  0.86566  0.00330  1.0000
  Fe  Fe89      1.0  0.84893  0.82538  0.00082  1.0000
  Fe  Fe90      1.0  0.98964  0.62770  0.43561  1.0000
  C   C527      1.0  0.80465  0.95416  0.98821  1.0000
  N   N46       1.0  0.68486  0.77433  0.01264  1.0000
  H   H526      1.0  0.69418  0.81475  0.02456  1.0000
  H   H527      1.0  0.79282  0.94757  0.05098  1.0000
  C   C528      1.0  0.85801  0.95979  0.00808  1.0000
  S   S180      1.0  0.87204  0.85860  0.99048  1.0000
  H   H528      1.0  0.78086  0.59484  0.00902  1.0000
  H   H529      1.0  0.68576  0.70665  0.00316  1.0000
  H   H530      1.0  0.92376  0.78391  0.98876  1.0000
  C   C529      1.0  0.94572  0.60343  0.19182  1.0000
  C   C530      1.0  0.68205  0.57926  0.11722  1.0000
  C   C531      1.0  0.69136  0.79563  0.04162  1.0000
  C   C532      1.0  0.84412  0.75100  0.99519  1.0000
  H   H531      1.0  0.90024  0.49794  0.01912  1.0000
  C   C533      1.0  0.84662  0.97146  0.07868  1.0000
  C   C534      1.0  0.68264  0.72747  0.99525  1.0000
  C   C535      1.0  0.84905  0.48757  0.99630  1.0000
  C   C536      1.0  0.79778  0.96239  0.02800  1.0000
  H   H532      1.0  0.69018  0.62086  0.12630  1.0000
  H   H533      1.0  0.98920  0.61115  0.27548  1.0000
  H   H534      1.0  0.96995  0.97129  0.46155  1.0000
  H   H535      1.0  0.97109  0.65139  0.24837  1.0000
  H   H536      1.0  0.90156  0.80499  0.00391  1.0000
  H   H537      1.0  0.98459  0.54448  0.22985  1.0000
  C   C537      1.0  0.72760  0.60027  0.99187  1.0000
  C   C538      1.0  0.75869  0.85646  0.98788  1.0000
  S   S181      1.0  0.99342  0.56413  0.36436  1.0000
  H   H538      1.0  0.97250  0.55180  0.28043  1.0000
  H   H539      1.0  0.66889  0.53989  0.10658  1.0000
  C   C539      1.0  0.98231  0.56011  0.25439  1.0000
  C   C540      1.0  0.93544  0.91483  0.70287  1.0000
  H   H540      1.0  0.96625  0.50588  0.50726  1.0000
  S   S182      1.0  0.96790  0.85161  0.59663  1.0000
  Fe  Fe91      1.0  0.67372  0.60533  0.95519  1.0000
  C   C541      1.0  0.81177  0.97322  0.95933  1.0000
  H   H541      1.0  0.84968  0.49344  0.96354  1.0000
  Fe  Fe92      1.0  0.96225  0.84687  0.66698  1.0000
  S   S183      1.0  0.92826  0.84556  0.69361  1.0000
  H   H542      1.0  0.87265  0.72413  0.90666  1.0000
  Fe  Fe93      1.0  0.85991  0.85954  0.92361  1.0000
  H   H543      1.0  0.95156  0.58049  0.56999  1.0000
  S   S184      1.0  0.88901  0.86237  0.87942  1.0000
  Fe  Fe94      1.0  0.99369  0.88108  0.61368  1.0000
  H   H544      1.0  0.97572  0.73693  0.58779  1.0000
  C   C542      1.0  0.69230  0.58368  0.84935  1.0000
  Fe  Fe95      1.0  0.81367  0.85548  0.95600  1.0000
  S   S185      1.0  0.83478  0.89071  0.93993  1.0000
  S   S186      1.0  0.83775  0.82439  0.93381  1.0000
  C   C543      1.0  0.89328  0.79610  0.92350  1.0000
  H   H545      1.0  0.97167  0.69014  0.56156  1.0000
  H   H546      1.0  0.92620  0.90262  0.72437  1.0000
  H   H547      1.0  0.95612  0.90893  0.57548  1.0000
  C   C544      1.0  0.98902  0.69618  0.50370  1.0000
  H   H548      1.0  0.71055  0.61909  0.86251  1.0000
  H   H549      1.0  0.73278  0.86615  0.94675  1.0000
  H   H550      1.0  0.88121  0.80480  0.86152  1.0000
  H   H551      1.0  0.83887  0.76625  0.97340  1.0000
  H   H552      1.0  0.92782  0.91335  0.57808  1.0000
  N   N47       1.0  0.89562  0.77726  0.95440  1.0000
  H   H553      1.0  0.67022  0.55254  0.83439  1.0000
  C   C545      1.0  0.91788  0.84907  0.74599  1.0000
  C   C546      1.0  0.93052  0.85641  0.78018  1.0000
  C   C547      1.0  0.92137  0.86036  0.82052  1.0000
  C   C548      1.0  0.89951  0.85687  0.82755  1.0000
  C   C549      1.0  0.88691  0.84924  0.79347  1.0000
  C   C550      1.0  0.89603  0.84553  0.75304  1.0000
  H   H554      1.0  0.94731  0.85929  0.77550  1.0000
  H   H555      1.0  0.93134  0.86623  0.84650  1.0000
  H   H556      1.0  0.87009  0.84657  0.79807  1.0000
  H   H557      1.0  0.88602  0.84000  0.72692  1.0000
  C   C551      1.0  0.88878  0.75153  0.94819  1.0000
  S   S187      1.0  0.77786  0.85692  0.94626  1.0000
  H   H558      1.0  0.75457  0.59308  0.95159  1.0000
  C   C552      1.0  0.69645  0.61112  0.84771  1.0000
  C   C553      1.0  0.98041  0.70447  0.54284  1.0000
  S   S188      1.0  0.70933  0.59853  0.94923  1.0000
  H   H559      1.0  0.80490  0.93297  0.98018  1.0000
  C   C554      1.0  0.66595  0.76048  0.95095  1.0000
  H   H560      1.0  0.92284  0.89602  0.64771  1.0000
  H   H561      1.0  0.89902  0.81639  0.92811  1.0000
  C   C555      1.0  0.68204  0.62828  0.82835  1.0000
  C   C556      1.0  0.94974  0.93358  0.71841  1.0000
  C   C557      1.0  0.97863  0.60315  0.54935  1.0000
  C   C558      1.0  0.98271  0.73119  0.55795  1.0000
  H   H562      1.0  0.97249  0.53883  0.58249  1.0000
  S   S189      1.0  0.98551  0.66175  0.48630  1.0000
  H   H563      1.0  0.70313  0.57040  0.86571  1.0000
  S   S190      1.0  0.98499  0.81216  0.67212  1.0000
  C   C559      1.0  0.94324  0.92246  0.58647  1.0000
  H   H564      1.0  0.94466  0.94177  0.56923  1.0000
  H   H565      1.0  0.68487  0.64972  0.82782  1.0000
  H   H566      1.0  0.96867  0.95693  0.62531  1.0000
  H   H567      1.0  0.95170  0.93595  0.75214  1.0000
  C   C560      1.0  0.88326  0.78962  0.88567  1.0000
  C   C561      1.0  0.97887  0.49266  0.51707  1.0000
  H   H568      1.0  0.81770  0.96690  0.92874  1.0000
  C   C562      1.0  0.95912  0.94519  0.64696  1.0000
  C   C563      1.0  0.87576  0.76363  0.87947  1.0000
  C   C564      1.0  0.98022  0.55701  0.57178  1.0000
  C   C565      1.0  0.99679  0.95172  0.54989  1.0000
  H   H569      1.0  0.86773  0.75847  0.85048  1.0000
  S   S191      1.0  0.98629  0.87817  0.68361  1.0000
  C   C566      1.0  0.98306  0.95050  0.51533  1.0000
  H   H570      1.0  0.97449  0.93218  0.50924  1.0000
  C   C567      1.0  0.96850  0.58028  0.56455  1.0000
  C   C568      1.0  0.99383  0.75041  0.53435  1.0000
  N   N48       1.0  0.94505  0.92671  0.63201  1.0000
  C   C569      1.0  0.93349  0.91135  0.65934  1.0000
  C   C570      1.0  0.87860  0.74438  0.91082  1.0000
  C   C571      1.0  0.96174  0.94884  0.69032  1.0000
  H   H571      1.0  0.96965  0.62128  0.54292  1.0000
  Fe  Fe96      1.0  0.99228  0.81829  0.60310  1.0000
  C   C572      1.0  0.67367  0.57376  0.83166  1.0000
  H   H572      1.0  0.97321  0.96315  0.70191  1.0000
  H   H573      1.0  0.83522  0.71804  0.95489  1.0000
  H   H574      1.0  0.66827  0.80123  0.97229  1.0000
  H   H575      1.0  0.89592  0.49077  0.94283  1.0000
  C   C573      1.0  0.73730  0.86169  0.97881  1.0000
  C   C574      1.0  0.98055  0.97286  0.48802  1.0000
  H   H576      1.0  0.89058  0.73651  0.97265  1.0000
  C   C575      1.0  0.67297  0.78062  0.97816  1.0000
  C   C576      1.0  0.67087  0.73375  0.95958  1.0000
  S   S192      1.0  0.99776  0.78468  0.55220  1.0000
