data_image0
_chemical_formula_structural       H3NHC2NH2CS2FeS2FeSHFeSFeS3C2H2CHC2H2SH2CH3SC2HSHSFeS2FeS2FeHFeS5C2H3S2CS2CHC7H4CSNC4SH2C6H4C6H4CHC4H4CHCHCHC2HCHCHCH5SCFeC2HCSCHCHCSHCSC5H2CH2FeSHCFeH2SC6H4C6H6FeH3C3H5C8H3CNC5H5CH2CHSHCHCHCH2CHCH2C3H3SCH3NHCSCH4N2H3C3S3Fe2C2H2CH2CSC2SH2NC2HC3H2CNHCH3C7H2CNCH2SHCSCH2NC2HNHCFeC2NHC2HSC3H3CHFeCHNCSHC2H2C5H4CSHC4FeHSCH2CFeS2CHC4H3SCHCHCNH3FeH2FeH2CSFeH5CSCHCHNHSFeHCHC3SFeSHFeSFeSHSFeSHFeS2FeSFeS4HCFeSH3FeH2SH2SNH2FeSHCHSH2FeS2HC2FeNHFeS2H2FeSFeS2CH2C3SHCFeSFeHSCHS2HSHCHCFeSHCHCFeSCFeS2FeSFeS3FeS2FeSFeSFeS4HFeSHCSH2CHCHCFeSCHNCHC7H4C6H4C6H4C6H4CHC4H3C3HCHCSH2SHSCH2SHCH2C2H2SC9H4C6H5SCHC2HC2HC2HCHNH4C3HC2HCH3CHCHC6H4C5SH2CHCHCHFe3HC8H4CH2C3HC4HFeS2H2CHC3H2CHNHC2H2SNC2HCHCHC10NHCHCNCH3C2HCH2SCH2SH5CH8NH4CHC2HSHC3H2SH2CSHCH3C2HCFeC2HCHNFeN2H4CHCHCH2CH2C3SHCNH2C2SC3HCH2CHCHS2C5FeCN2C2HCHSHCHCHSCSNC6H3FeC3HNC6H4C3FeH4FeCFeSC2H2FeH4CHSH3CHNCHCHSHFe2HCHCHFeCHC2SH2FeC4HCH2CHCH2NC2SH6SNHFeHCH2C2H2CH4CHCS3H2SH5FeS2FeS3FeC2FeS2Fe2SHSFeS2FeS2FeSFeS3H2SFe2SFeSCSCSHCHFeS2FeS2FeSFeS3FeS2FeS2FeSFeS3FeS2FeS2FeSFeS5H2SFeSFeSCSFeCSFeHSFeS3HC2HSHSCSFeS2FeSFeSC2SH2C6H4CFeH2C4H4C2H4CHCHSHNC7HCH2C6H4C6H4C6H4C6H4CFeH2C2S2H2C6H4C6H4C6H4C6H4C6H4C7H3C6HSH2C6H2CHC6H4CHCFeC3NCH2CH3FeC6H4CH3C4H2C7H3C2HCHSHSHNHCHC2HCH5SH2NCNC6H4SNH2NC2H3CH2SH6C2HCH3NH5NC2NC3H4CHCSC4HCHCHCHSHCHFeCSCHSH2CNC2HCSH2CN2H2C2HC3NC6H9SCHCH4SHCH2CHC4HC2HC2SCHC3H3CHSH2CH2NH2CHNC6H8NC6H8NCHCHCSC2HC2H3SCH2CHCHCNCFeH4C2NC2HC5H5CH5CHNC3H2SH4CHFeSHFeCSCFeCHC2HCHSHCS2H2Fe2H4C2H2CFeSHS3CSC2HFeS2FeCFeS4CH2FeSCSH2NFeCHSCHCHSH4CHSHCFeS2FeS2FeSFeS3FeS2FeSFeSFeS3HCFeS2FeS2FeS2FeSFeS3FeS2FeS2FeSFeS3FeS2HCFeCFeS3FeCSCSHCSC6H4C6H4C2H3C6H4C3H2SC6H4C6H4C6H5FeH2CFeHSHC2NC2NC3HFeH2FeCHNCH2C8H4C4HNH2C6H5CHSHC2HSHCHC3FeC6H4C7H4CHCSHCH4CH2C2H2CHSCFeHCH2CH3CFeCNC2HCHCH2CH8CSNC6H8CNHC2HSCFeC3NC6H9CH2C4NCHCH3NC6H8SC2SCH2CFeSHCH2C4HCNC2HCNC6H8NC3SCH5FeCH2CH2CH2CNH2C3H5CH3SC2HCHC4HSHCSNCHC3HFeC3HSCSCHC2NC4H3CSCFeSNHSH2CHC2HC3HCHC2H5C3NC6HCH2CH3SCHSC2NH2C3NH4C3HSH3CSH2CHSHSFeHCHFeHFeH2CSCH2C4HFeCSHCHCHCSH5FeS2CH2CH2CH3FeNFeHC3NC3H2SHCFeHSH2CN2HCHFeS2FeS2FeSFeS3HFeS2FeS2FeSFeS4FeS2FeS2FeSFeS3FeSHFeSFeHCSHCHCFeHCHFeS2FeS2FeSFeS3HNS3C6H5CHC6H5C8H2CHC6H4C6H4C6H4C6H4C6H4C6H4C6H4C2HC4H2C6H4FeC2NHCSHSC6H4NFeHCH2C3H2FeCHCH5NC3H2FeC2NC6H2CHFeH2C2H3CH2CSCSHCS2C2SCH3CH2SNC6H9FeSHCHNCHSFeNC6H5C2HNC6H9C2SC2H2CFeCSCH2NC6HCH6NC6H8C2H2CHC2H6CHSH4CHC2HSHCSNC6H2CHFeCH2NC6H3SH7S2CHCH3SH2CH2C3HNH5CHSCNHCHCFeNH3C2H2CH2FeH2C5FeS2H2CHC2FeCHNHCHCS2CHCHNFeCHCHFeCHCHSCS2H2CHCH2CHCSHSH4CH2C3HCHCSH2SCHCHSC2HC2SHFeS2HSC2HSCHFeSH2FeS2HFeH3FeHCSFeS2FeSFeSFeS3FeS2FeS2FeSHCS2FeS2FeS2FeSFeS3FeS2FeS2FeSFeS3CSCHFeS2FeS2FeSFeS3FeS2FeSHFeSFeS2HCNHCH4C3H4CH3CNFeHC2HS2HC6H4C2SH2C6H4C6H6C6H3C5H2C6H4C2HC7H6CHFeC2H3C6H4C6H4C6H4CH2C3SHCHCHCSNH2C8H4C6H4CH3C6H4C3H2C5HCSCFeNHCHC2HSHFeH3CNCH2CH5CHNC2H6CH2C3NC3H4CSHSCHCH4C3H4NC6H8CHCH2SC3NC6H8NC6H10CHSC3SH3CHSC2HC2HSCNH2SC2HNHCHCH2NH2CFeNC6H10C2H2CHC3SH2CHCHNHCHS3H2S2CFeC2H2CHCSC2NC2H3CNC3SC2HC2H2CHNCSH2SCHCH3FeH4CHCHC2SHFeC2FeNC2H2C2SHC3HSCHSH3CHFeHNHC2HFeHCH2C2H5CFeCH2CSH2FeCHNFeCHCH3CHS2FeHC2SFeS2FeS2FeSFeS3HCSH2S2H2NCSFeS2FeHSHCS2Fe2SFeH3CSH2CFeSH2C3SCSCHC2H2CH2FeNCNC2FeS2FeS2FeSFeS3FeCS2HCHSHC2HFeS2FeS2FeS2C2SHSHSCH2C2FeH2C2H2C3HCHC3H2CH2C3HSH2C6H4C6H4SC5H4CHCHSCH2SC2NSH2C6H4NFeHCHSH3SHCHC2H2Fe2HCHSNCHFeCNC4HCH4C6H4C6H4C7H4C6H4CHSH4CH9CH2SHCHC6H5CFeHCHFeSHC2H3CHFeCH2C2H2SCHC3SHSC2SC4SHC3HNCHCHC2HC5H3C2HSHCH2CHCHNC3HFeC3NC6HCHCHFeCHSH3N2C6SH4SHSNC6H2NH3CHSCHCH2CSCHCSCFeCHCNC6H8S2C2NH2FeCHCHC2HSFe2HCSH2CH2CHSC2HCHFe2HCH3CH2CHC2HC3HNFeNC2SCH7CH4CSH2FeH2C2HSHCHFeH2C2HSCHNHC2H2C2HSHSNSFeS2HFeSHFeSCH2C5H2NCFeS2FeS2HFeS2FeS2FeS2FeSFeS3CFeC2FeSFeSFeCSHC2S2C2HCHCNH2FeHCH3CH3CSCHFeNFeH3S3HC2HC3HCNHFeS2FeH2NCFeS3H2S3CH2SCH2C2FeHSHNCHSCFeHCHCHC3H2SH5CHC2SCHCSH3CHNSHFeH2C2H3SCH5C2SC9H4C5SH3CFeH2CHCSCNH5SH4CSCHCH2SCHC3HSCH3C3H3FeCSC2HCHCSCSHCFeC3H2CHC2H2C3HCHC6H4C4SCH2CHC6H4C6H4C3H3NHNSHFeH2SH2CSHCH2CH3C2HCFeH2C8H4FeH2C2NC4H6CH4C2H3NCH3C2H4C2S2CHFeNCSC4H3CH2CHCHC2S2CSCH6C2HSHC2NC3HCH3C4SCFeNC2FeCH2CNC6H2FeC2H3CHC4HC2H3C5HSCH2CSHCHCHCHC3H2C2HCSCH5CH2C2HC3HCHSH5NHCHCHFeHCHC2HSFeH4C2H2CH3CHSCH3FeS2FeSHFe2S2FeS2FeHSFeSNS2CHSHCHFeSCFeS2FeSFeS3CSH3SFeSHFeS2FeSFeS4H2CH2SH3NC2Fe2HSHCH2SFeHSCH3S2FeCSCSCSCSCFeCFeHSFeH2S3H3C3HC3HSH2CNHCN3C5H2C3HCH2C2H2CH3C7H2CHCH2SC2SHC8FeCH2C6H5C5H4C6H4C7H4CHC8H4C6H4C6H5NHFeHCH2C3H2CH3CHFeHSCH2CHC2HCHC2H3C9HSHCHC2H2C2H2C5H5CH2CHNC6H4SH4CHNHCH3C2HCHCHC4NCNCHFeHCHSH3SHC2NCHC2HC4HCH4CHCH2C4HSCHNC3H4NH2CSC2HFeCNCH2CFeH2SCHCHFeHC2HSFeCHSNH4C2HCH2S2CHFeSFeS2FeS2FeSFeS3FeSHFeS2FeSFeSFeS2FeS2FeSFeS3HCHSH2FeCHNCFeHSCHSCH2SHFeS2HNHFeSFeHSH2CHCFeSCFeS2C2FeS3CH2SHC2HCHC3HFeSH2CFe2CHS2FeHSC4H3NH2CH2CSHCNSC2HCHC6H4C6H4C6H4C6H4SC2HC6H3SC6H5SCHCH2C6H4C2HNHC3SH5NC6H9CH5C2HSC2H2C2HC4NCHFeH2CH2FeCHC2NSC3HC4FeHC2SHFeH2CSHNCH2CHC2HSC3HC3SH3CHC2HSNCSHCNHNHCH3CH3CSC2HCHC4H5CH2SC2FeHSCNC8SH3CHC2H5FeHSH3CSCHC3H2CH2CHFeHCSHSCS2HCNC6H8NC6HNHC3H2NC6H7CH3CH2SC5HSFeC2H2SHS2H2CH3CHCSHCHCSCFeCH3FeNCH2C2H2C3HFeC2HFeCSHSHC3HCSH2C3SC2H3CH2FeH3C3NHCH2C3H2SFeHSCHFeHSC3S2CFeHSH2SHSHCH3CNHFeHFe2S2FeSFeS2CFeS2FeSNFeSFeS4H2CHCH2CSHSCSCHS2HS2CH2S2H3FeSFeSFeHCHSH4FeS2CH2CH3C2SCHFeS2FeSHFeSFeS3FeSHFeSFeSFeS2FeS2FeS2FeSFeS2HC6H4C6H4C6H4C6H4C6H3C2H2CHCH2SC4SCH5SCHS2C6H4C2FeC4H3C2SC3HCH2C6H7CH2NHFe2CSC3FeC2H2CSHSFeH3NFeC2HNFeC7H2C7H3C7H4SC3H3FeHCHSC6H4CH2C3H3CHC3H3CSCH2CH2SHC7SCFeCNHSCHSNCS2H3C3HC5NC5H5C2HNCH2CH2C3NC3HCSH2C4H2SNC6H9CHCHCHSCHCH3NC6H9SC2HCH3NCHFeSHSCHNH3NHC2NC6H8FeCHCH3CHNC6H2CH3C2NC6H9C6HSHCFeSNH3FeH2SHC3SCHSCH3CH2S2HCH2C4SH8CHC2HCH2NFe2SFeS2FeS2FeSFeS3FeS2FeS2FeSFeHS2NH4CHSH2FeS2FeS2FeSFeS3FeS2HCHC2Fe2S2FeCSFe3HS2C3SHSHSC3FeS2FeS2FeSFeS3FeS3C2FeS2FeS2FeS2C2FeS3HFeS2FeSFeSFeH3SCFeCHSFeCSCHFeSC2SFeCSNFeCHSCHCNCHSHCHCH3NSCSH2NCSNC4H2C2HC6H4C6H4C6H4C6H4C6H4C6H7SCS2C4H2FeH3C6H4C6H4C6H4C6H2CHC2HC2H3C6H6SC2HCH2CHNCNCH2C2FeC3H4C6H7C6H3C7H4C6H3CH5CH2CH2SC3HCNC6H7CHC2HC4H3CH2CH2CHC2H3FeCH2CHNC2HCHCFeCHC2HCH2C2H3C2H2SCHCSHCNHSCSC6NH5C2HCH7CFeC2HSH5C2HNC6H8CHSH2SCHC2SH3C2H3SHNC6H6NC6H9C3SCH3NH5CH3C2N2CSH3NC5H4C2H3CH2C2H2CH2CHSH2CSCHC6SHCHC2HCHNHCHCHC3H2C2FeS3HFeCS2HC2FeCHSFeH2CFeCH3SC2H4FeHFeC2SHC2H2C3SNSH4NCHFeCFeCSH3SCH3SH2SCH3CHC2H2CHCH2CH3S2FeHFeH4CFeSHCHFeSHSH3SCS2HCHC2SH2FeSH3CFeSFeS2FeS4CHFeSCH2CHC6FeSCSFeS2FeSCFeSFeS3FeS2FeS2FeSFeS3FeSFeS2FeH2FeS2FeSFeSH2FeS2FeS2FeSFeS3H2FeS2FeH3CSC7HCH2C6H4C3H2C2SCH3C6H4C6H4C6H4CHC3SC2H3CHFeCSHNCHFeCHC2H2CSH4FeNC3NC4SH2C8H4C6H4C4HSCHSHC2HNSCH2S2C4H2C6H4SC2HNH2C2HCHC2FeCSCFeCFeSCH2SC5HC3HFeC2HSHC3H2CHC2H2C2H2CSHFeSH2NHC2H2FeCSC2HCSCHCH2NHC2H2CH2CFeC4H2CN2C3NCH11CHCHNCHNC6H8C2SC2H4C3HCH2CHCSHCHNC6H8NC6H9NC6H9C2HC2S2CHCSC2HSFeH7N2C6H9CFeSHSC3HC2H3CHCHNC2H2C2H2NHCHCNHFeCSC2H4C3HFeHCHCH2SCHSC3FeHC2HC2H4SH2C3SH2FeH3C2FeSHS2C2NCH3SH2SC2HCHCNH5C2HCH2NHC2S2HFe2H2C2HC2HFeSFeSCFeSFeS2HFeS2FeS2FeSFeCS2FeS2FeS2FeSFeS3HSH3S2CSHS2HCHFeHSCSCFeS2FeSFeS3FeS2FeS2FeSFeS3HCH7FeS2FeCHFeSC2S2C2HSNH4CSC4HCSH5CHC3SHCH3CHCH3CNSH2NHC2H2NSHC4H2CHC3FeH2C8H4SC7H5C6HSHSC6H4SCH2C6SH3SH2SNFeC6H5C6H4CHFeC6H4C4H2C6H5FeC6H5CH4C5H3NC2HCH4C6H2CH2CSH2C3HNHCHFeHSHCHSHC2HNC3HC2SH2SH4C2H4C4FeHCSCFeH4CH2C2SCH2CH3CNC5SH5CHCHCHCFeCNC6H8C2H2C2H2C2FeHNC2SC2HC3HCH6C2H2CHFeNHCHCH2CSFeHFeCHC2NC3HC3H3C2HC2H2NH2CHCHC2HC3H2CSC2FeCH2CHCH2NCHNHCHCHC3HNHSCFeCH2SC4H2SCFeH2Fe2SCSHFeS2FeS2FeS2FeSFeS4C3HFeSHC2HFeS2FeS2FeSFeS3FeS2FeS2FeSFeS3FeS2FeS2FeSFeS3HSCFeS2FeS2FeSFeS3FeS2FeS2FeSFeS3CHSHCSHCHSHCH2CSHC3SHSC2FeHS2H2C6H4C3H2CSC6H2FeHC6H4C6H3C3H2C7H4C2H2C6H7CH2CNH2C7H4CH4FeCHSCHC3FeCSC6H4C6H4C6H4C3HC6H5C6H5C3H2CNH3CSCHNC6H8NC4SNHC2HCNC6H2CH5CHNC3H6SH2S2H2CHSC2H3NH5CHSH3CSCH2CSC3H4NC6H12C3HCHNCHNCNC6H8NC6H9CH2FeHC2HNC6H11FeC4HSH3SC4HCFe2CFeH2C4NC5H5NC6H9NC2HSHCH2CH5C2FeCHFeC3NHCHS2H3C2H2CSCHC2HCH5C2SCH2CH7FeHCHFe2HC3HFeS2FeS2FeSFeS3FeSHC3FeS2H2C2HSNFeS2FeS2FeSFeS3HCHC2FeS2FeS2FeCFeS3HSCSC3SC2SFeNHFeHCHS2FeS2FeSCFeSFeS3HC3HS2C7HNHFeC7H3C7H3C6H2C8H5NH2C4HSH2CFeH4C6H4C6H3CNCH2CNCHCNC3HC3HCH3C7H4C6H9C6H3C5H4C2SH2CFeC4H2C3HCHC2NH2NH2C2HCH3CH2C2SH7CNC6H7CHCHC2HCH11SHSCSC3SH3CHC2FeC2SHSHCHCHCHCHSCH4C3H2CNC6H2CH5NHCHCSCSH2CH2CNH3NCSH2CH2CSH3CH3CFeHNH3CH4C3HCHSHSHCHNC5H3CSH2CFeCH4SC3FeC3H2CHCSHFeCH2FeH3CH2C2FeC2NH2CHC6SHFeNHFeHFeCSFe2SHCHCHCHCFeS2FeSCHSNC6H5FeHCHCHSCHC2FeS2FeS2FeSCS2FeS2FeS2FeSFeS3C3FeS2HCFeS3H2CSH5S2FeSHFeSFeSH3CHCH2SHCHSCFeSC2H2CFeHNH4NSFeHSFeS2H2SNCHCSCH2CH2CHC4HSH4CNCFeCNHSHC2H3C2NHCH3FeC2HCS2CSHSHC2H3NHSHCH3C2SHC6H4C6HCH4CH2CHCSHCH2CHSHC7H4C6H4C6H4NHCH2CHC2H2SHCH3CH4SHC7H4C3HCHC2HFeCFeC2H2C4HCH3CHSH2C2HCHC6N2SH2CNCHSC6H5CHCH3C3H2CHCH2CHFeH3CN2CSHFeHC2FeHC5HC2S2CH2FeH2C2HCH3CSH2NHCSC2NCSC3SHC2HCHCHCHCH3NSH2CH3CH2CFe2H4C4H3NC5HC2FeH3CFeC2H3SH3FeCHC4HS2C6HCH2CFeHSFeCHNCSHC3HC2H2SH2SH2C2SC3HC2HCH4FeS2FeS2FeSFeS3FeSHSCH2SC3SH2CN2CFeS2FeS2FeSFeS4H2CSNSHCFeS2NFeHNC6H4C6H2CHC3SCHCH3C2H3CH7C6H4CHCHCHC6H4CHCH3SHCHC6H4CH3CHCH3CH2CHC2SH2SC7H3CH3C2H3C2HSCSCSC3HC2H3CSHSCSCNH3C4HS2H3C5NHNCHCHC2H2SHNHCH5C2H3NCHC3HSNHCH2FeC2SC2H4C5H3FeSFeH2CSHCSCHC4HSFeH2CNHCH3SC2NC6H9C3H2SH3CH3CNH2CHCHC2HC2HFeCH2CHC2HSCSFeSC2H2FeCH2CFeH2FeHSHCFeSH3CHSCFeH2FeCS2FeS2FeS2FeSFeSFeS2FeS2FeSFeS3H2C2SCH2C2HFeSCFeSFeSFeSHFeS2FeSFeSFeS3CS2HFeCH2FeSCSCSFeHSHNH3S2HSHC2HCH3C2H2CH2S2H2CH2CH2C2HC2SH2CSHC3HSCH3C6H4CS2CFeHCSH2C6H4C6H4C6H4C6H4C6H4SC6H4C3FeNSH2CH2CH2FeH2NSNH2C3H2CHSH3C3H2CHCH4C3HCHC3SC5FeCH2C2H6FeCSNC6H8NC6H8NC6H5SC2HCHCFeNFeHCHC2H2C3HC4HC2FeHC3NHCHCHCHCSHCH2CNC2N2HCHC3H3C2HCH3C2HCHC3HNC6H8C2SH5C3H2CHNCHC3SNCHCH2FeC3H2CFe2SH3C2S2CHSC2H3CHCN2CS2NC6H8NHCSH2NSHC3HSCHCH2C2HCHCFeS3C3H3SH3CH2CHC2HCHCH6CH2C2SCHCSH2C2H2SH4C2H4C2HCH2SHCS2FeSHFeS2FeS2FeSFeS3HSHCSFeSFeSC2H2FeS2FeS2FeSFeS3FeS2FeS2FeCFeHS2FeS2FeCSFeHFeCS2FeS2FeS2FeSFeS3FeS2FeC2HC2SCHFeS2FeS2FeSFeS3HCSHC6H5FeC2HCH2NC7H4C6H4C6H2CHC6H2SHC6H5C3SH3FeHC5H4C6SH3C3H2CH2FeHC6H7SH2C3HC6H4C6H4C6H4C6H4C6H4C7H4CHC6H3NC6H8NC6H6CHFeCHCFeCH2C2H3C2HC2NHNH2SH2C3HFeHCH2FeC2H2C2FeNFeCFeHCNC6H10CSH2NC6H3CH4C4H3NC3SHCHCSCH2CHCH3SHCHC2H4CNC6H8NC2SH2SCHNH2C2S3HCFeHCHC3H4NC6H7CNC3H4C3SCSNCH2FeCH3CNS2NCHC3H2SH4N2H2CHCFeCSHSFeSHFeCSH4SCH3CS2C3HC3HFeC2H5C2H3C3HCNCHC2SCH
_chemical_formula_sum              "H4608 N384 C4608 S1536 Fe768"
_cell_length_a       95.4409
_cell_length_b       96.4935
_cell_length_c       96.5593
_cell_angle_alpha    73.6651
_cell_angle_beta     73.7496
_cell_angle_gamma    73.6436

_space_group_name_H-M_alt    "P 1"
_space_group_IT_number       1

loop_
  _space_group_symop_operation_xyz
  'x, y, z'

loop_
  _atom_site_type_symbol
  _atom_site_label
  _atom_site_symmetry_multiplicity
  _atom_site_fract_x
  _atom_site_fract_y
  _atom_site_fract_z
  _atom_site_occupancy
  H   H1        1.0  0.45066  0.15758  0.15628  1.0000
  H   H2        1.0  0.36486  0.00740  0.43632  1.0000
  H   H3        1.0  0.22981  0.01986  0.45578  1.0000
  N   N1        1.0  0.03054  0.03967  0.41510  1.0000
  H   H4        1.0  0.45197  0.04269  0.03055  1.0000
  C   C1        1.0  0.25250  0.10569  0.46263  1.0000
  C   C2        1.0  0.04456  0.04212  0.40465  1.0000
  N   N2        1.0  0.44613  0.02404  0.23133  1.0000
  H   H5        1.0  0.40968  0.06886  0.00273  1.0000
  H   H6        1.0  0.13974  0.13434  0.45176  1.0000
  C   C3        1.0  0.45657  0.16702  0.12679  1.0000
  S   S1        1.0  0.43720  0.14799  0.98147  1.0000
  S   S2        1.0  0.44525  0.01827  0.16788  1.0000
  Fe  Fe1       1.0  0.45044  0.08556  0.05994  1.0000
  S   S3        1.0  0.43433  0.07491  0.07910  1.0000
  S   S4        1.0  0.44869  0.09286  0.03585  1.0000
  Fe  Fe2       1.0  0.46796  0.08938  0.08019  1.0000
  S   S5        1.0  0.45365  0.07873  0.10082  1.0000
  H   H7        1.0  0.41941  0.12491  0.00523  1.0000
  Fe  Fe3       1.0  0.45488  0.06225  0.08800  1.0000
  S   S6        1.0  0.46058  0.03773  0.09802  1.0000
  Fe  Fe4       1.0  0.43466  0.09245  0.09021  1.0000
  S   S7        1.0  0.41459  0.10545  0.10344  1.0000
  S   S8        1.0  0.47106  0.07172  0.06800  1.0000
  S   S9        1.0  0.44888  0.10411  0.07044  1.0000
  C   C4        1.0  0.04464  0.10973  0.41852  1.0000
  C   C5        1.0  0.46064  0.98947  0.24896  1.0000
  H   H8        1.0  0.44927  0.03431  0.28791  1.0000
  H   H9        1.0  0.43678  0.99557  0.41702  1.0000
  C   C6        1.0  0.44872  0.02746  0.31878  1.0000
  H   H10       1.0  0.41721  0.98751  0.41249  1.0000
  C   C7        1.0  0.33373  0.03292  0.44522  1.0000
  C   C8        1.0  0.01878  0.03932  0.40981  1.0000
  H   H11       1.0  0.46484  0.06139  0.41887  1.0000
  H   H12       1.0  0.46498  0.06120  0.16255  1.0000
  S   S10       1.0  0.25985  0.07105  0.44401  1.0000
  H   H13       1.0  0.17767  0.05990  0.42230  1.0000
  H   H14       1.0  0.42312  0.11412  0.02267  1.0000
  C   C9        1.0  0.05314  0.17958  0.41016  1.0000
  H   H15       1.0  0.33005  0.04331  0.44881  1.0000
  H   H16       1.0  0.25823  0.10942  0.46862  1.0000
  H   H17       1.0  0.22713  0.04702  0.44578  1.0000
  S   S11       1.0  0.26928  0.03027  0.46568  1.0000
  C   C10       1.0  0.14175  0.08592  0.46193  1.0000
  C   C11       1.0  0.18082  0.02943  0.44200  1.0000
  H   H18       1.0  0.16428  0.09899  0.47481  1.0000
  S   S12       1.0  0.45512  0.17221  0.08670  1.0000
  H   H19       1.0  0.45159  0.06085  0.04459  1.0000
  S   S13       1.0  0.45132  0.02922  0.40211  1.0000
  Fe  Fe5       1.0  0.12399  0.05763  0.42459  1.0000
  S   S14       1.0  0.11377  0.05172  0.44884  1.0000
  S   S15       1.0  0.14188  0.04216  0.41172  1.0000
  Fe  Fe6       1.0  0.10807  0.09028  0.42221  1.0000
  S   S16       1.0  0.09710  0.08660  0.44626  1.0000
  S   S17       1.0  0.10225  0.11357  0.40901  1.0000
  Fe  Fe7       1.0  0.11939  0.07249  0.44972  1.0000
  H   H20       1.0  0.04227  0.05228  0.39590  1.0000
  Fe  Fe8       1.0  0.09252  0.06651  0.44258  1.0000
  S   S18       1.0  0.06915  0.06244  0.45261  1.0000
  S   S19       1.0  0.13080  0.07758  0.42576  1.0000
  S   S20       1.0  0.10236  0.07095  0.41816  1.0000
  S   S21       1.0  0.49012  0.03685  0.37747  1.0000
  S   S22       1.0  0.45882  0.99562  0.27545  1.0000
  C   C12       1.0  0.14861  0.14351  0.41233  1.0000
  C   C13       1.0  0.14651  0.15889  0.40802  1.0000
  H   H21       1.0  0.41360  0.06778  0.02743  1.0000
  H   H22       1.0  0.15462  0.15270  0.44746  1.0000
  H   H23       1.0  0.44868  0.11710  0.98217  1.0000
  S   S23       1.0  0.17138  0.11948  0.44656  1.0000
  S   S24       1.0  0.18779  0.14381  0.46019  1.0000
  C   C14       1.0  0.12171  0.16774  0.38125  1.0000
  S   S25       1.0  0.11350  0.15892  0.43874  1.0000
  S   S26       1.0  0.02430  0.07626  0.41049  1.0000
  C   C15       1.0  0.26442  0.98758  0.42362  1.0000
  H   H24       1.0  0.12480  0.16272  0.37147  1.0000
  C   C16       1.0  0.46592  0.10778  0.10543  1.0000
  C   C17       1.0  0.05669  0.06625  0.44088  1.0000
  C   C18       1.0  0.06180  0.06853  0.42554  1.0000
  C   C19       1.0  0.05170  0.07168  0.41638  1.0000
  C   C20       1.0  0.03640  0.07260  0.42247  1.0000
  C   C21       1.0  0.03120  0.07034  0.43780  1.0000
  C   C22       1.0  0.04136  0.06710  0.44699  1.0000
  H   H25       1.0  0.07356  0.06767  0.42071  1.0000
  H   H26       1.0  0.05579  0.07340  0.40451  1.0000
  H   H27       1.0  0.01939  0.07103  0.44259  1.0000
  H   H28       1.0  0.03734  0.06534  0.45887  1.0000
  C   C23       1.0  0.22829  0.98372  0.47617  1.0000
  S   S27       1.0  0.03259  0.17217  0.40021  1.0000
  N   N3        1.0  0.43043  0.99821  0.14422  1.0000
  C   C24       1.0  0.16047  0.10616  0.45265  1.0000
  C   C25       1.0  0.15300  0.10452  0.44289  1.0000
  C   C26       1.0  0.14355  0.09460  0.44758  1.0000
  C   C27       1.0  0.37279  0.00376  0.35485  1.0000
  S   S28       1.0  0.48640  0.09870  0.08180  1.0000
  H   H29       1.0  0.15439  0.11104  0.43170  1.0000
  H   H30       1.0  0.13758  0.09382  0.44007  1.0000
  C   C28       1.0  0.10413  0.12613  0.41810  1.0000
  C   C29       1.0  0.11189  0.12109  0.42950  1.0000
  C   C30       1.0  0.11434  0.13119  0.43606  1.0000
  C   C31       1.0  0.10889  0.14642  0.43137  1.0000
  C   C32       1.0  0.10043  0.15139  0.42048  1.0000
  C   C33       1.0  0.09821  0.14129  0.41371  1.0000
  H   H31       1.0  0.11626  0.10940  0.43307  1.0000
  H   H32       1.0  0.12068  0.12714  0.44460  1.0000
  H   H33       1.0  0.09551  0.16295  0.41730  1.0000
  H   H34       1.0  0.09194  0.14525  0.40508  1.0000
  C   C34       1.0  0.15193  0.02633  0.42205  1.0000
  C   C35       1.0  0.16618  0.01923  0.41533  1.0000
  C   C36       1.0  0.17469  0.00704  0.42360  1.0000
  C   C37       1.0  0.16881  0.00173  0.43856  1.0000
  C   C38       1.0  0.15444  0.00859  0.44517  1.0000
  C   C39       1.0  0.14608  0.02091  0.43697  1.0000
  H   H35       1.0  0.17073  0.02334  0.40375  1.0000
  H   H36       1.0  0.18578  0.00183  0.41842  1.0000
  H   H37       1.0  0.14982  0.00448  0.45672  1.0000
  H   H38       1.0  0.13503  0.02607  0.44218  1.0000
  C   C40       1.0  0.43761  0.00970  0.45159  1.0000
  H   H39       1.0  0.33825  0.00283  0.47640  1.0000
  C   C41       1.0  0.45567  0.00932  0.42814  1.0000
  C   C42       1.0  0.44592  0.02105  0.42098  1.0000
  C   C43       1.0  0.43176  0.02671  0.42906  1.0000
  C   C44       1.0  0.42758  0.02103  0.44435  1.0000
  H   H40       1.0  0.49209  0.98599  0.20435  1.0000
  H   H41       1.0  0.46650  0.00473  0.42205  1.0000
  H   H42       1.0  0.42411  0.03573  0.42356  1.0000
  H   H43       1.0  0.41684  0.02576  0.45062  1.0000
  C   C45       1.0  0.39438  0.00479  0.36284  1.0000
  H   H44       1.0  0.34631  0.99540  0.43371  1.0000
  C   C46       1.0  0.23101  0.10875  0.45254  1.0000
  H   H45       1.0  0.43749  0.14396  0.04032  1.0000
  C   C47       1.0  0.13468  0.13687  0.46254  1.0000
  H   H46       1.0  0.31929  0.00742  0.43877  1.0000
  C   C48       1.0  0.25209  0.08803  0.44925  1.0000
  C   C49       1.0  0.25934  0.09282  0.45718  1.0000
  H   H47       1.0  0.36828  0.02435  0.44991  1.0000
  C   C50       1.0  0.23810  0.11334  0.46081  1.0000
  H   H48       1.0  0.48719  0.01146  0.33943  1.0000
  C   C51       1.0  0.23808  0.09618  0.44662  1.0000
  H   H49       1.0  0.48657  0.09198  0.18670  1.0000
  C   C52       1.0  0.40257  0.00657  0.34821  1.0000
  H   H50       1.0  0.15144  0.16473  0.41284  1.0000
  H   H51       1.0  0.40732  0.09288  0.98426  1.0000
  H   H52       1.0  0.25420  0.00283  0.44897  1.0000
  H   H53       1.0  0.28709  0.03389  0.42241  1.0000
  H   H54       1.0  0.49384  0.00512  0.45107  1.0000
  S   S29       1.0  0.46184  0.17356  0.04448  1.0000
  C   C53       1.0  0.12661  0.12723  0.47334  1.0000
  Fe  Fe9       1.0  0.49513  0.12038  0.17831  1.0000
  C   C54       1.0  0.14929  0.08748  0.47177  1.0000
  C   C55       1.0  0.47265  0.04657  0.14739  1.0000
  H   H55       1.0  0.46196  0.98446  0.22822  1.0000
  C   C56       1.0  0.48944  0.06876  0.22618  1.0000
  S   S30       1.0  0.48179  0.04501  0.22229  1.0000
  C   C57       1.0  0.14201  0.13616  0.40620  1.0000
  H   H56       1.0  0.45038  0.11154  0.12564  1.0000
  C   C58       1.0  0.15859  0.09769  0.46717  1.0000
  H   H57       1.0  0.45321  0.03710  0.44516  1.0000
  C   C59       1.0  0.45313  0.14099  0.05387  1.0000
  S   S31       1.0  0.46956  0.17431  0.15989  1.0000
  H   H58       1.0  0.48658  0.11718  0.05204  1.0000
  C   C60       1.0  0.47135  0.13679  0.06888  1.0000
  S   S32       1.0  0.42576  0.98935  0.31021  1.0000
  C   C61       1.0  0.00545  0.03648  0.41952  1.0000
  C   C62       1.0  0.06116  0.12620  0.41017  1.0000
  C   C63       1.0  0.35975  0.03284  0.44439  1.0000
  C   C64       1.0  0.32751  0.01279  0.43965  1.0000
  C   C65       1.0  0.26469  0.99282  0.40851  1.0000
  H   H59       1.0  0.18724  0.01063  0.45919  1.0000
  H   H60       1.0  0.10982  0.16765  0.38674  1.0000
  C   C66       1.0  0.32300  0.02643  0.44369  1.0000
  H   H61       1.0  0.46169  0.17092  0.13361  1.0000
  H   H62       1.0  0.12782  0.13857  0.39153  1.0000
  Fe  Fe10      1.0  0.48236  0.15077  0.16106  1.0000
  S   S33       1.0  0.49275  0.00402  0.39988  1.0000
  H   H63       1.0  0.39956  0.00432  0.37163  1.0000
  C   C67       1.0  0.47257  0.11267  0.12581  1.0000
  Fe  Fe11      1.0  0.43379  0.99066  0.32939  1.0000
  H   H64       1.0  0.49259  0.16954  0.17604  1.0000
  H   H65       1.0  0.46581  0.16230  0.11832  1.0000
  S   S34       1.0  0.49057  0.14370  0.13949  1.0000
  C   C68       1.0  0.44976  0.02355  0.14847  1.0000
  C   C69       1.0  0.44293  0.03764  0.14143  1.0000
  C   C70       1.0  0.44626  0.04215  0.12595  1.0000
  C   C71       1.0  0.45645  0.03256  0.11742  1.0000
  C   C72       1.0  0.46340  0.01851  0.12446  1.0000
  C   C73       1.0  0.46008  0.01401  0.13995  1.0000
  H   H66       1.0  0.43496  0.04510  0.14796  1.0000
  H   H67       1.0  0.44075  0.05296  0.12061  1.0000
  H   H68       1.0  0.47138  0.01109  0.11790  1.0000
  H   H69       1.0  0.46553  0.00319  0.14526  1.0000
  C   C74       1.0  0.41441  0.15196  0.10686  1.0000
  C   C75       1.0  0.42642  0.14467  0.09738  1.0000
  C   C76       1.0  0.42678  0.13027  0.09633  1.0000
  C   C77       1.0  0.41505  0.12326  0.10460  1.0000
  C   C78       1.0  0.40315  0.13062  0.11405  1.0000
  C   C79       1.0  0.40288  0.14484  0.11525  1.0000
  H   H70       1.0  0.43543  0.15005  0.09093  1.0000
  H   H71       1.0  0.43607  0.12467  0.08911  1.0000
  H   H72       1.0  0.39407  0.12529  0.12049  1.0000
  H   H73       1.0  0.39362  0.15035  0.12266  1.0000
  H   H74       1.0  0.41959  0.01922  0.14969  1.0000
  H   H75       1.0  0.15521  0.13733  0.42053  1.0000
  Fe  Fe12      1.0  0.17868  0.12354  0.46488  1.0000
  H   H76       1.0  0.07281  0.10954  0.43260  1.0000
  H   H77       1.0  0.44923  0.17684  0.12117  1.0000
  H   H78       1.0  0.05697  0.16781  0.41416  1.0000
  C   C80       1.0  0.48730  0.08555  0.19773  1.0000
  C   C81       1.0  0.44831  0.13808  0.04277  1.0000
  C   C82       1.0  0.48414  0.06221  0.98501  1.0000
  H   H79       1.0  0.45385  0.16699  0.02080  1.0000
  H   H80       1.0  0.45083  0.03969  0.24012  1.0000
  H   H81       1.0  0.17897  0.04404  0.41503  1.0000
  H   H82       1.0  0.03852  0.03805  0.43420  1.0000
  H   H83       1.0  0.45752  0.10644  0.10071  1.0000
  C   C83       1.0  0.43575  0.01703  0.21051  1.0000
  C   C84       1.0  0.02934  0.03745  0.42999  1.0000
  C   C85       1.0  0.44968  0.05895  0.01033  1.0000
  C   C86       1.0  0.44840  0.07395  0.00345  1.0000
  C   C87       1.0  0.44854  0.08416  0.01129  1.0000
  C   C88       1.0  0.44958  0.07951  0.02618  1.0000
  C   C89       1.0  0.45079  0.06454  0.03310  1.0000
  C   C90       1.0  0.45094  0.05428  0.02515  1.0000
  H   H84       1.0  0.44724  0.07774  0.99213  1.0000
  H   H85       1.0  0.44753  0.09574  0.00588  1.0000
  H   H86       1.0  0.13752  0.16681  0.44643  1.0000
  C   C91       1.0  0.45284  0.98874  0.26368  1.0000
  N   N4        1.0  0.26355  0.03542  0.43011  1.0000
  C   C92       1.0  0.25000  0.04486  0.43342  1.0000
  C   C93       1.0  0.47589  0.12323  0.04937  1.0000
  C   C94       1.0  0.23770  0.03945  0.44281  1.0000
  C   C95       1.0  0.46531  0.04652  0.31954  1.0000
  C   C96       1.0  0.23921  0.02424  0.44843  1.0000
  H   H87       1.0  0.44593  0.14925  0.05993  1.0000
  H   H88       1.0  0.42849  0.13364  0.13123  1.0000
  H   H89       1.0  0.45372  0.12476  0.02661  1.0000
  H   H90       1.0  0.30103  0.99634  0.39655  1.0000
  H   H91       1.0  0.46957  0.03703  0.15567  1.0000
  C   C97       1.0  0.46628  0.04255  0.30637  1.0000
  H   H92       1.0  0.46391  0.13314  0.07966  1.0000
  H   H93       1.0  0.24873  0.05670  0.42900  1.0000
  C   C98       1.0  0.37958  0.00313  0.36619  1.0000
  H   H94       1.0  0.16122  0.05582  0.41993  1.0000
  S   S35       1.0  0.49446  0.00315  0.29013  1.0000
  H   H95       1.0  0.46946  0.03134  0.28389  1.0000
  C   C99       1.0  0.46494  0.03266  0.44086  1.0000
  H   H96       1.0  0.14906  0.16592  0.45882  1.0000
  C   C100      1.0  0.43325  0.13890  0.13683  1.0000
  H   H97       1.0  0.14591  0.04138  0.47144  1.0000
  C   C101      1.0  0.27794  0.99598  0.39876  1.0000
  H   H98       1.0  0.19047  0.02582  0.43370  1.0000
  H   H99       1.0  0.44021  0.02652  0.34217  1.0000
  C   C102      1.0  0.29086  0.99382  0.40411  1.0000
  H   H100      1.0  0.12277  0.17949  0.37714  1.0000
  C   C103      1.0  0.13778  0.16672  0.39763  1.0000
  H   H101      1.0  0.01964  0.04139  0.39799  1.0000
  H   H102      1.0  0.46165  0.03362  0.21307  1.0000
  C   C104      1.0  0.44734  0.02457  0.20599  1.0000
  C   C105      1.0  0.42939  0.01304  0.22553  1.0000
  C   C106      1.0  0.45195  0.02754  0.24219  1.0000
  H   H103      1.0  0.42075  0.00670  0.22921  1.0000
  H   H104      1.0  0.46743  0.05035  0.40558  1.0000
  H   H105      1.0  0.27581  0.01302  0.43281  1.0000
  S   S36       1.0  0.47258  0.13100  0.17309  1.0000
  C   C107      1.0  0.43466  0.01677  0.23586  1.0000
  H   H106      1.0  0.05001  0.03247  0.39946  1.0000
  H   H107      1.0  0.44200  0.02017  0.31857  1.0000
  H   H108      1.0  0.25431  0.98510  0.43127  1.0000
  N   N5        1.0  0.05727  0.11346  0.41905  1.0000
  H   H109      1.0  0.37535  0.00732  0.33134  1.0000
  C   C108      1.0  0.45944  0.02865  0.29239  1.0000
  S   S37       1.0  0.22187  0.98754  0.44096  1.0000
  C   C109      1.0  0.14474  0.15925  0.45394  1.0000
  H   H110      1.0  0.42987  0.01330  0.24753  1.0000
  H   H111      1.0  0.04171  0.09950  0.42537  1.0000
  H   H112      1.0  0.07136  0.12899  0.41034  1.0000
  H   H113      1.0  0.45246  0.02750  0.19432  1.0000
  N   N6        1.0  0.17018  0.04186  0.43828  1.0000
  N   N7        1.0  0.13131  0.15942  0.39171  1.0000
  H   H114      1.0  0.46401  0.02210  0.24126  1.0000
  H   H115      1.0  0.37343  0.00135  0.37757  1.0000
  H   H116      1.0  0.44610  0.02356  0.25375  1.0000
  C   C110      1.0  0.45747  0.12742  0.03500  1.0000
  C   C111      1.0  0.49469  0.02054  0.42995  1.0000
  C   C112      1.0  0.44537  0.99568  0.12011  1.0000
  S   S38       1.0  0.42172  0.00634  0.34429  1.0000
  S   S39       1.0  0.22848  0.12771  0.47002  1.0000
  S   S40       1.0  0.47817  0.01156  0.37047  1.0000
  Fe  Fe13      1.0  0.48269  0.12301  0.15201  1.0000
  Fe  Fe14      1.0  0.10759  0.18312  0.42788  1.0000
  C   C113      1.0  0.44546  0.98949  0.40912  1.0000
  C   C114      1.0  0.49121  0.18068  0.16936  1.0000
  H   H117      1.0  0.47835  0.11133  0.03260  1.0000
  H   H118      1.0  0.43191  0.01406  0.20238  1.0000
  C   C115      1.0  0.38069  0.00647  0.34015  1.0000
  H   H119      1.0  0.27602  0.04245  0.40856  1.0000
  H   H120      1.0  0.01330  0.18266  0.42680  1.0000
  C   C116      1.0  0.39565  0.00760  0.33685  1.0000
  S   S41       1.0  0.34376  0.99703  0.40267  1.0000
  C   C117      1.0  0.42425  0.98592  0.40184  1.0000
  C   C118      1.0  0.49285  0.08278  0.22146  1.0000
  S   S42       1.0  0.45026  0.04574  0.00057  1.0000
  H   H121      1.0  0.03185  0.13978  0.39314  1.0000
  H   H122      1.0  0.47381  0.04693  0.29641  1.0000
  N   N8        1.0  0.41302  0.10404  0.01211  1.0000
  C   C119      1.0  0.41026  0.10488  0.99870  1.0000
  C   C120      1.0  0.41363  0.09106  0.02257  1.0000
  H   H123      1.0  0.43620  0.13876  0.17113  1.0000
  C   C121      1.0  0.41238  0.07823  0.01938  1.0000
  C   C122      1.0  0.41023  0.07883  0.00549  1.0000
  C   C123      1.0  0.41492  0.11722  0.01547  1.0000
  H   H124      1.0  0.47050  0.99409  0.24490  1.0000
  H   H125      1.0  0.48016  0.06722  0.19521  1.0000
  C   C124      1.0  0.27631  0.04131  0.42025  1.0000
  N   N9        1.0  0.44790  0.15594  0.13565  1.0000
  H   H126      1.0  0.47213  0.05373  0.31978  1.0000
  C   C125      1.0  0.48343  0.07676  0.98550  1.0000
  H   H127      1.0  0.13615  0.17868  0.39439  1.0000
  H   H128      1.0  0.40799  0.00580  0.15493  1.0000
  H   H129      1.0  0.40403  0.12317  0.02113  1.0000
  C   C126      1.0  0.44174  0.14938  0.12868  1.0000
  C   C127      1.0  0.44580  0.15238  0.15073  1.0000
  C   C128      1.0  0.45583  0.98399  0.23950  1.0000
  C   C129      1.0  0.43749  0.14183  0.15922  1.0000
  C   C130      1.0  0.43121  0.13505  0.15219  1.0000
  C   C131      1.0  0.48653  0.03251  0.42127  1.0000
  C   C132      1.0  0.48366  0.07156  0.20256  1.0000
  H   H130      1.0  0.99606  0.03633  0.41533  1.0000
  H   H131      1.0  0.40177  0.00944  0.32549  1.0000
  C   C133      1.0  0.45139  0.17889  0.01941  1.0000
  N   N10       1.0  0.48265  0.05749  0.12215  1.0000
  C   C134      1.0  0.34266  0.00596  0.43694  1.0000
  H   H132      1.0  0.41577  0.09040  0.03324  1.0000
  H   H133      1.0  0.48097  0.03492  0.12975  1.0000
  S   S43       1.0  0.30593  0.98697  0.42660  1.0000
  H   H134      1.0  0.35465  0.04113  0.45142  1.0000
  C   C135      1.0  0.49163  0.01514  0.32779  1.0000
  S   S44       1.0  0.46739  0.11440  0.14425  1.0000
  C   C136      1.0  0.47904  0.04545  0.13270  1.0000
  H   H135      1.0  0.14963  0.05625  0.44591  1.0000
  H   H136      1.0  0.06094  0.09656  0.43837  1.0000
  N   N11       1.0  0.46679  0.13367  0.05697  1.0000
  C   C137      1.0  0.45247  0.02796  0.21662  1.0000
  C   C138      1.0  0.35310  0.01278  0.43850  1.0000
  H   H137      1.0  0.05508  0.14605  0.39389  1.0000
  N   N12       1.0  0.47178  0.03824  0.42668  1.0000
  H   H138      1.0  0.07589  0.09579  0.42211  1.0000
  C   C139      1.0  0.48735  0.11185  0.11776  1.0000
  Fe  Fe15      1.0  0.45341  0.99435  0.17857  1.0000
  C   C140      1.0  0.40901  0.09226  0.99511  1.0000
  C   C141      1.0  0.25294  0.01467  0.44467  1.0000
  N   N13       1.0  0.34855  0.02596  0.44284  1.0000
  H   H139      1.0  0.44918  0.00067  0.10854  1.0000
  C   C142      1.0  0.48057  0.07067  0.12595  1.0000
  C   C143      1.0  0.05207  0.13583  0.40076  1.0000
  H   H140      1.0  0.45136  0.05074  0.42033  1.0000
  S   S45       1.0  0.41365  0.16973  0.10899  1.0000
  C   C144      1.0  0.46183  0.11090  0.11950  1.0000
  C   C145      1.0  0.13329  0.14434  0.39589  1.0000
  C   C146      1.0  0.29044  0.98879  0.41928  1.0000
  H   H141      1.0  0.46079  0.01647  0.29432  1.0000
  H   H142      1.0  0.02537  0.11600  0.40872  1.0000
  H   H143      1.0  0.48484  0.99868  0.32156  1.0000
  C   C147      1.0  0.26508  0.02049  0.43546  1.0000
  H   H144      1.0  0.05253  0.04386  0.41014  1.0000
  Fe  Fe16      1.0  0.47493  0.02130  0.38991  1.0000
  C   C148      1.0  0.27719  0.98571  0.42899  1.0000
  H   H145      1.0  0.31120  0.03166  0.44620  1.0000
  N   N14       1.0  0.45824  0.03290  0.30619  1.0000
  C   C149      1.0  0.48770  0.01455  0.44430  1.0000
  S   S46       1.0  0.46467  0.98948  0.19741  1.0000
  H   H146      1.0  0.45556  0.04325  0.34289  1.0000
  C   C150      1.0  0.00417  0.03407  0.43471  1.0000
  C   C151      1.0  0.46346  0.05086  0.41745  1.0000
  H   H147      1.0  0.27022  0.08658  0.45914  1.0000
  H   H148      1.0  0.49006  0.06249  0.23724  1.0000
  C   C152      1.0  0.43486  0.00425  0.12951  1.0000
  C   C153      1.0  0.44759  0.03109  0.33216  1.0000
  C   C154      1.0  0.45606  0.04058  0.33254  1.0000
  C   C155      1.0  0.17219  0.05087  0.42316  1.0000
  C   C156      1.0  0.16643  0.02504  0.46709  1.0000
  H   H149      1.0  0.49206  0.03709  0.41013  1.0000
  H   H150      1.0  0.48304  0.13095  0.06959  1.0000
  H   H151      1.0  0.42498  0.12666  0.15858  1.0000
  H   H152      1.0  0.48875  0.06697  0.09899  1.0000
  C   C157      1.0  0.06717  0.10334  0.42852  1.0000
  S   S47       1.0  0.24852  0.99533  0.40188  1.0000
  H   H153      1.0  0.22005  0.11487  0.45074  1.0000
  C   C158      1.0  0.41938  0.00729  0.15395  1.0000
  C   C159      1.0  0.15794  0.04628  0.44876  1.0000
  C   C160      1.0  0.47008  0.06010  0.15125  1.0000
  C   C161      1.0  0.03903  0.13228  0.40033  1.0000
  Fe  Fe17      1.0  0.45009  0.98526  0.29912  1.0000
  H   H154      1.0  0.47229  0.08280  0.14338  1.0000
  S   S48       1.0  0.43383  0.00394  0.47096  1.0000
  C   C162      1.0  0.03533  0.11906  0.40915  1.0000
  H   H155      1.0  0.27604  0.05231  0.42201  1.0000
  H   H156      1.0  0.46707  0.01597  0.46091  1.0000
  C   C163      1.0  0.47414  0.07223  0.14050  1.0000
  Fe  Fe18      1.0  0.20391  0.12912  0.47408  1.0000
  S   S49       1.0  0.35496  0.00000  0.35901  1.0000
  S   S50       1.0  0.39083  0.00836  0.47203  1.0000
  C   C164      1.0  0.48086  0.10592  0.09778  1.0000
  H   H157      1.0  0.43063  0.01588  0.12501  1.0000
  C   C165      1.0  0.15581  0.03791  0.46328  1.0000
  C   C166      1.0  0.49152  0.10840  0.10374  1.0000
  C   C167      1.0  0.47134  0.11991  0.03831  1.0000
  C   C168      1.0  0.01613  0.03466  0.44001  1.0000
  H   H158      1.0  0.36539  0.03836  0.43335  1.0000
  H   H159      1.0  0.01512  0.03315  0.45178  1.0000
  H   H160      1.0  0.40929  0.11528  0.99057  1.0000
  S   S51       1.0  0.13019  0.07311  0.46756  1.0000
  C   C169      1.0  0.47276  0.02070  0.44986  1.0000
  H   H161      1.0  0.23245  0.09249  0.44049  1.0000
  C   C170      1.0  0.17909  0.02082  0.45644  1.0000
  H   H162      1.0  0.42190  0.00417  0.16513  1.0000
  C   C171      1.0  0.48502  0.06303  0.21670  1.0000
  N   N15       1.0  0.13612  0.14941  0.46546  1.0000
  H   H163      1.0  0.47890  0.08038  0.99585  1.0000
  H   H164      1.0  0.27822  0.00002  0.38705  1.0000
  H   H165      1.0  0.00552  0.17973  0.44649  1.0000
  Fe  Fe19      1.0  0.99939  0.07942  0.41918  1.0000
  H   H166      1.0  0.48005  0.05466  0.99509  1.0000
  H   H167      1.0  0.48331  0.04971  0.10337  1.0000
  Fe  Fe20      1.0  0.34994  0.98757  0.38254  1.0000
  H   H168      1.0  0.14325  0.12424  0.40969  1.0000
  H   H169      1.0  0.12567  0.11721  0.47098  1.0000
  C   C172      1.0  0.45152  0.00367  0.44340  1.0000
  S   S52       1.0  0.45780  0.98892  0.31746  1.0000
  Fe  Fe21      1.0  0.26342  0.05455  0.46485  1.0000
  H   H170      1.0  0.47072  0.14882  0.06694  1.0000
  H   H171      1.0  0.44335  0.15222  0.11675  1.0000
  H   H172      1.0  0.45380  0.99648  0.40348  1.0000
  H   H173      1.0  0.45927  0.99482  0.44895  1.0000
  H   H174      1.0  0.48384  0.08008  0.11771  1.0000
  C   C173      1.0  0.48937  0.05600  0.10685  1.0000
  S   S53       1.0  0.19622  0.10840  0.47686  1.0000
  C   C174      1.0  0.49209  0.09107  0.20715  1.0000
  H   H175      1.0  0.48299  0.98739  0.35850  1.0000
  C   C175      1.0  0.49022  0.00796  0.31764  1.0000
  H   H176      1.0  0.39812  0.98573  0.43533  1.0000
  N   N16       1.0  0.43898  0.98673  0.39833  1.0000
  H   H177      1.0  0.48019  0.03852  0.97956  1.0000
  S   S54       1.0  0.17928  0.98702  0.44957  1.0000
  Fe  Fe22      1.0  0.43060  0.18174  0.09285  1.0000
  H   H178      1.0  0.44147  0.18324  0.00069  1.0000
  C   C176      1.0  0.44790  0.98433  0.38503  1.0000
  H   H179      1.0  0.45967  0.98457  0.38241  1.0000
  C   C177      1.0  0.23027  0.02916  0.62638  1.0000
  C   C178      1.0  0.36637  0.98560  0.65114  1.0000
  C   C179      1.0  0.45638  0.08823  0.90024  1.0000
  S   S55       1.0  0.39052  0.99184  0.62924  1.0000
  Fe  Fe23      1.0  0.48050  0.01913  0.69972  1.0000
  S   S56       1.0  0.46150  0.03873  0.70186  1.0000
  H   H180      1.0  0.26055  0.00594  0.59801  1.0000
  Fe  Fe24      1.0  0.47225  0.04851  0.67877  1.0000
  S   S57       1.0  0.45729  0.06064  0.66262  1.0000
  Fe  Fe25      1.0  0.47722  0.04733  0.70893  1.0000
  S   S58       1.0  0.46930  0.05622  0.72952  1.0000
  H   H181      1.0  0.04423  0.09515  0.65085  1.0000
  S   S59       1.0  0.47545  0.99653  0.70753  1.0000
  Fe  Fe26      1.0  0.40109  0.01144  0.61861  1.0000
  S   S60       1.0  0.40222  0.02885  0.62927  1.0000
  H   H182      1.0  0.18809  0.16822  0.48244  1.0000
  Fe  Fe27      1.0  0.41556  0.02667  0.58798  1.0000
  S   S61       1.0  0.41797  0.04539  0.59608  1.0000
  S   S62       1.0  0.42370  0.02487  0.56415  1.0000
  Fe  Fe28      1.0  0.42537  0.02773  0.61513  1.0000
  S   S63       1.0  0.44587  0.02260  0.62467  1.0000
  Fe  Fe29      1.0  0.39456  0.04468  0.60946  1.0000
  S   S64       1.0  0.37566  0.06442  0.61253  1.0000
  S   S65       1.0  0.42477  0.00905  0.60584  1.0000
  S   S66       1.0  0.39175  0.02737  0.59994  1.0000
  S   S67       1.0  0.44934  0.00830  0.88900  1.0000
  H   H183      1.0  0.46961  0.99619  0.67788  1.0000
  C   C180      1.0  0.38623  0.98688  0.85499  1.0000
  Fe  Fe30      1.0  0.43938  0.99447  0.88029  1.0000
  S   S68       1.0  0.15683  0.16896  0.48469  1.0000
  H   H184      1.0  0.47643  0.07103  0.63280  1.0000
  H   H185      1.0  0.20588  0.11276  0.55001  1.0000
  H   H186      1.0  0.41644  0.15269  0.96272  1.0000
  Fe  Fe31      1.0  0.49360  0.13299  0.86386  1.0000
  H   H187      1.0  0.27231  0.98816  0.66541  1.0000
  H   H188      1.0  0.21350  0.00271  0.48393  1.0000
  S   S69       1.0  0.48625  0.05935  0.68599  1.0000
  H   H189      1.0  0.45600  0.00772  0.79378  1.0000
  H   H190      1.0  0.45134  0.01573  0.69411  1.0000
  S   S70       1.0  0.46732  0.05830  0.81168  1.0000
  N   N17       1.0  0.99850  0.01639  0.63500  1.0000
  H   H191      1.0  0.17123  0.02637  0.67679  1.0000
  H   H192      1.0  0.47625  0.10194  0.84061  1.0000
  Fe  Fe32      1.0  0.25097  0.02906  0.48609  1.0000
  S   S71       1.0  0.24404  0.05359  0.48421  1.0000
  H   H193      1.0  0.47994  0.16999  0.95539  1.0000
  C   C181      1.0  0.46326  0.00730  0.78296  1.0000
  H   H194      1.0  0.18541  0.07951  0.49629  1.0000
  S   S72       1.0  0.35796  0.04096  0.48444  1.0000
  H   H195      1.0  0.15403  0.10604  0.59017  1.0000
  H   H196      1.0  0.06261  0.09525  0.70279  1.0000
  Fe  Fe33      1.0  0.44638  0.98755  0.84974  1.0000
  S   S73       1.0  0.42898  0.00459  0.86054  1.0000
  S   S74       1.0  0.49028  0.02817  0.67601  1.0000
  H   H197      1.0  0.44464  0.09244  0.90469  1.0000
  C   C182      1.0  0.46116  0.03420  0.77773  1.0000
  C   C183      1.0  0.23639  0.00156  0.48387  1.0000
  Fe  Fe34      1.0  0.44689  0.05351  0.97710  1.0000
  N   N18       1.0  0.46616  0.09747  0.89498  1.0000
  H   H198      1.0  0.31803  0.04041  0.64216  1.0000
  Fe  Fe35      1.0  0.46297  0.06040  0.94488  1.0000
  S   S75       1.0  0.44178  0.06928  0.93670  1.0000
  S   S76       1.0  0.42428  0.06149  0.97138  1.0000
  H   H199      1.0  0.16082  0.12515  0.67211  1.0000
  H   H200      1.0  0.48613  0.04763  0.62414  1.0000
  Fe  Fe36      1.0  0.43463  0.04939  0.95271  1.0000
  S   S77       1.0  0.42259  0.03564  0.94634  1.0000
  Fe  Fe37      1.0  0.43382  0.08043  0.95587  1.0000
  S   S78       1.0  0.42140  0.10434  0.95283  1.0000
  S   S79       1.0  0.45653  0.03973  0.95984  1.0000
  C   C184      1.0  0.37630  0.00552  0.65242  1.0000
  H   H201      1.0  0.17104  0.11806  0.65590  1.0000
  H   H202      1.0  0.14687  0.08630  0.58455  1.0000
  C   C185      1.0  0.20882  0.07104  0.50876  1.0000
  C   C186      1.0  0.04970  0.04918  0.65246  1.0000
  C   C187      1.0  0.24008  0.02402  0.61420  1.0000
  S   S80       1.0  0.16198  0.12804  0.48547  1.0000
  H   H203      1.0  0.20561  0.08302  0.50583  1.0000
  C   C188      1.0  0.36700  0.04877  0.55849  1.0000
  Fe  Fe38      1.0  0.30276  0.05421  0.59736  1.0000
  S   S81       1.0  0.31080  0.07120  0.60306  1.0000
  Fe  Fe39      1.0  0.27234  0.05103  0.59607  1.0000
  H   H204      1.0  0.05031  0.03899  0.66082  1.0000
  S   S82       1.0  0.24757  0.06081  0.60163  1.0000
  C   C189      1.0  0.48593  0.00714  0.84407  1.0000
  H   H205      1.0  0.04778  0.08546  0.62221  1.0000
  S   S83       1.0  0.28456  0.04472  0.61441  1.0000
  S   S84       1.0  0.28966  0.06228  0.57956  1.0000
  H   H206      1.0  0.47222  0.15956  0.91115  1.0000
  S   S85       1.0  0.10076  0.15767  0.71344  1.0000
  H   H207      1.0  0.01432  0.02712  0.63714  1.0000
  C   C190      1.0  0.43413  0.03078  0.68352  1.0000
  H   H208      1.0  0.24860  0.99142  0.63701  1.0000
  C   C191      1.0  0.25118  0.99349  0.48096  1.0000
  Fe  Fe40      1.0  0.11000  0.16056  0.68899  1.0000
  S   S86       1.0  0.12405  0.14289  0.67679  1.0000
  H   H209      1.0  0.41071  0.13544  0.95137  1.0000
  C   C192      1.0  0.34361  0.03339  0.48351  1.0000
  H   H210      1.0  0.44620  0.03303  0.85667  1.0000
  C   C193      1.0  0.33567  0.98787  0.73892  1.0000
  Fe  Fe41      1.0  0.18486  0.16910  0.57517  1.0000
  S   S87       1.0  0.16390  0.16105  0.58672  1.0000
  C   C194      1.0  0.46849  0.15883  0.94697  1.0000
  Fe  Fe42      1.0  0.20323  0.13810  0.57335  1.0000
  S   S88       1.0  0.18366  0.12750  0.58447  1.0000
  S   S89       1.0  0.22601  0.12501  0.56438  1.0000
  Fe  Fe43      1.0  0.17092  0.14665  0.57045  1.0000
  S   S90       1.0  0.15343  0.14573  0.55968  1.0000
  Fe  Fe44      1.0  0.17841  0.14280  0.59984  1.0000
  S   S91       1.0  0.16835  0.13545  0.62382  1.0000
  S   S92       1.0  0.19087  0.15605  0.55766  1.0000
  S   S93       1.0  0.19901  0.15207  0.58992  1.0000
  Fe  Fe45      1.0  0.10480  0.07604  0.66759  1.0000
  S   S94       1.0  0.10418  0.08910  0.64450  1.0000
  S   S95       1.0  0.09684  0.08745  0.68668  1.0000
  Fe  Fe46      1.0  0.11729  0.04667  0.65809  1.0000
  S   S96       1.0  0.11717  0.05739  0.63429  1.0000
  Fe  Fe47      1.0  0.12656  0.07432  0.63828  1.0000
  S   S97       1.0  0.14707  0.08010  0.62201  1.0000
  Fe  Fe48      1.0  0.09471  0.07096  0.64276  1.0000
  S   S98       1.0  0.07600  0.07872  0.63043  1.0000
  S   S99       1.0  0.12816  0.06282  0.66153  1.0000
  S   S100      1.0  0.09375  0.05878  0.66641  1.0000
  S   S101      1.0  0.26605  0.02541  0.50152  1.0000
  H   H211      1.0  0.48698  0.09767  0.81530  1.0000
  Fe  Fe49      1.0  0.26073  0.05014  0.49783  1.0000
  S   S102      1.0  0.25540  0.06046  0.51738  1.0000
  H   H212      1.0  0.36374  0.99989  0.85945  1.0000
  C   C195      1.0  0.27056  0.99603  0.63062  1.0000
  S   S103      1.0  0.39691  0.02147  0.49764  1.0000
  H   H213      1.0  0.41771  0.04356  0.67070  1.0000
  H   H214      1.0  0.22176  0.02850  0.51797  1.0000
  C   C196      1.0  0.31735  0.03547  0.48480  1.0000
  H   H215      1.0  0.25455  0.09192  0.50303  1.0000
  C   C197      1.0  0.32879  0.04143  0.48575  1.0000
  H   H216      1.0  0.13712  0.07188  0.68592  1.0000
  C   C198      1.0  0.15204  0.02529  0.66985  1.0000
  Fe  Fe50      1.0  0.18046  0.11499  0.49704  1.0000
  S   S104      1.0  0.17838  0.09945  0.51918  1.0000
  C   C199      1.0  0.47567  0.10533  0.92708  1.0000
  H   H217      1.0  0.20057  0.07404  0.48135  1.0000
  N   N19       1.0  0.23368  0.10341  0.51443  1.0000
  C   C200      1.0  0.15599  0.00602  0.65680  1.0000
  H   H218      1.0  0.46304  0.00959  0.85597  1.0000
  C   C201      1.0  0.41944  0.00100  0.82291  1.0000
  C   C202      1.0  0.15989  0.13226  0.54911  1.0000
  C   C203      1.0  0.15461  0.13470  0.53633  1.0000
  C   C204      1.0  0.16008  0.12438  0.52737  1.0000
  C   C205      1.0  0.17047  0.11134  0.53141  1.0000
  C   C206      1.0  0.17537  0.10860  0.54449  1.0000
  C   C207      1.0  0.17026  0.11920  0.55324  1.0000
  H   H219      1.0  0.14658  0.14477  0.53314  1.0000
  H   H220      1.0  0.15626  0.12654  0.51729  1.0000
  H   H221      1.0  0.18348  0.09856  0.54757  1.0000
  H   H222      1.0  0.17425  0.11722  0.56319  1.0000
  C   C208      1.0  0.16243  0.11962  0.62462  1.0000
  C   C209      1.0  0.17266  0.10801  0.61884  1.0000
  C   C210      1.0  0.16783  0.09579  0.61833  1.0000
  C   C211      1.0  0.15283  0.09498  0.62392  1.0000
  C   C212      1.0  0.14261  0.10640  0.63008  1.0000
  C   C213      1.0  0.14741  0.11885  0.63021  1.0000
  H   H223      1.0  0.18430  0.10853  0.61455  1.0000
  H   H224      1.0  0.17573  0.08700  0.61350  1.0000
  H   H225      1.0  0.13095  0.10592  0.63418  1.0000
  H   H226      1.0  0.13943  0.12812  0.63412  1.0000
  C   C214      1.0  0.11469  0.12888  0.67881  1.0000
  C   C215      1.0  0.11880  0.12070  0.66786  1.0000
  C   C216      1.0  0.11303  0.10822  0.67003  1.0000
  C   C217      1.0  0.10308  0.10384  0.68323  1.0000
  C   C218      1.0  0.09853  0.11230  0.69402  1.0000
  C   C219      1.0  0.10427  0.12486  0.69179  1.0000
  H   H227      1.0  0.12682  0.12378  0.65787  1.0000
  H   H228      1.0  0.11671  0.10171  0.66170  1.0000
  H   H229      1.0  0.09081  0.10897  0.70427  1.0000
  H   H230      1.0  0.10104  0.13109  0.70034  1.0000
  C   C220      1.0  0.24118  0.07812  0.59055  1.0000
  C   C221      1.0  0.25025  0.08383  0.57722  1.0000
  C   C222      1.0  0.24532  0.09810  0.56907  1.0000
  C   C223      1.0  0.23132  0.10676  0.57423  1.0000
  C   C224      1.0  0.22208  0.10093  0.58738  1.0000
  C   C225      1.0  0.22697  0.08660  0.59546  1.0000
  H   H231      1.0  0.26106  0.07727  0.57315  1.0000
  H   H232      1.0  0.25247  0.10252  0.55886  1.0000
  H   H233      1.0  0.21130  0.10753  0.59148  1.0000
  H   H234      1.0  0.21984  0.08220  0.60570  1.0000
  C   C226      1.0  0.29391  0.04359  0.54152  1.0000
  H   H235      1.0  0.34383  0.05270  0.56996  1.0000
  C   C227      1.0  0.28428  0.04666  0.51979  1.0000
  C   C228      1.0  0.27024  0.05392  0.52663  1.0000
  C   C229      1.0  0.26803  0.05599  0.54093  1.0000
  C   C230      1.0  0.27981  0.05069  0.54842  1.0000
  H   H236      1.0  0.28605  0.04508  0.50874  1.0000
  H   H237      1.0  0.25719  0.06150  0.54632  1.0000
  H   H238      1.0  0.27794  0.05217  0.55951  1.0000
  C   C231      1.0  0.21678  0.01024  0.63012  1.0000
  C   C232      1.0  0.33359  0.01180  0.62488  1.0000
  C   C233      1.0  0.03002  0.15419  0.70199  1.0000
  H   H239      1.0  0.24668  0.01531  0.58697  1.0000
  C   C234      1.0  0.03541  0.15985  0.71082  1.0000
  H   H240      1.0  0.33869  0.05345  0.63891  1.0000
  C   C235      1.0  0.46142  0.07313  0.90021  1.0000
  S   S105      1.0  0.02213  0.04573  0.65229  1.0000
  H   H241      1.0  0.14788  0.08086  0.48295  1.0000
  H   H242      1.0  0.00839  0.02048  0.66442  1.0000
  S   S106      1.0  0.11555  0.18226  0.72872  1.0000
  H   H243      1.0  0.38470  0.01191  0.64855  1.0000
  S   S107      1.0  0.48492  0.06152  0.92890  1.0000
  C   C236      1.0  0.03625  0.06829  0.63558  1.0000
  H   H244      1.0  0.30706  0.03643  0.52162  1.0000
  H   H245      1.0  0.10287  0.07867  0.60566  1.0000
  S   S108      1.0  0.43536  0.98884  0.77238  1.0000
  H   H246      1.0  0.27935  0.11785  0.56842  1.0000
  C   C237      1.0  0.03997  0.14653  0.69156  1.0000
  H   H247      1.0  0.38550  0.98471  0.59991  1.0000
  H   H248      1.0  0.02652  0.07291  0.63076  1.0000
  C   C238      1.0  0.37221  0.03876  0.53685  1.0000
  C   C239      1.0  0.48919  0.11788  0.83804  1.0000
  H   H249      1.0  0.46610  0.11361  0.93085  1.0000
  H   H250      1.0  0.45327  0.03340  0.78871  1.0000
  S   S109      1.0  0.30870  0.03696  0.55087  1.0000
  C   C240      1.0  0.49483  0.05838  0.75546  1.0000
  C   C241      1.0  0.22296  0.04896  0.52204  1.0000
  C   C242      1.0  0.41914  0.13144  0.95794  1.0000
  C   C243      1.0  0.44131  0.01633  0.90463  1.0000
  C   C244      1.0  0.44958  0.02411  0.90846  1.0000
  C   C245      1.0  0.44394  0.03017  0.92112  1.0000
  C   C246      1.0  0.42996  0.02845  0.93013  1.0000
  C   C247      1.0  0.42169  0.02066  0.92629  1.0000
  C   C248      1.0  0.42730  0.01465  0.91357  1.0000
  H   H251      1.0  0.46047  0.02537  0.90166  1.0000
  H   H252      1.0  0.45044  0.03606  0.92402  1.0000
  H   H253      1.0  0.41084  0.01934  0.93318  1.0000
  H   H254      1.0  0.42080  0.00874  0.91072  1.0000
  C   C249      1.0  0.46466  0.04045  0.81404  1.0000
  C   C250      1.0  0.45104  0.03698  0.82236  1.0000
  C   C251      1.0  0.44924  0.02239  0.82578  1.0000
  C   C252      1.0  0.46104  0.01127  0.82085  1.0000
  C   C253      1.0  0.47427  0.01491  0.81168  1.0000
  C   C254      1.0  0.47607  0.02949  0.80832  1.0000
  H   H255      1.0  0.44201  0.04551  0.82648  1.0000
  H   H256      1.0  0.43870  0.01984  0.83216  1.0000
  H   H257      1.0  0.45757  0.14260  0.92637  1.0000
  H   H258      1.0  0.02555  0.09642  0.67460  1.0000
  H   H259      1.0  0.30344  0.00932  0.52154  1.0000
  S   S110      1.0  0.08817  0.17263  0.68276  1.0000
  C   C255      1.0  0.25986  0.98853  0.63075  1.0000
  H   H260      1.0  0.20060  0.12629  0.52533  1.0000
  C   C256      1.0  0.03694  0.05511  0.64640  1.0000
  C   C257      1.0  0.04833  0.07538  0.63073  1.0000
  H   H261      1.0  0.12868  0.07026  0.59161  1.0000
  C   C258      1.0  0.24881  0.00718  0.59728  1.0000
  C   C259      1.0  0.48453  0.05726  0.73561  1.0000
  H   H262      1.0  0.15403  0.07515  0.66087  1.0000
  C   C260      1.0  0.43724  0.11137  0.96892  1.0000
  C   C261      1.0  0.48453  0.10788  0.83323  1.0000
  H   H263      1.0  0.20474  0.04080  0.50089  1.0000
  C   C262      1.0  0.11742  0.10813  0.60233  1.0000
  H   H264      1.0  0.24783  0.99616  0.59667  1.0000
  N   N20       1.0  0.46694  0.01988  0.77345  1.0000
  H   H265      1.0  0.22879  0.09279  0.55167  1.0000
  H   H266      1.0  0.13548  0.99504  0.69091  1.0000
  H   H267      1.0  0.40830  0.99820  0.79363  1.0000
  H   H268      1.0  0.44278  0.09987  0.97100  1.0000
  C   C263      1.0  0.41253  0.01820  0.55696  1.0000
  C   C264      1.0  0.41664  0.01742  0.54203  1.0000
  C   C265      1.0  0.40826  0.01148  0.53624  1.0000
  H   H269      1.0  0.49322  0.05896  0.76680  1.0000
  C   C266      1.0  0.14074  0.98584  0.68548  1.0000
  C   C267      1.0  0.39991  0.01316  0.56602  1.0000
  H   H270      1.0  0.42645  0.02125  0.53498  1.0000
  C   C268      1.0  0.48649  0.07998  0.92455  1.0000
  H   H271      1.0  0.45695  0.13718  0.94574  1.0000
  H   H272      1.0  0.39684  0.01337  0.57755  1.0000
  H   H273      1.0  0.34021  0.03625  0.53026  1.0000
  C   C269      1.0  0.32253  0.02233  0.63155  1.0000
  H   H274      1.0  0.36409  0.02140  0.62762  1.0000
  C   C270      1.0  0.06170  0.05639  0.64775  1.0000
  H   H275      1.0  0.13152  0.09090  0.70064  1.0000
  C   C271      1.0  0.35809  0.06580  0.60900  1.0000
  C   C272      1.0  0.35488  0.05480  0.60419  1.0000
  C   C273      1.0  0.34037  0.05616  0.60233  1.0000
  C   C274      1.0  0.32915  0.06865  0.60510  1.0000
  C   C275      1.0  0.33245  0.07962  0.60973  1.0000
  C   C276      1.0  0.34680  0.07819  0.61170  1.0000
  H   H276      1.0  0.36346  0.04521  0.60204  1.0000
  H   H277      1.0  0.33786  0.04760  0.59884  1.0000
  H   H278      1.0  0.32385  0.08931  0.61186  1.0000
  H   H279      1.0  0.34916  0.08673  0.61540  1.0000
  C   C277      1.0  0.15759  0.17952  0.53419  1.0000
  C   C278      1.0  0.46003  0.00586  0.73308  1.0000
  C   C279      1.0  0.45093  0.00417  0.74736  1.0000
  C   C280      1.0  0.48687  0.06387  0.63526  1.0000
  C   C281      1.0  0.16705  0.02075  0.67108  1.0000
  S   S111      1.0  0.12715  0.02207  0.66311  1.0000
  H   H280      1.0  0.46422  0.01584  0.72818  1.0000
  H   H281      1.0  0.44803  0.01293  0.75329  1.0000
  C   C282      1.0  0.05540  0.14469  0.68987  1.0000
  H   H282      1.0  0.32209  0.01190  0.53262  1.0000
  C   C283      1.0  0.15148  0.17227  0.62397  1.0000
  H   H283      1.0  0.14691  0.16651  0.61833  1.0000
  C   C284      1.0  0.48249  0.05889  0.75002  1.0000
  H   H284      1.0  0.45276  0.04981  0.84912  1.0000
  Fe  Fe51      1.0  0.37756  0.02232  0.48829  1.0000
  Fe  Fe52      1.0  0.30016  0.03992  0.57428  1.0000
  Fe  Fe53      1.0  0.40968  0.00533  0.48303  1.0000
  H   H285      1.0  0.47140  0.06040  0.75703  1.0000
  C   C285      1.0  0.22096  0.11424  0.51340  1.0000
  C   C286      1.0  0.34408  0.99046  0.72441  1.0000
  C   C287      1.0  0.45428  0.05030  0.65172  1.0000
  C   C288      1.0  0.46316  0.03621  0.65084  1.0000
  C   C289      1.0  0.46076  0.02815  0.64203  1.0000
  C   C290      1.0  0.44914  0.03389  0.63437  1.0000
  C   C291      1.0  0.44020  0.04800  0.63519  1.0000
  C   C292      1.0  0.44290  0.05627  0.64372  1.0000
  H   H286      1.0  0.47195  0.03150  0.65686  1.0000
  H   H287      1.0  0.46770  0.01723  0.64141  1.0000
  H   H288      1.0  0.43124  0.05252  0.62927  1.0000
  H   H289      1.0  0.43601  0.06721  0.64430  1.0000
  C   C293      1.0  0.06109  0.06946  0.63678  1.0000
  H   H290      1.0  0.09563  0.10299  0.61254  1.0000
  H   H291      1.0  0.33045  0.00388  0.62090  1.0000
  C   C294      1.0  0.42650  0.11647  0.96024  1.0000
  C   C295      1.0  0.48634  0.07713  0.88909  1.0000
  C   C296      1.0  0.34135  0.98875  0.75040  1.0000
  H   H292      1.0  0.38313  0.01933  0.82897  1.0000
  C   C297      1.0  0.19382  0.06996  0.49243  1.0000
  C   C298      1.0  0.37724  0.04375  0.54649  1.0000
  C   C299      1.0  0.34727  0.04371  0.55082  1.0000
  C   C300      1.0  0.11980  0.13062  0.48714  1.0000
  H   H293      1.0  0.11425  0.11868  0.60552  1.0000
  Fe  Fe54      1.0  0.39044  0.00140  0.51397  1.0000
  S   S112      1.0  0.29859  0.00189  0.62221  1.0000
  S   S113      1.0  0.33936  0.00366  0.68507  1.0000
  H   H294      1.0  0.33420  0.01733  0.51488  1.0000
  H   H295      1.0  0.46335  0.08824  0.93404  1.0000
  C   C301      1.0  0.45537  0.03838  0.85592  1.0000
  H   H296      1.0  0.12194  0.98926  0.67570  1.0000
  C   C302      1.0  0.17647  0.00862  0.66548  1.0000
  C   C303      1.0  0.42771  0.02215  0.66544  1.0000
  C   C304      1.0  0.24421  0.10022  0.50083  1.0000
  H   H297      1.0  0.21091  0.02586  0.64402  1.0000
  H   H298      1.0  0.15188  0.12811  0.65710  1.0000
  C   C305      1.0  0.22682  0.00537  0.61788  1.0000
  H   H299      1.0  0.45066  0.11525  0.90395  1.0000
  N   N21       1.0  0.15458  0.10626  0.67015  1.0000
  H   H300      1.0  0.25204  0.12713  0.57741  1.0000
  C   C306      1.0  0.45846  0.99336  0.68086  1.0000
  C   C307      1.0  0.06081  0.15051  0.69863  1.0000
  H   H301      1.0  0.43287  0.03939  0.68927  1.0000
  H   H302      1.0  0.36000  0.99264  0.75611  1.0000
  S   S114      1.0  0.38532  0.99836  0.53871  1.0000
  N   N22       1.0  0.35789  0.99354  0.72146  1.0000
  C   C308      1.0  0.42560  0.03310  0.67313  1.0000
  C   C309      1.0  0.05077  0.15820  0.70904  1.0000
  H   H303      1.0  0.01243  0.01230  0.61456  1.0000
  C   C310      1.0  0.15990  0.12002  0.66353  1.0000
  H   H304      1.0  0.07149  0.05170  0.65246  1.0000
  C   C311      1.0  0.32668  0.03233  0.63687  1.0000
  H   H305      1.0  0.38176  0.00336  0.56732  1.0000
  C   C312      1.0  0.21070  0.11769  0.52617  1.0000
  C   C313      1.0  0.16571  0.18154  0.48691  1.0000
  C   C314      1.0  0.47415  0.09087  0.92907  1.0000
  C   C315      1.0  0.43308  0.13610  0.97305  1.0000
  C   C316      1.0  0.14642  0.01785  0.66285  1.0000
  C   C317      1.0  0.47849  0.16755  0.94564  1.0000
  C   C318      1.0  0.22649  0.09884  0.54095  1.0000
  C   C319      1.0  0.34550  0.04204  0.64175  1.0000
  C   C320      1.0  0.47794  0.99293  0.76491  1.0000
  C   C321      1.0  0.14552  0.10445  0.68400  1.0000
  N   N23       1.0  0.46992  0.03010  0.84920  1.0000
  H   H306      1.0  0.15172  0.00027  0.65130  1.0000
  C   C322      1.0  0.38122  0.01363  0.80419  1.0000
  H   H307      1.0  0.24755  0.11053  0.49371  1.0000
  C   C323      1.0  0.15171  0.08321  0.66757  1.0000
  N   N24       1.0  0.13163  0.10337  0.59467  1.0000
  C   C324      1.0  0.13926  0.09197  0.68994  1.0000
  H   H308      1.0  0.45371  0.06575  0.90469  1.0000
  H   H309      1.0  0.35829  0.01301  0.47863  1.0000
  H   H310      1.0  0.37079  0.05256  0.56612  1.0000
  C   C325      1.0  0.14247  0.11283  0.59027  1.0000
  C   C326      1.0  0.36754  0.98981  0.84104  1.0000
  H   H311      1.0  0.36548  0.98781  0.70043  1.0000
  C   C327      1.0  0.15776  0.09581  0.66198  1.0000
  H   H312      1.0  0.24661  0.08710  0.52881  1.0000
  H   H313      1.0  0.00432  0.03165  0.61475  1.0000
  S   S115      1.0  0.45572  0.07307  0.96276  1.0000
  C   C328      1.0  0.23651  0.09569  0.52797  1.0000
  H   H314      1.0  0.17815  0.99199  0.65382  1.0000
  H   H315      1.0  0.35761  0.03759  0.51730  1.0000
  S   S116      1.0  0.48247  0.11957  0.85651  1.0000
  H   H316      1.0  0.99682  0.13260  0.59001  1.0000
  H   H317      1.0  0.35744  0.04274  0.63730  1.0000
  H   H318      1.0  0.01815  0.15597  0.70315  1.0000
  H   H319      1.0  0.45797  0.11944  0.88410  1.0000
  H   H320      1.0  0.06318  0.13893  0.68169  1.0000
  C   C329      1.0  0.14671  0.18328  0.52589  1.0000
  H   H321      1.0  0.32612  0.05224  0.48829  1.0000
  H   H322      1.0  0.16489  0.16856  0.53537  1.0000
  H   H323      1.0  0.46939  0.11778  0.89682  1.0000
  H   H324      1.0  0.47964  0.04904  0.84119  1.0000
  H   H325      1.0  0.23172  0.03857  0.62946  1.0000
  H   H326      1.0  0.45889  0.98545  0.67425  1.0000
  H   H327      1.0  0.14246  0.11302  0.69024  1.0000
  H   H328      1.0  0.05527  0.17304  0.74713  1.0000
  N   N25       1.0  0.23836  0.01220  0.61017  1.0000
  H   H329      1.0  0.37445  0.99699  0.73035  1.0000
  H   H330      1.0  0.20767  0.00482  0.63630  1.0000
  H   H331      1.0  0.38174  0.00609  0.79713  1.0000
  H   H332      1.0  0.48858  0.09956  0.88482  1.0000
  C   C330      1.0  0.21358  0.11000  0.54001  1.0000
  H   H333      1.0  0.06777  0.11220  0.69182  1.0000
  C   C331      1.0  0.48635  0.17334  0.93165  1.0000
  C   C332      1.0  0.47608  0.01926  0.75981  1.0000
  H   H334      1.0  0.37870  0.99418  0.70570  1.0000
  S   S117      1.0  0.03321  0.13928  0.68061  1.0000
  H   H335      1.0  0.44411  0.15370  0.93860  1.0000
  C   C333      1.0  0.11090  0.08568  0.60239  1.0000
  C   C334      1.0  0.12536  0.08099  0.59447  1.0000
  C   C335      1.0  0.42026  0.99704  0.80984  1.0000
  H   H336      1.0  0.35738  0.00322  0.61852  1.0000
  H   H337      1.0  0.46230  0.15446  0.95787  1.0000
  S   S118      1.0  0.99803  0.06169  0.62200  1.0000
  H   H338      1.0  0.00773  0.17363  0.73696  1.0000
  H   H339      1.0  0.25117  0.09252  0.62823  1.0000
  C   C336      1.0  0.21837  0.06435  0.51857  1.0000
  S   S119      1.0  0.37016  0.00366  0.50577  1.0000
  H   H340      1.0  0.48742  0.99545  0.84459  1.0000
  C   C337      1.0  0.39574  0.00632  0.54540  1.0000
  H   H341      1.0  0.24913  0.02951  0.60800  1.0000
  H   H342      1.0  0.38038  0.02510  0.79744  1.0000
  H   H343      1.0  0.21882  0.12036  0.50263  1.0000
  C   C338      1.0  0.47653  0.06756  0.89475  1.0000
  C   C339      1.0  0.21859  0.02214  0.63444  1.0000
  H   H344      1.0  0.23804  0.09066  0.61880  1.0000
  C   C340      1.0  0.48091  0.09217  0.88920  1.0000
  Fe  Fe55      1.0  0.17238  0.14725  0.48176  1.0000
  C   C341      1.0  0.35238  0.02172  0.62879  1.0000
  C   C342      1.0  0.12099  0.14364  0.48991  1.0000
  H   H345      1.0  0.14468  0.03419  0.67485  1.0000
  C   C343      1.0  0.36342  0.99475  0.73260  1.0000
  H   H346      1.0  0.14565  0.17531  0.52043  1.0000
  N   N26       1.0  0.35739  0.03888  0.53903  1.0000
  Fe  Fe56      1.0  0.00825  0.14684  0.68359  1.0000
  N   N27       1.0  0.34146  0.03192  0.63544  1.0000
  N   N28       1.0  0.46644  0.15591  0.93469  1.0000
  H   H347      1.0  0.16477  0.09731  0.65095  1.0000
  H   H348      1.0  0.07580  0.10491  0.66875  1.0000
  H   H349      1.0  0.45515  0.04232  0.76942  1.0000
  H   H350      1.0  0.15924  0.99384  0.69559  1.0000
  C   C344      1.0  0.42241  0.14124  0.96432  1.0000
  H   H351      1.0  0.34095  0.00158  0.52865  1.0000
  C   C345      1.0  0.33116  0.00772  0.52367  1.0000
  H   H352      1.0  0.25466  0.07668  0.62020  1.0000
  C   C346      1.0  0.35384  0.99995  0.66992  1.0000
  H   H353      1.0  0.22546  0.99594  0.61475  1.0000
  H   H354      1.0  0.36409  0.01727  0.66964  1.0000
  C   C347      1.0  0.36659  0.99584  0.70618  1.0000
  H   H355      1.0  0.04899  0.11284  0.70218  1.0000
  H   H356      1.0  0.38029  0.03454  0.52773  1.0000
  C   C348      1.0  0.46390  0.99456  0.72536  1.0000
  C   C349      1.0  0.35190  0.04880  0.56068  1.0000
  C   C350      1.0  0.10685  0.09936  0.60629  1.0000
  S   S120      1.0  0.28173  0.02920  0.58941  1.0000
  H   H357      1.0  0.33554  0.04364  0.55268  1.0000
  C   C351      1.0  0.34863  0.01148  0.62348  1.0000
  N   N29       1.0  0.48962  0.05764  0.97196  1.0000
  H   H358      1.0  0.48066  0.05580  0.89514  1.0000
  H   H359      1.0  0.16377  0.17060  0.61952  1.0000
  C   C352      1.0  0.35257  0.03310  0.52904  1.0000
  C   C353      1.0  0.48808  0.08134  0.64874  1.0000
  S   S121      1.0  0.31503  0.03282  0.59060  1.0000
  C   C354      1.0  0.13559  0.09010  0.59054  1.0000
  C   C355      1.0  0.46072  0.11328  0.89496  1.0000
  C   C356      1.0  0.14233  0.08134  0.68162  1.0000
  H   H360      1.0  0.07272  0.14896  0.69736  1.0000
  C   C357      1.0  0.17097  0.00134  0.65820  1.0000
  H   H361      1.0  0.47883  0.02927  0.75219  1.0000
  H   H362      1.0  0.33968  0.98967  0.71554  1.0000
  C   C358      1.0  0.44577  0.99113  0.75405  1.0000
  H   H363      1.0  0.47669  0.08122  0.65586  1.0000
  C   C359      1.0  0.48176  0.00579  0.75534  1.0000
  H   H364      1.0  0.29291  0.09507  0.58323  1.0000
  S   S122      1.0  0.23183  0.01824  0.48977  1.0000
  S   S123      1.0  0.45961  0.99274  0.82639  1.0000
  C   C360      1.0  0.48139  0.03721  0.84227  1.0000
  C   C361      1.0  0.32071  0.02164  0.48127  1.0000
  C   C362      1.0  0.47211  0.01522  0.85038  1.0000
  C   C363      1.0  0.49076  0.10529  0.81897  1.0000
  C   C364      1.0  0.36465  0.00847  0.66448  1.0000
  Fe  Fe57      1.0  0.29561  0.02391  0.60624  1.0000
  C   C365      1.0  0.20826  0.04751  0.50604  1.0000
  N   N30       1.0  0.20366  0.06262  0.50285  1.0000
  N   N31       1.0  0.39440  0.00912  0.81070  1.0000
  C   C366      1.0  0.39359  0.01328  0.82339  1.0000
  C   C367      1.0  0.40757  0.00132  0.80379  1.0000
  H   H365      1.0  0.14025  0.12004  0.59816  1.0000
  C   C368      1.0  0.43856  0.00909  0.66807  1.0000
  H   H366      1.0  0.22248  0.07106  0.52319  1.0000
  S   S124      1.0  0.47997  0.14656  0.88039  1.0000
  H   H367      1.0  0.14199  0.11991  0.57907  1.0000
  C   C369      1.0  0.33551  0.01353  0.47921  1.0000
  H   H368      1.0  0.42906  0.99749  0.82791  1.0000
  C   C370      1.0  0.21790  0.04046  0.51573  1.0000
  H   H369      1.0  0.38904  0.04348  0.54479  1.0000
  S   S125      1.0  0.18936  0.13466  0.49527  1.0000
  C   C371      1.0  0.29616  0.04168  0.52714  1.0000
  S   S126      1.0  0.19478  0.00237  0.66849  1.0000
  N   N32       1.0  0.05444  0.10375  0.68312  1.0000
  C   C372      1.0  0.06473  0.10314  0.67007  1.0000
  C   C373      1.0  0.04053  0.10135  0.68482  1.0000
  C   C374      1.0  0.06115  0.10018  0.65826  1.0000
  C   C375      1.0  0.03660  0.09829  0.67324  1.0000
  C   C376      1.0  0.04703  0.09765  0.65990  1.0000
  C   C377      1.0  0.05862  0.10610  0.69564  1.0000
  H   H370      1.0  0.35618  0.02083  0.53142  1.0000
  H   H371      1.0  0.03235  0.10195  0.69512  1.0000
  H   H372      1.0  0.06930  0.09976  0.64793  1.0000
  Fe  Fe58      1.0  0.28381  0.02920  0.48083  1.0000
  C   C378      1.0  0.22495  0.99655  0.48163  1.0000
  C   C379      1.0  0.37705  0.99430  0.64552  1.0000
  C   C380      1.0  0.40609  0.00929  0.82968  1.0000
  H   H373      1.0  0.34365  0.03814  0.65396  1.0000
  N   N33       1.0  0.25806  0.09681  0.60486  1.0000
  C   C381      1.0  0.27309  0.09175  0.60011  1.0000
  C   C382      1.0  0.25062  0.10958  0.59708  1.0000
  C   C383      1.0  0.28099  0.09926  0.58698  1.0000
  C   C384      1.0  0.25815  0.11733  0.58385  1.0000
  C   C385      1.0  0.27342  0.11206  0.57875  1.0000
  C   C386      1.0  0.25008  0.08883  0.61875  1.0000
  H   H374      1.0  0.27905  0.08178  0.60642  1.0000
  H   H375      1.0  0.23870  0.11365  0.60082  1.0000
  H   H376      1.0  0.23887  0.09583  0.49459  1.0000
  H   H377      1.0  0.26755  0.00438  0.63708  1.0000
  C   C387      1.0  0.00228  0.02026  0.61879  1.0000
  C   C388      1.0  0.45571  0.14695  0.93640  1.0000
  C   C389      1.0  0.37172  0.99278  0.85256  1.0000
  Fe  Fe59      1.0  0.41581  0.98680  0.86940  1.0000
  H   H378      1.0  0.36237  0.00719  0.70003  1.0000
  H   H379      1.0  0.23075  0.04368  0.52928  1.0000
  H   H380      1.0  0.48332  0.00639  0.80757  1.0000
  H   H381      1.0  0.40523  0.01213  0.84004  1.0000
  Fe  Fe60      1.0  0.38458  0.98939  0.49032  1.0000
  C   C390      1.0  0.35526  0.99234  0.74724  1.0000
  Fe  Fe61      1.0  0.10633  0.17956  0.71075  1.0000
  S   S127      1.0  0.39146  0.99218  0.86856  1.0000
  C   C391      1.0  0.34690  0.01932  0.48046  1.0000
  C   C392      1.0  0.00592  0.02062  0.64281  1.0000
  H   H382      1.0  0.18748  0.06236  0.49144  1.0000
  H   H383      1.0  0.35636  0.99461  0.83914  1.0000
  Fe  Fe62      1.0  0.07954  0.17154  0.70700  1.0000
  H   H384      1.0  0.37086  0.01294  0.81298  1.0000
  H   H385      1.0  0.48631  0.03215  0.80136  1.0000
  H   H386      1.0  0.45541  0.03881  0.86729  1.0000
  H   H387      1.0  0.44057  0.00098  0.66151  1.0000
  C   C393      1.0  0.47391  0.16177  0.92089  1.0000
  H   H388      1.0  0.02768  0.16594  0.71870  1.0000
  S   S128      1.0  0.49099  0.12736  0.91698  1.0000
  H   H389      1.0  0.48943  0.04175  0.96048  1.0000
  H   H390      1.0  0.30599  0.04167  0.48676  1.0000
  H   H391      1.0  0.11356  0.12318  0.49562  1.0000
  C   C394      1.0  0.48836  0.08662  0.97252  1.0000
  H   H392      1.0  0.08108  0.17135  0.74947  1.0000
  N   N34       1.0  0.44686  0.00690  0.67831  1.0000
  C   C395      1.0  0.44047  0.12115  0.97535  1.0000
  H   H393      1.0  0.11572  0.14642  0.50057  1.0000
  C   C396      1.0  0.46865  0.99366  0.77882  1.0000
  H   H394      1.0  0.31080  0.02262  0.63272  1.0000
  S   S129      1.0  0.05706  0.16705  0.71891  1.0000
  H   H395      1.0  0.47056  0.03850  0.77838  1.0000
  Fe  Fe63      1.0  0.32907  0.98394  0.69411  1.0000
  Fe  Fe64      1.0  0.49084  0.06150  0.80182  1.0000
  H   H396      1.0  0.16477  0.01824  0.47822  1.0000
  C   C397      1.0  0.48408  0.17044  0.91917  1.0000
  H   H397      1.0  0.48865  0.00543  0.74435  1.0000
  C   C398      1.0  0.44469  0.01748  0.68606  1.0000
  H   H398      1.0  0.26007  0.99732  0.48265  1.0000
  Fe  Fe65      1.0  0.00083  0.05879  0.64497  1.0000
  C   C399      1.0  0.39147  0.00732  0.56023  1.0000
  H   H399      1.0  0.41164  0.01067  0.52477  1.0000
  C   C400      1.0  0.18127  0.17856  0.48509  1.0000
  C   C401      1.0  0.28510  0.99274  0.62217  1.0000
  S   S130      1.0  0.30681  0.01446  0.47877  1.0000
  H   H400      1.0  0.42155  0.02406  0.65692  1.0000
  H   H401      1.0  0.14974  0.16682  0.63593  1.0000
  Fe  Fe66      1.0  0.42968  0.17257  0.97268  1.0000
  C   C402      1.0  0.00266  0.01684  0.65828  1.0000
  C   C403      1.0  0.49228  0.05061  0.63038  1.0000
  C   C404      1.0  0.48939  0.10912  0.91991  1.0000
  C   C405      1.0  0.07334  0.18202  0.74775  1.0000
  H   H402      1.0  0.48731  0.09092  0.63917  1.0000
  C   C406      1.0  0.49439  0.08171  0.95937  1.0000
  H   H403      1.0  0.14817  0.17648  0.70367  1.0000
  H   H404      1.0  0.49001  0.17499  0.90822  1.0000
  C   C407      1.0  0.33691  0.98750  0.51083  1.0000
  H   H405      1.0  0.41589  0.98437  0.60126  1.0000
  C   C408      1.0  0.31168  0.00047  0.51703  1.0000
  H   H406      1.0  0.33513  0.98636  0.76175  1.0000
  H   H407      1.0  0.43059  0.99058  0.80447  1.0000
  N   N35       1.0  0.32643  0.99813  0.51730  1.0000
  C   C409      1.0  0.49000  0.04244  0.97162  1.0000
  C   C410      1.0  0.99975  0.18278  0.73208  1.0000
  S   S131      1.0  0.11779  0.18115  0.68676  1.0000
  H   H408      1.0  0.29096  0.98958  0.65555  1.0000
  H   H409      1.0  0.45636  0.98770  0.69276  1.0000
  H   H410      1.0  0.05382  0.17986  0.67052  1.0000
  H   H411      1.0  0.02860  0.18101  0.66710  1.0000
  H   H412      1.0  0.29543  0.99399  0.50985  1.0000
  H   H413      1.0  0.48755  0.09803  0.97267  1.0000
  S   S132      1.0  0.99844  0.17002  0.67283  1.0000
  N   N36       1.0  0.49425  0.06749  0.64355  1.0000
  H   H414      1.0  0.45083  0.98775  0.92135  1.0000
  Fe  Fe67      1.0  0.49450  0.16267  0.86814  1.0000
  H   H415      1.0  0.43743  0.99083  0.58129  1.0000
  C   C411      1.0  0.30705  0.99177  0.51050  1.0000
  H   H416      1.0  0.24843  0.98468  0.69875  1.0000
  H   H417      1.0  0.32499  0.98481  0.74127  1.0000
  C   C412      1.0  0.49519  0.06701  0.95936  1.0000
  C   C413      1.0  0.05892  0.18299  0.74637  1.0000
  H   H418      1.0  0.47213  0.98461  0.90116  1.0000
  H   H419      1.0  0.34868  0.98586  0.51062  1.0000
  C   C414      1.0  0.35479  0.98840  0.66336  1.0000
  H   H420      1.0  0.13007  0.16312  0.48105  1.0000
  H   H421      1.0  0.46535  0.98378  0.78622  1.0000
  H   H422      1.0  0.49395  0.18031  0.93047  1.0000
  H   H423      1.0  0.44032  0.98679  0.55630  1.0000
  C   C415      1.0  0.12915  0.15303  0.47882  1.0000
  H   H424      1.0  0.99545  0.17032  0.71896  1.0000
  C   C416      1.0  0.42956  0.98582  0.57925  1.0000
  S   S133      1.0  0.40446  0.98504  0.50023  1.0000
  S   S134      1.0  0.42274  0.18270  0.95102  1.0000
  S   S135      1.0  0.27951  0.05379  0.47813  1.0000
  H   H425      1.0  0.49506  0.08296  0.65540  1.0000
  H   H426      1.0  0.25607  0.30430  0.02294  1.0000
  S   S136      1.0  0.28446  0.30418  0.00380  1.0000
  H   H427      1.0  0.06753  0.31963  0.28603  1.0000
  H   H428      1.0  0.35364  0.28169  0.00678  1.0000
  H   H429      1.0  0.47618  0.24534  0.07922  1.0000
  H   H430      1.0  0.24136  0.30544  0.99083  1.0000
  H   H431      1.0  0.18382  0.36734  0.30894  1.0000
  Fe  Fe68      1.0  0.45796  0.19374  0.08908  1.0000
  S   S137      1.0  0.43349  0.20222  0.09732  1.0000
  S   S138      1.0  0.47390  0.19351  0.10253  1.0000
  Fe  Fe69      1.0  0.43309  0.21199  0.07347  1.0000
  S   S139      1.0  0.42081  0.23537  0.06638  1.0000
  S   S140      1.0  0.39941  0.37208  0.10421  1.0000
  S   S141      1.0  0.45797  0.20527  0.06539  1.0000
  Fe  Fe70      1.0  0.25478  0.35877  0.17617  1.0000
  C   C417      1.0  0.11889  0.24437  0.47041  1.0000
  C   C418      1.0  0.39929  0.33964  0.07690  1.0000
  Fe  Fe71      1.0  0.28475  0.34644  0.15741  1.0000
  S   S142      1.0  0.27565  0.35383  0.13684  1.0000
  S   S143      1.0  0.30855  0.33349  0.15345  1.0000
  Fe  Fe72      1.0  0.14164  0.38334  0.37609  1.0000
  Fe  Fe73      1.0  0.25587  0.34501  0.15129  1.0000
  S   S144      1.0  0.24658  0.32946  0.14472  1.0000
  H   H432      1.0  0.02935  0.19613  0.43223  1.0000
  S   S145      1.0  0.26561  0.33618  0.17147  1.0000
  Fe  Fe74      1.0  0.31067  0.28683  0.08962  1.0000
  S   S146      1.0  0.31830  0.30820  0.08241  1.0000
  S   S147      1.0  0.28810  0.28739  0.10496  1.0000
  Fe  Fe75      1.0  0.33987  0.27010  0.07331  1.0000
  S   S148      1.0  0.34966  0.29025  0.06467  1.0000
  S   S149      1.0  0.35184  0.24762  0.06862  1.0000
  Fe  Fe76      1.0  0.34014  0.29431  0.08756  1.0000
  S   S150      1.0  0.35281  0.29746  0.10251  1.0000
  Fe  Fe77      1.0  0.32685  0.30190  0.06037  1.0000
  S   S151      1.0  0.32437  0.31767  0.03868  1.0000
  S   S152      1.0  0.33180  0.27329  0.09656  1.0000
  S   S153      1.0  0.31777  0.28143  0.06727  1.0000
  H   H433      1.0  0.08835  0.26908  0.37115  1.0000
  H   H434      1.0  0.48596  0.20318  0.12119  1.0000
  S   S154      1.0  0.38915  0.34286  0.12830  1.0000
  Fe  Fe78      1.0  0.37978  0.36137  0.11105  1.0000
  Fe  Fe79      1.0  0.37763  0.35857  0.14351  1.0000
  S   S155      1.0  0.36021  0.35546  0.16455  1.0000
  Fe  Fe80      1.0  0.40805  0.35446  0.12278  1.0000
  S   S156      1.0  0.43246  0.34316  0.11588  1.0000
  C   C419      1.0  0.12188  0.32658  0.44266  1.0000
  S   S157      1.0  0.13047  0.36723  0.39453  1.0000
  C   C420      1.0  0.10947  0.35259  0.32216  1.0000
  S   S158      1.0  0.46949  0.28576  0.15232  1.0000
  H   H435      1.0  0.28147  0.33728  0.03547  1.0000
  C   C421      1.0  0.02072  0.21881  0.43395  1.0000
  H   H436      1.0  0.29399  0.38080  0.13490  1.0000
  Fe  Fe81      1.0  0.10053  0.31469  0.20582  1.0000
  S   S159      1.0  0.08267  0.33360  0.19785  1.0000
  S   S160      1.0  0.09304  0.30044  0.22806  1.0000
  Fe  Fe82      1.0  0.12394  0.32148  0.17722  1.0000
  S   S161      1.0  0.10782  0.34088  0.16716  1.0000
  S   S162      1.0  0.14825  0.31485  0.16588  1.0000
  Fe  Fe83      1.0  0.10107  0.34613  0.18969  1.0000
  S   S163      1.0  0.09822  0.36917  0.19245  1.0000
  Fe  Fe84      1.0  0.09123  0.32623  0.17638  1.0000
  S   S164      1.0  0.07801  0.32137  0.16286  1.0000
  S   S165      1.0  0.11831  0.32778  0.19915  1.0000
  S   S166      1.0  0.10795  0.30630  0.18499  1.0000
  Fe  Fe85      1.0  0.19031  0.32526  0.08349  1.0000
  S   S167      1.0  0.19893  0.34449  0.06733  1.0000
  S   S168      1.0  0.16617  0.32993  0.09577  1.0000
  Fe  Fe86      1.0  0.22005  0.30390  0.07742  1.0000
  S   S169      1.0  0.23090  0.32134  0.06108  1.0000
  S   S170      1.0  0.23592  0.28180  0.07989  1.0000
  Fe  Fe87      1.0  0.21908  0.33545  0.07741  1.0000
  S   S171      1.0  0.23132  0.35018  0.08164  1.0000
  Fe  Fe88      1.0  0.20998  0.32847  0.05244  1.0000
  S   S172      1.0  0.21387  0.33411  0.02748  1.0000
  S   S173      1.0  0.20964  0.31741  0.09468  1.0000
  S   S174      1.0  0.19980  0.30986  0.06771  1.0000
  Fe  Fe89      1.0  0.09667  0.27673  0.32652  1.0000
  S   S175      1.0  0.09201  0.29426  0.33931  1.0000
  S   S176      1.0  0.08668  0.25697  0.33836  1.0000
  Fe  Fe90      1.0  0.11423  0.29395  0.29896  1.0000
  S   S177      1.0  0.11119  0.31278  0.30949  1.0000
  S   S178      1.0  0.12817  0.29699  0.27584  1.0000
  Fe  Fe91      1.0  0.11602  0.29512  0.32934  1.0000
  S   S179      1.0  0.13289  0.29474  0.34155  1.0000
  Fe  Fe92      1.0  0.08761  0.31006  0.31821  1.0000
  S   S180      1.0  0.06802  0.32898  0.31526  1.0000
  S   S181      1.0  0.12116  0.27638  0.31810  1.0000
  S   S182      1.0  0.09014  0.29250  0.30622  1.0000
  S   S183      1.0  0.09948  0.19090  0.40675  1.0000
  S   S184      1.0  0.14657  0.35048  0.25737  1.0000
  H   H437      1.0  0.08922  0.26133  0.39786  1.0000
  H   H438      1.0  0.12232  0.33051  0.45198  1.0000
  S   S185      1.0  0.17627  0.36000  0.25978  1.0000
  Fe  Fe93      1.0  0.16783  0.35577  0.24222  1.0000
  S   S186      1.0  0.18209  0.34176  0.22622  1.0000
  Fe  Fe94      1.0  0.15386  0.35725  0.27421  1.0000
  S   S187      1.0  0.14967  0.34432  0.29769  1.0000
  C   C422      1.0  0.17104  0.34495  0.99929  1.0000
  S   S188      1.0  0.00758  0.34462  0.17324  1.0000
  Fe  Fe95      1.0  0.10827  0.21402  0.42927  1.0000
  C   C423      1.0  0.48765  0.22576  0.11084  1.0000
  S   S189      1.0  0.11551  0.23125  0.43567  1.0000
  Fe  Fe96      1.0  0.08390  0.20885  0.41755  1.0000
  H   H439      1.0  0.39020  0.34414  0.07110  1.0000
  S   S190      1.0  0.06066  0.21770  0.41346  1.0000
  Fe  Fe97      1.0  0.11586  0.20537  0.39966  1.0000
  S   S191      1.0  0.12962  0.20945  0.37658  1.0000
  S   S192      1.0  0.09082  0.20030  0.43940  1.0000
  S   S193      1.0  0.09963  0.22410  0.40854  1.0000
  H   H440      1.0  0.17337  0.31566  0.25027  1.0000
  C   C424      1.0  0.30530  0.38153  0.12889  1.0000
  C   C425      1.0  0.17455  0.31522  0.29001  1.0000
  H   H441      1.0  0.10096  0.33759  0.23894  1.0000
  S   S194      1.0  0.15473  0.27721  0.44690  1.0000
  H   H442      1.0  0.43064  0.32481  0.09873  1.0000
  S   S195      1.0  0.48967  0.25448  0.09731  1.0000
  C   C426      1.0  0.28944  0.31580  0.13156  1.0000
  S   S196      1.0  0.16489  0.37116  0.37842  1.0000
  Fe  Fe98      1.0  0.13248  0.35495  0.37722  1.0000
  S   S197      1.0  0.15514  0.34068  0.37933  1.0000
  S   S198      1.0  0.11336  0.34583  0.37664  1.0000
  Fe  Fe99      1.0  0.15381  0.35392  0.39556  1.0000
  S   S199      1.0  0.15891  0.34396  0.41826  1.0000
  Fe  Fe100     1.0  0.16377  0.35919  0.36203  1.0000
  S   S200      1.0  0.18071  0.35808  0.34065  1.0000
  C   C427      1.0  0.42194  0.32899  0.09244  1.0000
  C   C428      1.0  0.18520  0.32089  0.27811  1.0000
  S   S201      1.0  0.01726  0.29559  0.32303  1.0000
  H   H443      1.0  0.41164  0.19458  0.02554  1.0000
  H   H444      1.0  0.29926  0.34360  0.04594  1.0000
  C   C429      1.0  0.15766  0.29526  0.43904  1.0000
  C   C430      1.0  0.15850  0.30074  0.42382  1.0000
  C   C431      1.0  0.15923  0.31555  0.41731  1.0000
  C   C432      1.0  0.15930  0.32498  0.42593  1.0000
  C   C433      1.0  0.15902  0.31935  0.44108  1.0000
  C   C434      1.0  0.15813  0.30453  0.44766  1.0000
  H   H445      1.0  0.15825  0.29359  0.41708  1.0000
  H   H446      1.0  0.15971  0.31966  0.40563  1.0000
  H   H447      1.0  0.15916  0.32657  0.44780  1.0000
  H   H448      1.0  0.15752  0.30038  0.45940  1.0000
  C   C435      1.0  0.05419  0.20490  0.40841  1.0000
  Fe  Fe101     1.0  0.26414  0.37462  0.14483  1.0000
  H   H449      1.0  0.24503  0.29372  0.04883  1.0000
  H   H450      1.0  0.11376  0.31697  0.40014  1.0000
  C   C436      1.0  0.03669  0.19998  0.39730  1.0000
  C   C437      1.0  0.04289  0.21003  0.40040  1.0000
  C   C438      1.0  0.19143  0.34715  0.11315  1.0000
  C   C439      1.0  0.17388  0.31541  0.26144  1.0000
  H   H451      1.0  0.02815  0.20405  0.39091  1.0000
  H   H452      1.0  0.03882  0.22181  0.39669  1.0000
  H   H453      1.0  0.33789  0.29668  0.00361  1.0000
  H   H454      1.0  0.37789  0.24626  0.98618  1.0000
  C   C440      1.0  0.11805  0.24396  0.45631  1.0000
  C   C441      1.0  0.11436  0.23185  0.45401  1.0000
  H   H455      1.0  0.12860  0.35377  0.34193  1.0000
  H   H456      1.0  0.34494  0.29388  0.01972  1.0000
  H   H457      1.0  0.15724  0.32889  0.18674  1.0000
  H   H458      1.0  0.12056  0.25299  0.44709  1.0000
  C   C442      1.0  0.15422  0.35789  0.20173  1.0000
  H   H459      1.0  0.45559  0.22908  0.12908  1.0000
  C   C443      1.0  0.39975  0.32616  0.08718  1.0000
  H   H460      1.0  0.09016  0.32716  0.28604  1.0000
  S   S202      1.0  0.14264  0.38118  0.26839  1.0000
  H   H461      1.0  0.07843  0.33010  0.23845  1.0000
  N   N37       1.0  0.28931  0.30124  0.13359  1.0000
  C   C444      1.0  0.12236  0.30666  0.43190  1.0000
  C   C445      1.0  0.15909  0.34772  0.30919  1.0000
  C   C446      1.0  0.16907  0.35719  0.30365  1.0000
  C   C447      1.0  0.17611  0.36001  0.31324  1.0000
  C   C448      1.0  0.17284  0.35371  0.32842  1.0000
  C   C449      1.0  0.16288  0.34425  0.33390  1.0000
  C   C450      1.0  0.15624  0.34104  0.32426  1.0000
  H   H462      1.0  0.17128  0.36243  0.29202  1.0000
  C   C451      1.0  0.99656  0.30785  0.21751  1.0000
  H   H463      1.0  0.16045  0.33925  0.34557  1.0000
  H   H464      1.0  0.14864  0.33360  0.32855  1.0000
  C   C452      1.0  0.09873  0.24299  0.34829  1.0000
  C   C453      1.0  0.09278  0.23512  0.36226  1.0000
  C   C454      1.0  0.10228  0.22455  0.37074  1.0000
  C   C455      1.0  0.11777  0.22177  0.36533  1.0000
  C   C456      1.0  0.12373  0.22928  0.35115  1.0000
  C   C457      1.0  0.11421  0.23994  0.34266  1.0000
  H   H465      1.0  0.08086  0.23743  0.36675  1.0000
  H   H466      1.0  0.09752  0.21857  0.38151  1.0000
  H   H467      1.0  0.13569  0.22697  0.34682  1.0000
  H   H468      1.0  0.11883  0.24569  0.33171  1.0000
  C   C458      1.0  0.05312  0.32053  0.31796  1.0000
  C   C459      1.0  0.04151  0.32729  0.31039  1.0000
  C   C460      1.0  0.03039  0.31973  0.31175  1.0000
  C   C461      1.0  0.03075  0.30558  0.32094  1.0000
  C   C462      1.0  0.04214  0.29905  0.32874  1.0000
  C   C463      1.0  0.05339  0.30641  0.32710  1.0000
  H   H469      1.0  0.04131  0.33819  0.30324  1.0000
  H   H470      1.0  0.02155  0.32485  0.30576  1.0000
  H   H471      1.0  0.04237  0.28820  0.33597  1.0000
  H   H472      1.0  0.06225  0.30113  0.33302  1.0000
  C   C464      1.0  0.11875  0.33127  0.36731  1.0000
  C   C465      1.0  0.10785  0.32646  0.36385  1.0000
  C   C466      1.0  0.11210  0.31540  0.35570  1.0000
  C   C467      1.0  0.12723  0.30873  0.35153  1.0000
  C   C468      1.0  0.13804  0.31318  0.35544  1.0000
  C   C469      1.0  0.13382  0.32457  0.36310  1.0000
  H   H473      1.0  0.09614  0.33141  0.36730  1.0000
  H   H474      1.0  0.10366  0.31192  0.35283  1.0000
  H   H475      1.0  0.14976  0.30808  0.35221  1.0000
  H   H476      1.0  0.14230  0.32813  0.36567  1.0000
  C   C470      1.0  0.05842  0.32773  0.16619  1.0000
  C   C471      1.0  0.05115  0.33893  0.17398  1.0000
  C   C472      1.0  0.03552  0.34397  0.17615  1.0000
  C   C473      1.0  0.02707  0.33767  0.17081  1.0000
  C   C474      1.0  0.03431  0.32623  0.16335  1.0000
  C   C475      1.0  0.04996  0.32138  0.16093  1.0000
  H   H477      1.0  0.05759  0.34395  0.17800  1.0000
  H   H478      1.0  0.02999  0.35289  0.18185  1.0000
  H   H479      1.0  0.02790  0.32141  0.15907  1.0000
  H   H480      1.0  0.05552  0.31273  0.15489  1.0000
  C   C476      1.0  0.10217  0.37174  0.20819  1.0000
  Fe  Fe102     1.0  0.13707  0.37464  0.25032  1.0000
  H   H481      1.0  0.40056  0.19745  0.04358  1.0000
  H   H482      1.0  0.11953  0.35108  0.31355  1.0000
  C   C477      1.0  0.11657  0.36464  0.22733  1.0000
  C   C478      1.0  0.11259  0.36131  0.21582  1.0000
  S   S203      1.0  0.48498  0.25066  0.13879  1.0000
  S   S204      1.0  0.42799  0.19229  0.06968  1.0000
  H   H483      1.0  0.12491  0.35681  0.23292  1.0000
  H   H484      1.0  0.11797  0.35095  0.21252  1.0000
  C   C479      1.0  0.10356  0.29841  0.24106  1.0000
  C   C480      1.0  0.09811  0.29241  0.25596  1.0000
  C   C481      1.0  0.10579  0.29166  0.26667  1.0000
  C   C482      1.0  0.11895  0.29689  0.26252  1.0000
  C   C483      1.0  0.12465  0.30247  0.24757  1.0000
  C   C484      1.0  0.11697  0.30322  0.23686  1.0000
  H   H485      1.0  0.08785  0.28849  0.25925  1.0000
  H   H486      1.0  0.10162  0.28683  0.27807  1.0000
  H   H487      1.0  0.13497  0.30630  0.24427  1.0000
  H   H488      1.0  0.12151  0.30738  0.22537  1.0000
  C   C485      1.0  0.15326  0.31948  0.14640  1.0000
  C   C486      1.0  0.16769  0.31339  0.13913  1.0000
  C   C487      1.0  0.17186  0.31662  0.12359  1.0000
  C   C488      1.0  0.16164  0.32605  0.11525  1.0000
  C   C489      1.0  0.14724  0.33215  0.12252  1.0000
  C   C490      1.0  0.14306  0.32889  0.13803  1.0000
  H   H489      1.0  0.17558  0.30597  0.14554  1.0000
  H   H490      1.0  0.18289  0.31161  0.11810  1.0000
  H   H491      1.0  0.13925  0.33940  0.11613  1.0000
  H   H492      1.0  0.13192  0.33361  0.14345  1.0000
  C   C491      1.0  0.44225  0.32695  0.12617  1.0000
  C   C492      1.0  0.45675  0.32035  0.11946  1.0000
  C   C493      1.0  0.46515  0.30766  0.12730  1.0000
  C   C494      1.0  0.45915  0.30151  0.14198  1.0000
  C   C495      1.0  0.44456  0.30799  0.14864  1.0000
  C   C496      1.0  0.43609  0.32061  0.14074  1.0000
  H   H493      1.0  0.46164  0.32523  0.10822  1.0000
  H   H494      1.0  0.47640  0.30286  0.12208  1.0000
  H   H495      1.0  0.43985  0.30333  0.16002  1.0000
  H   H496      1.0  0.42495  0.32562  0.14603  1.0000
  C   C497      1.0  0.35608  0.31507  0.10045  1.0000
  C   C498      1.0  0.36145  0.31764  0.11140  1.0000
  C   C499      1.0  0.36474  0.33135  0.10986  1.0000
  C   C500      1.0  0.36288  0.34253  0.09725  1.0000
  C   C501      1.0  0.35719  0.34009  0.08642  1.0000
  C   C502      1.0  0.35374  0.32639  0.08803  1.0000
  H   H497      1.0  0.36311  0.30898  0.12112  1.0000
  H   H498      1.0  0.36883  0.33318  0.11838  1.0000
  H   H499      1.0  0.35566  0.34873  0.07666  1.0000
  H   H500      1.0  0.34957  0.32450  0.07955  1.0000
  C   C503      1.0  0.27386  0.28575  0.09767  1.0000
  C   C504      1.0  0.25894  0.29113  0.10416  1.0000
  C   C505      1.0  0.24732  0.29008  0.09857  1.0000
  C   C506      1.0  0.25054  0.28317  0.08677  1.0000
  C   C507      1.0  0.26546  0.27761  0.08034  1.0000
  C   C508      1.0  0.27714  0.27907  0.08567  1.0000
  H   H501      1.0  0.25633  0.29610  0.11357  1.0000
  H   H502      1.0  0.23582  0.29419  0.10370  1.0000
  H   H503      1.0  0.26799  0.27225  0.07121  1.0000
  H   H504      1.0  0.28860  0.27465  0.08077  1.0000
  C   C509      1.0  0.22480  0.35893  0.20438  1.0000
  C   C510      1.0  0.21304  0.36666  0.21362  1.0000
  C   C511      1.0  0.19988  0.36147  0.22016  1.0000
  C   C512      1.0  0.19834  0.34858  0.21737  1.0000
  C   C513      1.0  0.20989  0.34110  0.20768  1.0000
  C   C514      1.0  0.22313  0.34630  0.20115  1.0000
  C   C515      1.0  0.12210  0.33082  0.41676  1.0000
  H   H505      1.0  0.19095  0.36748  0.22739  1.0000
  H   H506      1.0  0.20874  0.33115  0.20544  1.0000
  H   H507      1.0  0.23219  0.34032  0.19395  1.0000
  C   C516      1.0  0.32247  0.34028  0.15645  1.0000
  C   C517      1.0  0.31921  0.34932  0.16653  1.0000
  C   C518      1.0  0.33082  0.35389  0.16915  1.0000
  C   C519      1.0  0.34559  0.34982  0.16135  1.0000
  C   C520      1.0  0.34868  0.34123  0.15092  1.0000
  C   C521      1.0  0.33720  0.33629  0.14864  1.0000
  H   H508      1.0  0.30785  0.35237  0.17264  1.0000
  S   S205      1.0  0.99753  0.23569  0.36627  1.0000
  H   H509      1.0  0.36001  0.33794  0.14497  1.0000
  H   H510      1.0  0.33979  0.32930  0.14084  1.0000
  C   C522      1.0  0.24357  0.33505  0.12673  1.0000
  C   C523      1.0  0.23890  0.32550  0.12132  1.0000
  C   C524      1.0  0.23564  0.32994  0.10727  1.0000
  C   C525      1.0  0.23680  0.34402  0.09864  1.0000
  C   C526      1.0  0.24194  0.35343  0.10385  1.0000
  C   C527      1.0  0.24533  0.34895  0.11792  1.0000
  H   H511      1.0  0.23769  0.31467  0.12804  1.0000
  H   H512      1.0  0.23235  0.32239  0.10311  1.0000
  C   C528      1.0  0.48039  0.18590  0.16079  1.0000
  H   H513      1.0  0.24894  0.35639  0.12207  1.0000
  C   C529      1.0  0.40193  0.23831  0.06606  1.0000
  C   C530      1.0  0.39384  0.25285  0.06255  1.0000
  C   C531      1.0  0.37860  0.25571  0.06275  1.0000
  C   C532      1.0  0.37134  0.24405  0.06638  1.0000
  C   C533      1.0  0.37961  0.22943  0.06910  1.0000
  C   C534      1.0  0.39488  0.22654  0.06912  1.0000
  H   H514      1.0  0.39932  0.26198  0.05991  1.0000
  H   H515      1.0  0.37253  0.26696  0.06011  1.0000
  H   H516      1.0  0.37408  0.22034  0.07178  1.0000
  H   H517      1.0  0.40106  0.21526  0.07177  1.0000
  C   C535      1.0  0.47741  0.21079  0.10133  1.0000
  H   H518      1.0  0.44395  0.24896  0.16663  1.0000
  C   C536      1.0  0.47827  0.20053  0.15265  1.0000
  Fe  Fe103     1.0  0.45288  0.18456  0.06369  1.0000
  C   C537      1.0  0.47830  0.23615  0.08841  1.0000
  C   C538      1.0  0.47444  0.22277  0.08963  1.0000
  C   C539      1.0  0.30246  0.29095  0.13130  1.0000
  N   N38       1.0  0.42151  0.34211  0.08217  1.0000
  C   C540      1.0  0.15082  0.20772  0.45375  1.0000
  H   H519      1.0  0.46947  0.22166  0.08133  1.0000
  H   H520      1.0  0.20876  0.37561  0.10518  1.0000
  C   C541      1.0  0.12199  0.31173  0.44425  1.0000
  H   H521      1.0  0.11988  0.33352  0.25357  1.0000
  H   H522      1.0  0.31955  0.28430  0.00468  1.0000
  H   H523      1.0  0.22634  0.36967  0.23694  1.0000
  Fe  Fe104     1.0  0.15398  0.26656  0.47113  1.0000
  C   C542      1.0  0.19267  0.31153  0.00546  1.0000
  C   C543      1.0  0.20446  0.31839  0.99727  1.0000
  C   C544      1.0  0.21118  0.32494  0.00423  1.0000
  C   C545      1.0  0.20616  0.32465  0.01940  1.0000
  C   C546      1.0  0.19463  0.31750  0.02765  1.0000
  C   C547      1.0  0.18791  0.31094  0.02068  1.0000
  H   H524      1.0  0.20815  0.31898  0.98553  1.0000
  H   H525      1.0  0.22013  0.33044  0.99781  1.0000
  H   H526      1.0  0.19057  0.31737  0.03930  1.0000
  H   H527      1.0  0.17875  0.30569  0.02705  1.0000
  C   C548      1.0  0.44120  0.20347  0.00622  1.0000
  H   H528      1.0  0.40317  0.25848  0.01503  1.0000
  H   H529      1.0  0.19979  0.36175  0.00900  1.0000
  H   H530      1.0  0.10808  0.21093  0.46437  1.0000
  C   C549      1.0  0.45152  0.20045  0.02746  1.0000
  C   C550      1.0  0.44506  0.20964  0.01574  1.0000
  C   C551      1.0  0.17349  0.21517  0.45333  1.0000
  C   C552      1.0  0.10970  0.37818  0.23154  1.0000
  H   H531      1.0  0.45420  0.20528  0.03497  1.0000
  H   H532      1.0  0.44281  0.22154  0.01421  1.0000
  C   C553      1.0  0.29461  0.30888  0.01378  1.0000
  C   C554      1.0  0.30507  0.31762  0.00643  1.0000
  C   C555      1.0  0.31395  0.32046  0.01424  1.0000
  C   C556      1.0  0.31259  0.31438  0.02939  1.0000
  C   C557      1.0  0.30183  0.30595  0.03685  1.0000
  C   C558      1.0  0.29274  0.30333  0.02908  1.0000
  C   C559      1.0  0.22993  0.29097  0.01682  1.0000
  H   H533      1.0  0.32204  0.32723  0.00845  1.0000
  H   H534      1.0  0.30021  0.30176  0.04864  1.0000
  H   H535      1.0  0.28454  0.29670  0.03487  1.0000
  C   C560      1.0  0.18021  0.35167  0.00312  1.0000
  C   C561      1.0  0.08398  0.34997  0.33257  1.0000
  H   H536      1.0  0.25149  0.31432  0.99754  1.0000
  C   C562      1.0  0.01932  0.20479  0.43383  1.0000
  H   H537      1.0  0.19215  0.22325  0.45403  1.0000
  S   S206      1.0  0.36828  0.35932  0.09439  1.0000
  H   H538      1.0  0.33847  0.35945  0.11621  1.0000
  S   S207      1.0  0.15775  0.37954  0.23370  1.0000
  H   H539      1.0  0.29633  0.33838  0.07306  1.0000
  N   N39       1.0  0.16035  0.21850  0.44877  1.0000
  H   H540      1.0  0.22220  0.37826  0.25239  1.0000
  C   C563      1.0  0.15551  0.23224  0.44053  1.0000
  H   H541      1.0  0.16679  0.33815  0.98175  1.0000
  C   C564      1.0  0.16385  0.24311  0.43675  1.0000
  C   C565      1.0  0.17714  0.23988  0.44154  1.0000
  H   H542      1.0  0.42068  0.19516  0.03911  1.0000
  C   C566      1.0  0.09654  0.36006  0.34466  1.0000
  H   H543      1.0  0.14501  0.23496  0.43708  1.0000
  H   H544      1.0  0.44677  0.28835  0.12436  1.0000
  H   H545      1.0  0.15975  0.25415  0.43063  1.0000
  H   H546      1.0  0.18334  0.24845  0.43921  1.0000
  H   H547      1.0  0.37418  0.37721  0.16803  1.0000
  S   S208      1.0  0.00486  0.28927  0.29108  1.0000
  H   H548      1.0  0.24296  0.36433  0.09715  1.0000
  H   H549      1.0  0.26114  0.32545  0.05233  1.0000
  N   N40       1.0  0.14374  0.36817  0.19480  1.0000
  C   C567      1.0  0.24689  0.29889  0.02522  1.0000
  N   N41       1.0  0.04126  0.30023  0.21640  1.0000
  C   C568      1.0  0.03454  0.28955  0.22639  1.0000
  C   C569      1.0  0.04110  0.30305  0.20173  1.0000
  C   C570      1.0  0.02710  0.28159  0.22181  1.0000
  C   C571      1.0  0.03367  0.29540  0.19679  1.0000
  C   C572      1.0  0.02660  0.28463  0.20693  1.0000
  C   C573      1.0  0.04890  0.30846  0.22151  1.0000
  H   H550      1.0  0.03444  0.28750  0.23806  1.0000
  H   H551      1.0  0.04655  0.31140  0.19379  1.0000
  H   H552      1.0  0.02122  0.27357  0.22984  1.0000
  H   H553      1.0  0.03319  0.29800  0.18522  1.0000
  S   S209      1.0  0.14120  0.37239  0.35867  1.0000
  N   N42       1.0  0.16384  0.30977  0.28765  1.0000
  H   H554      1.0  0.05980  0.30139  0.22378  1.0000
  H   H555      1.0  0.05112  0.31864  0.21315  1.0000
  N   N43       1.0  0.12576  0.25696  0.36786  1.0000
  C   C574      1.0  0.12636  0.25269  0.38248  1.0000
  C   C575      1.0  0.11232  0.26307  0.36379  1.0000
  H   H556      1.0  0.32837  0.36055  0.17722  1.0000
  H   H557      1.0  0.45794  0.25342  0.11253  1.0000
  H   H558      1.0  0.16742  0.33549  0.20467  1.0000
  C   C576      1.0  0.13968  0.25517  0.35658  1.0000
  H   H559      1.0  0.13700  0.24774  0.38570  1.0000
  H   H560      1.0  0.11183  0.26646  0.35223  1.0000
  S   S210      1.0  0.24167  0.36495  0.19765  1.0000
  H   H561      1.0  0.07419  0.34659  0.33214  1.0000
  H   H562      1.0  0.12364  0.29883  0.40794  1.0000
  H   H563      1.0  0.13750  0.25740  0.34535  1.0000
  H   H564      1.0  0.14627  0.26311  0.35635  1.0000
  H   H565      1.0  0.14635  0.24364  0.35896  1.0000
  H   H566      1.0  0.32699  0.31342  0.12181  1.0000
  C   C577      1.0  0.08080  0.32963  0.24896  1.0000
  C   C578      1.0  0.12239  0.36279  0.33440  1.0000
  H   H567      1.0  0.46989  0.20459  0.14604  1.0000
  C   C579      1.0  0.41018  0.34764  0.07470  1.0000
  H   H568      1.0  0.09706  0.34387  0.31223  1.0000
  H   H569      1.0  0.06808  0.18561  0.41946  1.0000
  H   H570      1.0  0.43631  0.35556  0.06758  1.0000
  N   N44       1.0  0.09702  0.33258  0.26250  1.0000
  H   H571      1.0  0.44871  0.22668  0.15636  1.0000
  H   H572      1.0  0.27902  0.32386  0.13358  1.0000
  H   H573      1.0  0.22363  0.28177  0.05441  1.0000
  H   H574      1.0  0.12257  0.30400  0.45481  1.0000
  H   H575      1.0  0.99600  0.35648  0.20114  1.0000
  N   N45       1.0  0.20269  0.34596  0.13296  1.0000
  C   C580      1.0  0.19470  0.34021  0.12706  1.0000
  C   C581      1.0  0.20744  0.35870  0.12540  1.0000
  N   N46       1.0  0.45196  0.26473  0.13013  1.0000
  C   C582      1.0  0.20446  0.36586  0.11143  1.0000
  C   C583      1.0  0.19649  0.35996  0.10525  1.0000
  C   C584      1.0  0.20618  0.33825  0.14743  1.0000
  H   H576      1.0  0.40940  0.35836  0.06708  1.0000
  H   H577      1.0  0.21396  0.36318  0.12994  1.0000
  H   H578      1.0  0.11377  0.25084  0.40509  1.0000
  H   H579      1.0  0.39214  0.24411  0.00472  1.0000
  C   C585      1.0  0.41432  0.22394  0.03516  1.0000
  H   H580      1.0  0.46636  0.27955  0.11987  1.0000
  C   C586      1.0  0.00022  0.30857  0.24116  1.0000
  S   S211      1.0  0.99736  0.20414  0.40040  1.0000
  C   C587      1.0  0.18206  0.22580  0.44984  1.0000
  C   C588      1.0  0.11047  0.33703  0.26257  1.0000
  C   C589      1.0  0.32636  0.25898  0.04198  1.0000
  C   C590      1.0  0.24872  0.30356  0.99859  1.0000
  H   H581      1.0  0.21405  0.37676  0.21560  1.0000
  C   C591      1.0  0.08379  0.35582  0.34431  1.0000
  H   H582      1.0  0.11923  0.37303  0.33871  1.0000
  C   C592      1.0  0.37256  0.24206  0.98021  1.0000
  H   H583      1.0  0.12188  0.25375  0.47198  1.0000
  C   C593      1.0  0.07139  0.32444  0.26222  1.0000
  H   H584      1.0  0.30621  0.32238  0.99472  1.0000
  S   S212      1.0  0.00929  0.19284  0.36904  1.0000
  H   H585      1.0  0.19882  0.37599  0.99231  1.0000
  C   C594      1.0  0.44802  0.26356  0.14511  1.0000
  H   H586      1.0  0.14297  0.20946  0.46436  1.0000
  Fe  Fe105     1.0  0.00248  0.30356  0.30668  1.0000
  C   C595      1.0  0.18486  0.32093  0.26374  1.0000
  S   S213      1.0  0.43123  0.21510  0.99298  1.0000
  C   C596      1.0  0.24063  0.29301  0.03990  1.0000
  H   H587      1.0  0.21313  0.34377  0.15075  1.0000
  S   S214      1.0  0.15350  0.24273  0.47511  1.0000
  H   H588      1.0  0.18521  0.34253  0.10841  1.0000
  H   H589      1.0  0.17452  0.31572  0.30111  1.0000
  C   C597      1.0  0.45483  0.27875  0.12030  1.0000
  N   N47       1.0  0.10909  0.35856  0.33358  1.0000
  C   C598      1.0  0.19407  0.35599  0.97828  1.0000
  C   C599      1.0  0.17356  0.34375  0.98469  1.0000
  H   H590      1.0  0.21380  0.28010  0.03369  1.0000
  C   C600      1.0  0.11327  0.25444  0.39348  1.0000
  S   S215      1.0  0.99751  0.32508  0.29036  1.0000
  H   H591      1.0  0.41123  0.31062  0.10348  1.0000
  H   H592      1.0  0.39115  0.32004  0.08922  1.0000
  C   C601      1.0  0.44934  0.23742  0.14900  1.0000
  N   N48       1.0  0.24150  0.29787  0.01391  1.0000
  N   N49       1.0  0.19163  0.35696  0.99267  1.0000
  H   H593      1.0  0.25850  0.32029  0.07942  1.0000
  H   H594      1.0  0.31251  0.35803  0.12994  1.0000
  C   C602      1.0  0.31620  0.29518  0.12693  1.0000
  C   C603      1.0  0.31642  0.31001  0.12491  1.0000
  H   H595      1.0  0.28667  0.31995  0.09686  1.0000
  C   C604      1.0  0.32150  0.27728  0.01518  1.0000
  C   C605      1.0  0.12348  0.31084  0.40525  1.0000
  C   C606      1.0  0.09949  0.26036  0.38942  1.0000
  N   N50       1.0  0.04712  0.24391  0.34207  1.0000
  C   C607      1.0  0.03707  0.23637  0.34173  1.0000
  C   C608      1.0  0.04948  0.25632  0.33140  1.0000
  C   C609      1.0  0.02895  0.24134  0.33058  1.0000
  C   C610      1.0  0.04134  0.26175  0.32027  1.0000
  C   C611      1.0  0.03096  0.25423  0.31991  1.0000
  C   C612      1.0  0.05593  0.23840  0.35351  1.0000
  H   H596      1.0  0.03510  0.22656  0.35019  1.0000
  H   H597      1.0  0.05761  0.26219  0.33154  1.0000
  H   H598      1.0  0.02079  0.23548  0.33051  1.0000
  H   H599      1.0  0.04286  0.27189  0.31214  1.0000
  H   H600      1.0  0.02432  0.25852  0.31153  1.0000
  H   H601      1.0  0.06736  0.23247  0.34887  1.0000
  H   H602      1.0  0.05701  0.24775  0.35745  1.0000
  H   H603      1.0  0.05067  0.23077  0.36329  1.0000
  H   H604      1.0  0.00887  0.24097  0.43600  1.0000
  S   S216      1.0  0.27505  0.36817  0.16412  1.0000
  C   C613      1.0  0.15363  0.33997  0.18889  1.0000
  H   H605      1.0  0.12315  0.29495  0.43316  1.0000
  C   C614      1.0  0.22027  0.37985  0.24117  1.0000
  H   H606      1.0  0.30269  0.26753  0.01874  1.0000
  H   H607      1.0  0.09645  0.36430  0.35398  1.0000
  H   H608      1.0  0.45396  0.27956  0.10885  1.0000
  H   H609      1.0  0.26762  0.31908  0.09997  1.0000
  S   S217      1.0  0.00020  0.30568  0.17288  1.0000
  H   H610      1.0  0.30311  0.33192  0.12571  1.0000
  C   C615      1.0  0.13835  0.36475  0.18473  1.0000
  H   H611      1.0  0.26949  0.29852  0.14987  1.0000
  H   H612      1.0  0.13390  0.31272  0.39696  1.0000
  C   C616      1.0  0.41261  0.23926  0.03005  1.0000
  H   H613      1.0  0.34478  0.26917  0.03819  1.0000
  C   C617      1.0  0.07477  0.32360  0.27563  1.0000
  C   C618      1.0  0.34289  0.28802  0.01230  1.0000
  C   C619      1.0  0.08766  0.32783  0.27556  1.0000
  C   C620      1.0  0.40451  0.24660  0.01911  1.0000
  H   H614      1.0  0.19452  0.36514  0.09422  1.0000
  C   C621      1.0  0.48506  0.23761  0.09893  1.0000
  C   C622      1.0  0.09899  0.26469  0.37448  1.0000
  H   H615      1.0  0.07391  0.35690  0.35318  1.0000
  C   C623      1.0  0.16334  0.30991  0.27358  1.0000
  C   C624      1.0  0.48381  0.21239  0.11204  1.0000
  S   S218      1.0  0.18301  0.30446  0.99692  1.0000
  C   C625      1.0  0.41104  0.32085  0.09514  1.0000
  H   H616      1.0  0.15471  0.30588  0.27164  1.0000
  C   C626      1.0  0.41034  0.20003  0.03471  1.0000
  C   C627      1.0  0.30298  0.32042  0.12707  1.0000
  C   C628      1.0  0.22865  0.28623  0.04301  1.0000
  H   H617      1.0  0.15755  0.19616  0.45557  1.0000
  H   H618      1.0  0.49274  0.22686  0.11906  1.0000
  H   H619      1.0  0.41759  0.24534  0.03458  1.0000
  C   C629      1.0  0.43286  0.35067  0.07954  1.0000
  H   H620      1.0  0.19340  0.32556  0.28002  1.0000
  S   S219      1.0  0.12568  0.19606  0.41971  1.0000
  H   H621      1.0  0.19290  0.32550  0.25435  1.0000
  H   H622      1.0  0.30706  0.25106  0.04288  1.0000
  C   C630      1.0  0.05948  0.18965  0.41311  1.0000
  H   H623      1.0  0.14645  0.29769  0.29746  1.0000
  H   H624      1.0  0.32664  0.28707  0.12513  1.0000
  N   N51       1.0  0.27733  0.32895  0.07781  1.0000
  H   H625      1.0  0.12233  0.33829  0.40600  1.0000
  H   H626      1.0  0.14398  0.31432  0.30378  1.0000
  C   C631      1.0  0.15234  0.30463  0.30026  1.0000
  H   H627      1.0  0.13865  0.34783  0.17389  1.0000
  N   N52       1.0  0.37740  0.23683  0.10237  1.0000
  C   C632      1.0  0.36466  0.23234  0.10350  1.0000
  C   C633      1.0  0.39039  0.22661  0.10419  1.0000
  C   C634      1.0  0.36482  0.21727  0.10612  1.0000
  C   C635      1.0  0.39090  0.21144  0.10693  1.0000
  C   C636      1.0  0.37805  0.20678  0.10781  1.0000
  C   C637      1.0  0.37697  0.25266  0.09978  1.0000
  H   H628      1.0  0.35440  0.24043  0.10192  1.0000
  H   H629      1.0  0.40055  0.23014  0.10316  1.0000
  H   H630      1.0  0.35480  0.21380  0.10659  1.0000
  H   H631      1.0  0.40120  0.20330  0.10819  1.0000
  H   H632      1.0  0.37846  0.19504  0.10970  1.0000
  H   H633      1.0  0.37399  0.25610  0.11048  1.0000
  H   H634      1.0  0.38796  0.25522  0.09343  1.0000
  H   H635      1.0  0.36859  0.25951  0.09314  1.0000
  N   N53       1.0  0.13587  0.30398  0.11862  1.0000
  C   C638      1.0  0.12130  0.31138  0.11888  1.0000
  C   C639      1.0  0.14056  0.29714  0.13154  1.0000
  C   C640      1.0  0.11101  0.31212  0.13234  1.0000
  C   C641      1.0  0.13057  0.29772  0.14519  1.0000
  C   C642      1.0  0.11570  0.30517  0.14552  1.0000
  C   C643      1.0  0.14626  0.30282  0.10437  1.0000
  H   H636      1.0  0.11758  0.31680  0.10865  1.0000
  H   H637      1.0  0.15214  0.29147  0.13137  1.0000
  H   H638      1.0  0.09944  0.31805  0.13265  1.0000
  H   H639      1.0  0.13438  0.29268  0.15544  1.0000
  H   H640      1.0  0.10779  0.30561  0.15596  1.0000
  H   H641      1.0  0.14469  0.29388  0.10019  1.0000
  H   H642      1.0  0.14445  0.31347  0.09612  1.0000
  H   H643      1.0  0.15810  0.30044  0.10532  1.0000
  N   N54       1.0  0.40842  0.21610  0.02928  1.0000
  C   C644      1.0  0.40030  0.22323  0.01866  1.0000
  H   H644      1.0  0.44306  0.34367  0.08344  1.0000
  C   C645      1.0  0.39827  0.23857  0.01338  1.0000
  H   H645      1.0  0.13000  0.36496  0.32334  1.0000
  C   C646      1.0  0.45468  0.18507  0.02931  1.0000
  S   S220      1.0  0.00789  0.31587  0.25130  1.0000
  C   C647      1.0  0.31195  0.26772  0.02309  1.0000
  C   C648      1.0  0.09686  0.34838  0.32140  1.0000
  H   H646      1.0  0.17724  0.20435  0.45999  1.0000
  C   C649      1.0  0.45449  0.25257  0.12438  1.0000
  C   C650      1.0  0.31439  0.25853  0.03660  1.0000
  H   H647      1.0  0.27209  0.33665  0.09755  1.0000
  H   H648      1.0  0.00316  0.26120  0.34406  1.0000
  H   H649      1.0  0.16241  0.34017  0.00768  1.0000
  S   S221      1.0  0.24322  0.36666  0.15720  1.0000
  C   C651      1.0  0.11096  0.22031  0.46606  1.0000
  H   H650      1.0  0.32843  0.25183  0.05245  1.0000
  H   H651      1.0  0.39577  0.21701  0.01387  1.0000
  C   C652      1.0  0.12189  0.33623  0.42885  1.0000
  H   H652      1.0  0.21274  0.32679  0.14704  1.0000
  C   C653      1.0  0.27583  0.32605  0.09384  1.0000
  H   H653      1.0  0.22565  0.29009  0.00788  1.0000
  C   C654      1.0  0.28019  0.33511  0.04737  1.0000
  N   N55       1.0  0.00555  0.20209  0.43553  1.0000
  C   C655      1.0  0.29014  0.33870  0.05325  1.0000
  Fe  Fe106     1.0  0.99748  0.31069  0.27560  1.0000
  H   H654      1.0  0.06157  0.32097  0.26210  1.0000
  H   H655      1.0  0.04183  0.31201  0.23177  1.0000
  H   H656      1.0  0.27614  0.28505  0.13835  1.0000
  H   H657      1.0  0.48591  0.22080  0.14595  1.0000
  C   C656      1.0  0.26883  0.32837  0.05684  1.0000
  C   C657      1.0  0.09361  0.33374  0.24930  1.0000
  N   N56       1.0  0.12248  0.31619  0.41836  1.0000
  C   C658      1.0  0.45321  0.23875  0.13370  1.0000
  C   C659      1.0  0.28851  0.33557  0.06859  1.0000
  H   H658      1.0  0.15734  0.29788  0.30981  1.0000
  C   C660      1.0  0.44664  0.24991  0.15476  1.0000
  C   C661      1.0  0.00258  0.31359  0.22580  1.0000
  C   C662      1.0  0.26749  0.32540  0.07215  1.0000
  C   C663      1.0  0.14319  0.35061  0.18164  1.0000
  C   C664      1.0  0.22321  0.28522  0.03141  1.0000
  H   H659      1.0  0.18797  0.38219  0.34703  1.0000
  H   H660      1.0  0.11430  0.33162  0.27307  1.0000
  H   H661      1.0  0.02032  0.27898  0.20335  1.0000
  H   H662      1.0  0.26737  0.30362  0.13098  1.0000
  H   H663      1.0  0.19572  0.33781  0.15607  1.0000
  C   C665      1.0  0.15925  0.34363  0.19897  1.0000
  H   H664      1.0  0.15868  0.36063  0.20957  1.0000
  H   H665      1.0  0.14412  0.20900  0.44553  1.0000
  H   H666      1.0  0.10818  0.34927  0.26107  1.0000
  H   H667      1.0  0.30236  0.27943  0.13265  1.0000
  H   H668      1.0  0.12235  0.34768  0.42738  1.0000
  C   C666      1.0  0.27491  0.29681  0.13850  1.0000
  H   H669      1.0  0.44646  0.27310  0.14968  1.0000
  N   N57       1.0  0.33296  0.27794  0.02071  1.0000
  C   C667      1.0  0.33558  0.26882  0.03385  1.0000
  C   C668      1.0  0.44447  0.18808  0.00798  1.0000
  C   C669      1.0  0.00437  0.18724  0.43562  1.0000
  H   H670      1.0  0.19094  0.33011  0.13304  1.0000
  H   H671      1.0  0.00918  0.32184  0.22024  1.0000
  S   S222      1.0  0.11394  0.38293  0.24594  1.0000
  H   H672      1.0  0.20811  0.38107  0.24205  1.0000
  H   H673      1.0  0.42832  0.35969  0.08571  1.0000
  H   H674      1.0  0.03170  0.22095  0.43241  1.0000
  H   H675      1.0  0.42071  0.21834  0.04361  1.0000
  C   C670      1.0  0.31570  0.36861  0.12607  1.0000
  H   H676      1.0  0.24282  0.38117  0.21709  1.0000
  Fe  Fe107     1.0  0.49007  0.27100  0.14120  1.0000
  S   S223      1.0  0.41161  0.18806  0.98518  1.0000
  H   H677      1.0  0.21327  0.35909  0.99246  1.0000
  Fe  Fe108     1.0  0.01114  0.18371  0.39268  1.0000
  C   C671      1.0  0.20131  0.36385  0.99679  1.0000
  S   S224      1.0  0.39739  0.36863  0.13970  1.0000
  C   C672      1.0  0.48732  0.20975  0.15263  1.0000
  Fe  Fe109     1.0  0.29943  0.29852  0.98267  1.0000
  C   C673      1.0  0.33024  0.36944  0.11827  1.0000
  H   H678      1.0  0.99875  0.31156  0.20562  1.0000
  C   C674      1.0  0.00792  0.23004  0.43596  1.0000
  C   C675      1.0  0.04156  0.18475  0.40246  1.0000
  H   H679      1.0  0.17846  0.35213  0.01459  1.0000
  C   C676      1.0  0.33411  0.38318  0.11304  1.0000
  H   H680      1.0  0.25929  0.29558  0.99522  1.0000
  S   S225      1.0  0.30705  0.27424  0.98293  1.0000
  H   H681      1.0  0.13851  0.38282  0.20940  1.0000
  C   C677      1.0  0.13873  0.38310  0.19774  1.0000
  S   S226      1.0  0.36711  0.37612  0.12659  1.0000
  S   S227      1.0  0.35034  0.26689  0.98244  1.0000
  H   H682      1.0  0.12993  0.37283  0.17931  1.0000
  H   H683      1.0  0.99548  0.30079  0.35298  1.0000
  Fe  Fe110     1.0  0.16451  0.38359  0.25250  1.0000
  Fe  Fe111     1.0  0.42825  0.20246  0.97819  1.0000
  H   H684      1.0  0.04651  0.22026  0.74080  1.0000
  H   H685      1.0  0.49045  0.30506  0.87486  1.0000
  H   H686      1.0  0.16193  0.21874  0.54025  1.0000
  H   H687      1.0  0.01981  0.26978  0.71534  1.0000
  C   C678      1.0  0.26076  0.26250  0.93791  1.0000
  C   C679      1.0  0.22614  0.36849  0.70309  1.0000
  H   H688      1.0  0.03195  0.19363  0.72021  1.0000
  H   H689      1.0  0.28864  0.29966  0.89552  1.0000
  C   C680      1.0  0.16374  0.20539  0.49177  1.0000
  Fe  Fe112     1.0  0.01853  0.24504  0.74818  1.0000
  S   S228      1.0  0.04037  0.25163  0.73725  1.0000
  H   H690      1.0  0.01903  0.27891  0.73928  1.0000
  S   S229      1.0  0.00115  0.26555  0.86804  1.0000
  S   S230      1.0  0.01455  0.29507  0.85206  1.0000
  S   S231      1.0  0.00244  0.28530  0.82424  1.0000
  C   C681      1.0  0.15144  0.21144  0.68516  1.0000
  S   S232      1.0  0.99764  0.29074  0.88703  1.0000
  C   C682      1.0  0.15047  0.19674  0.68742  1.0000
  C   C683      1.0  0.15022  0.20834  0.71072  1.0000
  H   H691      1.0  0.25518  0.35883  0.84694  1.0000
  Fe  Fe113     1.0  0.01593  0.27747  0.87250  1.0000
  S   S233      1.0  0.03852  0.26471  0.87675  1.0000
  S   S234      1.0  0.29663  0.26820  0.94804  1.0000
  Fe  Fe114     1.0  0.40446  0.37511  0.91204  1.0000
  C   C684      1.0  0.13917  0.20763  0.53123  1.0000
  Fe  Fe115     1.0  0.28031  0.35112  0.87813  1.0000
  S   S235      1.0  0.29669  0.35031  0.85651  1.0000
  S   S236      1.0  0.26960  0.33188  0.88950  1.0000
  S   S237      1.0  0.00527  0.24120  0.73438  1.0000
  S   S238      1.0  0.33464  0.34621  0.86738  1.0000
  C   C685      1.0  0.46820  0.21012  0.92666  1.0000
  H   H692      1.0  0.13142  0.20800  0.82848  1.0000
  H   H693      1.0  0.01581  0.31292  0.80366  1.0000
  Fe  Fe116     1.0  0.30401  0.28128  0.95952  1.0000
  S   S239      1.0  0.29448  0.30525  0.95991  1.0000
  C   C686      1.0  0.02970  0.18605  0.67536  1.0000
  S   S240      1.0  0.19014  0.28748  0.96269  1.0000
  H   H694      1.0  0.23784  0.38361  0.84644  1.0000
  H   H695      1.0  0.26809  0.28799  0.95863  1.0000
  N   N58       1.0  0.15111  0.21711  0.69677  1.0000
  Fe  Fe117     1.0  0.31849  0.30729  0.95208  1.0000
  C   C687      1.0  0.46507  0.24425  0.88367  1.0000
  H   H696      1.0  0.08887  0.19404  0.74827  1.0000
  S   S241      1.0  0.32771  0.28380  0.95009  1.0000
  C   C688      1.0  0.22452  0.36321  0.69165  1.0000
  H   H697      1.0  0.17582  0.23567  0.58995  1.0000
  C   C689      1.0  0.35348  0.31399  0.94195  1.0000
  H   H698      1.0  0.39064  0.22300  0.97753  1.0000
  S   S242      1.0  0.17217  0.26127  0.48363  1.0000
  H   H699      1.0  0.01739  0.24799  0.89718  1.0000
  H   H700      1.0  0.05609  0.19033  0.69017  1.0000
  H   H701      1.0  0.27261  0.37758  0.77319  1.0000
  H   H702      1.0  0.12091  0.19391  0.75057  1.0000
  C   C690      1.0  0.41016  0.38260  0.84727  1.0000
  H   H703      1.0  0.34819  0.33916  0.91024  1.0000
  S   S243      1.0  0.42130  0.21516  0.95700  1.0000
  H   H704      1.0  0.14367  0.31478  0.77149  1.0000
  C   C691      1.0  0.47389  0.23768  0.85990  1.0000
  Fe  Fe118     1.0  0.19122  0.33509  0.69996  1.0000
  S   S244      1.0  0.17128  0.35408  0.70028  1.0000
  S   S245      1.0  0.20483  0.32675  0.71751  1.0000
  Fe  Fe119     1.0  0.18856  0.32948  0.67116  1.0000
  S   S246      1.0  0.16873  0.34843  0.66888  1.0000
  S   S247      1.0  0.19794  0.31240  0.65709  1.0000
  Fe  Fe120     1.0  0.18125  0.36082  0.67609  1.0000
  S   S248      1.0  0.37764  0.38245  0.87328  1.0000
  Fe  Fe121     1.0  0.16084  0.33997  0.69317  1.0000
  S   S249      1.0  0.13714  0.33777  0.70272  1.0000
  S   S250      1.0  0.20198  0.34263  0.67614  1.0000
  S   S251      1.0  0.17980  0.32019  0.69506  1.0000
  Fe  Fe122     1.0  0.16405  0.27739  0.61450  1.0000
  S   S252      1.0  0.14070  0.27352  0.62059  1.0000
  S   S253      1.0  0.16669  0.30030  0.61349  1.0000
  Fe  Fe123     1.0  0.17830  0.24529  0.61299  1.0000
  S   S254      1.0  0.15626  0.23886  0.62022  1.0000
  Fe  Fe124     1.0  0.14912  0.25939  0.60362  1.0000
  S   S255      1.0  0.13726  0.25412  0.58908  1.0000
  Fe  Fe125     1.0  0.15031  0.25346  0.63622  1.0000
  S   S256      1.0  0.13921  0.24733  0.66013  1.0000
  S   S257      1.0  0.17157  0.26538  0.59576  1.0000
  S   S258      1.0  0.17326  0.25773  0.63087  1.0000
  H   H705      1.0  0.19425  0.28772  0.59237  1.0000
  C   C692      1.0  0.10332  0.22364  0.66278  1.0000
  Fe  Fe126     1.0  0.12074  0.27417  0.76468  1.0000
  S   S259      1.0  0.13509  0.28981  0.76267  1.0000
  S   S260      1.0  0.10514  0.26743  0.78618  1.0000
  Fe  Fe127     1.0  0.21377  0.33396  0.79802  1.0000
  S   S261      1.0  0.23236  0.33976  0.77886  1.0000
  S   S262      1.0  0.20872  0.31122  0.80518  1.0000
  Fe  Fe128     1.0  0.20547  0.36425  0.80524  1.0000
  S   S263      1.0  0.22298  0.37306  0.78649  1.0000
  S   S264      1.0  0.48490  0.18707  0.86417  1.0000
  Fe  Fe129     1.0  0.21609  0.36124  0.77333  1.0000
  S   S265      1.0  0.21029  0.37183  0.75116  1.0000
  Fe  Fe130     1.0  0.23770  0.35090  0.79374  1.0000
  S   S266      1.0  0.26136  0.34732  0.79596  1.0000
  S   S267      1.0  0.19710  0.35469  0.79142  1.0000
  S   S268      1.0  0.22063  0.34298  0.81350  1.0000
  Fe  Fe131     1.0  0.13999  0.28472  0.87222  1.0000
  S   S269      1.0  0.12582  0.30536  0.86099  1.0000
  S   S270      1.0  0.15983  0.28510  0.88078  1.0000
  Fe  Fe132     1.0  0.12894  0.26483  0.85940  1.0000
  S   S271      1.0  0.11438  0.28395  0.84706  1.0000
  S   S272      1.0  0.13230  0.24115  0.85790  1.0000
  Fe  Fe133     1.0  0.13348  0.29513  0.84128  1.0000
  S   S273      1.0  0.14084  0.30857  0.81851  1.0000
  Fe  Fe134     1.0  0.10791  0.29222  0.86793  1.0000
  S   S274      1.0  0.08356  0.30287  0.87480  1.0000
  S   S275      1.0  0.14869  0.27531  0.85184  1.0000
  S   S276      1.0  0.12138  0.27225  0.88095  1.0000
  Fe  Fe135     1.0  0.19953  0.32519  0.94215  1.0000
  S   S277      1.0  0.20041  0.30826  0.92983  1.0000
  S   S278      1.0  0.20634  0.34685  0.93137  1.0000
  H   H706      1.0  0.03788  0.19761  0.74309  1.0000
  C   C693      1.0  0.00417  0.26711  0.92459  1.0000
  Fe  Fe136     1.0  0.21162  0.29239  0.94756  1.0000
  C   C694      1.0  0.13438  0.37554  0.70305  1.0000
  Fe  Fe137     1.0  0.17892  0.30484  0.94577  1.0000
  S   S279      1.0  0.15854  0.30184  0.94017  1.0000
  S   S280      1.0  0.23089  0.27405  0.94112  1.0000
  S   S281      1.0  0.17696  0.32331  0.95664  1.0000
  Fe  Fe138     1.0  0.15310  0.26366  0.50349  1.0000
  C   C695      1.0  0.49176  0.21778  0.91578  1.0000
  S   S282      1.0  0.15590  0.27558  0.51932  1.0000
  C   C696      1.0  0.19072  0.23323  0.51745  1.0000
  S   S283      1.0  0.15235  0.23965  0.51010  1.0000
  H   H707      1.0  0.35359  0.22718  0.95848  1.0000
  C   C697      1.0  0.11779  0.24520  0.82087  1.0000
  S   S284      1.0  0.06524  0.27286  0.78000  1.0000
  C   C698      1.0  0.15875  0.29169  0.89646  1.0000
  C   C699      1.0  0.17197  0.29331  0.89895  1.0000
  C   C700      1.0  0.17194  0.29712  0.91200  1.0000
  C   C701      1.0  0.15867  0.29930  0.92268  1.0000
  C   C702      1.0  0.14536  0.29820  0.91995  1.0000
  C   C703      1.0  0.14538  0.29441  0.90688  1.0000
  H   H708      1.0  0.18237  0.29122  0.89095  1.0000
  H   H709      1.0  0.18226  0.29791  0.91399  1.0000
  H   H710      1.0  0.13503  0.29992  0.92815  1.0000
  H   H711      1.0  0.13512  0.29323  0.90506  1.0000
  C   C704      1.0  0.18989  0.31053  0.80836  1.0000
  C   C705      1.0  0.17933  0.32283  0.80314  1.0000
  C   C706      1.0  0.16427  0.32216  0.80623  1.0000
  C   C707      1.0  0.15971  0.30918  0.81463  1.0000
  C   C708      1.0  0.17034  0.29670  0.81943  1.0000
  C   C709      1.0  0.18542  0.29735  0.81623  1.0000
  H   H712      1.0  0.18271  0.33281  0.79656  1.0000
  H   H713      1.0  0.15612  0.33174  0.80222  1.0000
  H   H714      1.0  0.16703  0.28646  0.82536  1.0000
  H   H715      1.0  0.19361  0.28769  0.82001  1.0000
  C   C710      1.0  0.11898  0.24103  0.64884  1.0000
  C   C711      1.0  0.11996  0.24852  0.83330  1.0000
  H   H716      1.0  0.15420  0.23535  0.70327  1.0000
  H   H717      1.0  0.11692  0.25982  0.83451  1.0000
  H   H718      1.0  0.11307  0.25402  0.81271  1.0000
  C   C712      1.0  0.14288  0.25985  0.56971  1.0000
  C   C713      1.0  0.15073  0.27116  0.56338  1.0000
  C   C714      1.0  0.15458  0.27590  0.54791  1.0000
  C   C715      1.0  0.15082  0.26924  0.53867  1.0000
  C   C716      1.0  0.14324  0.25772  0.54499  1.0000
  C   C717      1.0  0.13918  0.25312  0.56047  1.0000
  H   H719      1.0  0.15347  0.27653  0.57040  1.0000
  H   H720      1.0  0.16036  0.28488  0.54309  1.0000
  H   H721      1.0  0.14011  0.25268  0.53795  1.0000
  H   H722      1.0  0.13298  0.24447  0.56533  1.0000
  C   C718      1.0  0.12457  0.23919  0.66133  1.0000
  C   C719      1.0  0.38105  0.24401  0.93368  1.0000
  C   C720      1.0  0.11901  0.23015  0.67469  1.0000
  H   H723      1.0  0.12306  0.24823  0.63854  1.0000
  H   H724      1.0  0.12300  0.22897  0.68444  1.0000
  S   S285      1.0  0.10456  0.27623  0.75087  1.0000
  C   C721      1.0  0.13625  0.32489  0.71966  1.0000
  C   C722      1.0  0.14851  0.32002  0.72638  1.0000
  C   C723      1.0  0.14812  0.30913  0.73952  1.0000
  C   C724      1.0  0.13539  0.30326  0.74611  1.0000
  C   C725      1.0  0.12303  0.30828  0.73951  1.0000
  C   C726      1.0  0.12346  0.31910  0.72627  1.0000
  H   H725      1.0  0.15832  0.32461  0.72150  1.0000
  H   H726      1.0  0.15782  0.30504  0.74440  1.0000
  H   H727      1.0  0.11303  0.30406  0.74473  1.0000
  H   H728      1.0  0.11391  0.32294  0.72116  1.0000
  C   C727      1.0  0.20608  0.33942  0.72684  1.0000
  C   C728      1.0  0.19633  0.35335  0.72619  1.0000
  C   C729      1.0  0.19736  0.36306  0.73412  1.0000
  C   C730      1.0  0.20820  0.35896  0.74259  1.0000
  C   C731      1.0  0.21781  0.34497  0.74342  1.0000
  C   C732      1.0  0.21677  0.33525  0.73552  1.0000
  H   H729      1.0  0.18791  0.35660  0.71972  1.0000
  H   H730      1.0  0.18968  0.37372  0.73383  1.0000
  H   H731      1.0  0.22634  0.34179  0.74978  1.0000
  H   H732      1.0  0.22440  0.32451  0.73601  1.0000
  C   C733      1.0  0.18654  0.30904  0.64739  1.0000
  C   C734      1.0  0.18797  0.29449  0.64636  1.0000
  C   C735      1.0  0.18101  0.29161  0.63675  1.0000
  C   C736      1.0  0.17278  0.30328  0.62789  1.0000
  C   C737      1.0  0.17079  0.31781  0.62942  1.0000
  C   C738      1.0  0.17753  0.32069  0.63925  1.0000
  H   H733      1.0  0.19500  0.28545  0.65255  1.0000
  H   H734      1.0  0.18286  0.28043  0.63557  1.0000
  H   H735      1.0  0.16447  0.32692  0.62257  1.0000
  H   H736      1.0  0.17648  0.33197  0.63986  1.0000
  H   H737      1.0  0.45449  0.22861  0.90115  1.0000
  Fe  Fe139     1.0  0.09018  0.26688  0.77231  1.0000
  H   H738      1.0  0.47610  0.22752  0.94887  1.0000
  H   H739      1.0  0.03815  0.29349  0.79639  1.0000
  C   C739      1.0  0.11511  0.20045  0.72926  1.0000
  Fe  Fe140     1.0  0.31091  0.35827  0.86638  1.0000
  H   H740      1.0  0.12238  0.21915  0.75076  1.0000
  S   S286      1.0  0.44691  0.18605  0.96777  1.0000
  H   H741      1.0  0.21581  0.26235  0.91832  1.0000
  C   C740      1.0  0.10862  0.22214  0.67531  1.0000
  C   C741      1.0  0.17931  0.20278  0.48938  1.0000
  N   N59       1.0  0.06826  0.20851  0.74413  1.0000
  C   C742      1.0  0.11937  0.21730  0.74152  1.0000
  C   C743      1.0  0.03794  0.29941  0.80452  1.0000
  N   N60       1.0  0.14975  0.20376  0.53956  1.0000
  C   C744      1.0  0.02548  0.31038  0.80850  1.0000
  C   C745      1.0  0.37300  0.22360  0.96735  1.0000
  C   C746      1.0  0.12939  0.21771  0.61709  1.0000
  H   H742      1.0  0.20314  0.36013  0.96998  1.0000
  Fe  Fe141     1.0  0.99820  0.28448  0.84856  1.0000
  H   H743      1.0  0.05998  0.28772  0.80780  1.0000
  H   H744      1.0  0.47441  0.26402  0.90938  1.0000
  Fe  Fe142     1.0  0.39373  0.36962  0.88790  1.0000
  C   C747      1.0  0.18173  0.22442  0.58949  1.0000
  H   H745      1.0  0.38674  0.23265  0.93313  1.0000
  N   N61       1.0  0.19101  0.23762  0.54065  1.0000
  C   C748      1.0  0.13033  0.22263  0.84217  1.0000
  H   H746      1.0  0.36147  0.33701  0.87838  1.0000
  H   H747      1.0  0.34092  0.25050  0.96704  1.0000
  C   C749      1.0  0.27797  0.27028  0.94700  1.0000
  C   C750      1.0  0.26605  0.28089  0.95285  1.0000
  C   C751      1.0  0.25146  0.28235  0.95107  1.0000
  C   C752      1.0  0.24881  0.27308  0.94361  1.0000
  C   C753      1.0  0.20659  0.36644  0.89012  1.0000
  C   C754      1.0  0.27522  0.26116  0.93954  1.0000
  C   C755      1.0  0.02539  0.31787  0.81901  1.0000
  C   C756      1.0  0.01275  0.28908  0.73357  1.0000
  H   H748      1.0  0.16925  0.22257  0.57490  1.0000
  H   H749      1.0  0.28435  0.25295  0.93500  1.0000
  H   H750      1.0  0.40227  0.34188  0.85840  1.0000
  H   H751      1.0  0.02537  0.21279  0.71184  1.0000
  C   C757      1.0  0.25475  0.37110  0.80892  1.0000
  C   C758      1.0  0.26418  0.35739  0.80715  1.0000
  C   C759      1.0  0.27685  0.35216  0.81333  1.0000
  C   C760      1.0  0.28031  0.36073  0.82095  1.0000
  H   H752      1.0  0.33334  0.37775  0.86057  1.0000
  N   N62       1.0  0.03724  0.31426  0.82568  1.0000
  H   H753      1.0  0.28416  0.34157  0.81196  1.0000
  H   H754      1.0  0.29030  0.35675  0.82539  1.0000
  C   C761      1.0  0.25285  0.33614  0.90228  1.0000
  C   C762      1.0  0.24651  0.35067  0.90404  1.0000
  C   C763      1.0  0.23232  0.35398  0.91329  1.0000
  C   C764      1.0  0.22464  0.34271  0.92093  1.0000
  C   C765      1.0  0.23139  0.32811  0.91969  1.0000
  C   C766      1.0  0.24539  0.32484  0.91029  1.0000
  H   H755      1.0  0.25235  0.35940  0.89810  1.0000
  H   H756      1.0  0.22727  0.36526  0.91441  1.0000
  H   H757      1.0  0.22578  0.31927  0.92580  1.0000
  H   H758      1.0  0.25030  0.31356  0.90909  1.0000
  H   H759      1.0  0.30362  0.31730  0.92313  1.0000
  C   C767      1.0  0.30699  0.36802  0.91589  1.0000
  H   H760      1.0  0.22587  0.29228  0.62994  1.0000
  S   S287      1.0  0.99911  0.25894  0.76089  1.0000
  H   H761      1.0  0.46399  0.25169  0.89068  1.0000
  C   C768      1.0  0.47267  0.32449  0.87725  1.0000
  C   C769      1.0  0.46917  0.29307  0.91546  1.0000
  H   H762      1.0  0.32467  0.32375  0.90261  1.0000
  S   S288      1.0  0.41930  0.35236  0.91608  1.0000
  H   H763      1.0  0.45391  0.20356  0.87858  1.0000
  C   C770      1.0  0.22293  0.37300  0.67817  1.0000
  H   H764      1.0  0.35067  0.38067  0.91782  1.0000
  C   C771      1.0  0.45329  0.30601  0.88150  1.0000
  C   C772      1.0  0.47111  0.26632  0.92062  1.0000
  C   C773      1.0  0.14353  0.21323  0.60848  1.0000
  Fe  Fe143     1.0  0.28583  0.37436  0.85003  1.0000
  C   C774      1.0  0.05098  0.27556  0.87571  1.0000
  C   C775      1.0  0.06613  0.26887  0.87533  1.0000
  C   C776      1.0  0.07624  0.27727  0.87471  1.0000
  C   C777      1.0  0.07119  0.29234  0.87480  1.0000
  C   C778      1.0  0.05604  0.29905  0.87511  1.0000
  C   C779      1.0  0.04597  0.29071  0.87542  1.0000
  H   H765      1.0  0.07006  0.25714  0.87565  1.0000
  H   H766      1.0  0.08789  0.27200  0.87455  1.0000
  H   H767      1.0  0.05209  0.31069  0.87524  1.0000
  H   H768      1.0  0.03428  0.29595  0.87578  1.0000
  C   C780      1.0  0.05410  0.20954  0.74276  1.0000
  C   C781      1.0  0.04700  0.25773  0.74919  1.0000
  C   C782      1.0  0.03830  0.25932  0.76319  1.0000
  C   C783      1.0  0.04369  0.26437  0.77257  1.0000
  C   C784      1.0  0.05797  0.26743  0.76807  1.0000
  C   C785      1.0  0.06675  0.26559  0.75416  1.0000
  C   C786      1.0  0.06120  0.26093  0.74466  1.0000
  H   H769      1.0  0.02749  0.25652  0.76688  1.0000
  H   H770      1.0  0.03693  0.26558  0.78339  1.0000
  H   H771      1.0  0.07779  0.26788  0.75061  1.0000
  H   H772      1.0  0.06802  0.25967  0.73387  1.0000
  C   C787      1.0  0.36564  0.37233  0.87188  1.0000
  H   H773      1.0  0.11106  0.23554  0.70817  1.0000
  C   C788      1.0  0.21582  0.28701  0.61509  1.0000
  S   S289      1.0  0.11858  0.23283  0.49973  1.0000
  H   H774      1.0  0.10939  0.21175  0.48959  1.0000
  C   C789      1.0  0.11312  0.22648  0.71747  1.0000
  H   H775      1.0  0.15165  0.26592  0.92909  1.0000
  H   H776      1.0  0.17579  0.26783  0.95209  1.0000
  H   H777      1.0  0.00204  0.35797  0.84085  1.0000
  H   H778      1.0  0.42603  0.30060  0.92613  1.0000
  C   C790      1.0  0.19320  0.21742  0.59716  1.0000
  H   H779      1.0  0.48126  0.29111  0.91196  1.0000
  H   H780      1.0  0.01008  0.27881  0.79579  1.0000
  C   C791      1.0  0.01699  0.19282  0.68444  1.0000
  C   C792      1.0  0.21940  0.29661  0.62142  1.0000
  H   H781      1.0  0.15679  0.21552  0.49468  1.0000
  H   H782      1.0  0.14198  0.22415  0.54696  1.0000
  C   C793      1.0  0.35861  0.24994  0.97713  1.0000
  H   H783      1.0  0.37452  0.33934  0.90874  1.0000
  S   S290      1.0  0.19795  0.22693  0.60768  1.0000
  C   C794      1.0  0.01864  0.19863  0.69547  1.0000
  Fe  Fe144     1.0  0.43851  0.19742  0.94711  1.0000
  H   H784      1.0  0.08513  0.21991  0.74282  1.0000
  C   C795      1.0  0.47748  0.22284  0.93949  1.0000
  H   H785      1.0  0.28570  0.30066  0.93346  1.0000
  H   H786      1.0  0.48218  0.20643  0.90577  1.0000
  C   C796      1.0  0.42417  0.38323  0.84849  1.0000
  H   H787      1.0  0.06658  0.22706  0.75264  1.0000
  H   H788      1.0  0.20964  0.19737  0.60233  1.0000
  H   H789      1.0  0.15294  0.20936  0.55810  1.0000
  C   C797      1.0  0.04507  0.19137  0.68840  1.0000
  Fe  Fe145     1.0  0.13601  0.24603  0.49541  1.0000
  C   C798      1.0  0.46661  0.21583  0.93897  1.0000
  N   N63       1.0  0.18520  0.31347  0.76890  1.0000
  C   C799      1.0  0.17768  0.32391  0.75904  1.0000
  C   C800      1.0  0.17820  0.30330  0.77944  1.0000
  H   H790      1.0  0.22718  0.34128  0.88757  1.0000
  C   C801      1.0  0.16315  0.30374  0.78062  1.0000
  H   H791      1.0  0.15675  0.33275  0.75188  1.0000
  C   C802      1.0  0.20090  0.31315  0.76787  1.0000
  H   H792      1.0  0.18331  0.33176  0.75050  1.0000
  H   H793      1.0  0.18415  0.29500  0.78724  1.0000
  C   C803      1.0  0.15533  0.31445  0.77075  1.0000
  H   H794      1.0  0.20282  0.18405  0.58739  1.0000
  H   H795      1.0  0.00241  0.29727  0.75353  1.0000
  H   H796      1.0  0.20213  0.32425  0.76795  1.0000
  H   H797      1.0  0.20526  0.30525  0.77737  1.0000
  H   H798      1.0  0.20792  0.30988  0.75751  1.0000
  H   H799      1.0  0.39504  0.24604  0.94660  1.0000
  H   H800      1.0  0.00767  0.27398  0.92957  1.0000
  H   H801      1.0  0.16745  0.18693  0.54748  1.0000
  C   C804      1.0  0.12671  0.23728  0.84374  1.0000
  S   S291      1.0  0.32694  0.32437  0.93264  1.0000
  N   N64       1.0  0.14683  0.29679  0.68359  1.0000
  C   C805      1.0  0.14509  0.28946  0.67414  1.0000
  C   C806      1.0  0.14062  0.29331  0.69840  1.0000
  C   C807      1.0  0.13655  0.27864  0.67939  1.0000
  C   C808      1.0  0.13208  0.28249  0.70403  1.0000
  C   C809      1.0  0.12999  0.27519  0.69443  1.0000
  C   C810      1.0  0.15602  0.30789  0.67792  1.0000
  H   H802      1.0  0.15025  0.29200  0.66243  1.0000
  H   H803      1.0  0.14220  0.29896  0.70594  1.0000
  H   H804      1.0  0.13501  0.27300  0.67182  1.0000
  H   H805      1.0  0.12710  0.27976  0.71578  1.0000
  H   H806      1.0  0.12329  0.26685  0.69867  1.0000
  H   H807      1.0  0.15510  0.31392  0.66645  1.0000
  H   H808      1.0  0.15234  0.31635  0.68473  1.0000
  H   H809      1.0  0.16795  0.30247  0.67796  1.0000
  C   C811      1.0  0.46816  0.22491  0.86601  1.0000
  N   N65       1.0  0.46119  0.22182  0.88063  1.0000
  H   H810      1.0  0.00588  0.19327  0.68324  1.0000
  C   C812      1.0  0.10807  0.23349  0.64966  1.0000
  C   C813      1.0  0.11205  0.21226  0.71748  1.0000
  H   H811      1.0  0.47976  0.23987  0.84840  1.0000
  S   S292      1.0  0.21247  0.30957  0.95857  1.0000
  C   C814      1.0  0.11698  0.22898  0.72939  1.0000
  Fe  Fe146     1.0  0.09501  0.19299  0.68247  1.0000
  C   C815      1.0  0.07300  0.22204  0.74306  1.0000
  C   C816      1.0  0.28238  0.30464  0.92263  1.0000
  C   C817      1.0  0.38273  0.27352  0.95108  1.0000
  N   N66       1.0  0.15586  0.24406  0.81429  1.0000
  C   C818      1.0  0.15269  0.25576  0.82087  1.0000
  C   C819      1.0  0.15237  0.24606  0.80094  1.0000
  C   C820      1.0  0.14529  0.26978  0.81435  1.0000
  C   C821      1.0  0.14514  0.25999  0.79404  1.0000
  C   C822      1.0  0.14142  0.27187  0.80090  1.0000
  C   C823      1.0  0.16352  0.22942  0.82133  1.0000
  H   H812      1.0  0.15531  0.25413  0.83153  1.0000
  H   H813      1.0  0.15474  0.23678  0.79575  1.0000
  H   H814      1.0  0.14225  0.27886  0.81990  1.0000
  H   H815      1.0  0.14219  0.26153  0.78358  1.0000
  H   H816      1.0  0.13543  0.28263  0.79583  1.0000
  H   H817      1.0  0.15990  0.22050  0.81893  1.0000
  H   H818      1.0  0.17581  0.22807  0.81732  1.0000
  H   H819      1.0  0.16069  0.22791  0.83359  1.0000
  H   H820      1.0  0.05912  0.30099  0.82679  1.0000
  C   C824      1.0  0.04962  0.30366  0.82169  1.0000
  H   H821      1.0  0.44125  0.27490  0.92734  1.0000
  H   H822      1.0  0.22415  0.35168  0.69339  1.0000
  C   C825      1.0  0.00478  0.27025  0.80352  1.0000
  C   C826      1.0  0.00976  0.25249  0.90634  1.0000
  C   C827      1.0  0.03693  0.32214  0.83676  1.0000
  C   C828      1.0  0.22285  0.37599  0.86687  1.0000
  N   N67       1.0  0.14405  0.18801  0.62176  1.0000
  C   C829      1.0  0.24523  0.36036  0.85565  1.0000
  H   H823      1.0  0.10930  0.21031  0.70820  1.0000
  C   C830      1.0  0.14946  0.18775  0.70161  1.0000
  H   H824      1.0  0.04224  0.33175  0.83138  1.0000
  H   H825      1.0  0.02525  0.32622  0.84260  1.0000
  H   H826      1.0  0.04290  0.31471  0.84544  1.0000
  N   N68       1.0  0.06764  0.24723  0.81870  1.0000
  C   C831      1.0  0.05349  0.25254  0.81612  1.0000
  C   C832      1.0  0.07074  0.24863  0.83118  1.0000
  C   C833      1.0  0.04200  0.25953  0.82617  1.0000
  C   C834      1.0  0.05951  0.25559  0.84145  1.0000
  C   C835      1.0  0.04505  0.26101  0.83892  1.0000
  C   C836      1.0  0.07945  0.23934  0.80845  1.0000
  H   H827      1.0  0.05100  0.25141  0.80623  1.0000
  H   H828      1.0  0.08194  0.24426  0.83330  1.0000
  H   H829      1.0  0.03077  0.26366  0.82414  1.0000
  H   H830      1.0  0.06194  0.25660  0.85142  1.0000
  H   H831      1.0  0.03620  0.26622  0.84691  1.0000
  H   H832      1.0  0.08148  0.22723  0.81317  1.0000
  H   H833      1.0  0.07646  0.24154  0.79759  1.0000
  H   H834      1.0  0.09006  0.24296  0.80637  1.0000
  S   S293      1.0  0.08418  0.19326  0.70624  1.0000
  C   C837      1.0  0.00010  0.27054  0.81855  1.0000
  C   C838      1.0  0.25851  0.37990  0.81611  1.0000
  S   S294      1.0  0.38476  0.36665  0.91226  1.0000
  C   C839      1.0  0.46878  0.30021  0.87894  1.0000
  H   H835      1.0  0.21300  0.27650  0.59176  1.0000
  H   H836      1.0  0.29302  0.37048  0.78675  1.0000
  C   C840      1.0  0.47848  0.30944  0.87692  1.0000
  Fe  Fe147     1.0  0.19002  0.30620  0.97224  1.0000
  S   S295      1.0  0.29527  0.35704  0.88858  1.0000
  H   H837      1.0  0.00615  0.25892  0.78684  1.0000
  C   C841      1.0  0.16265  0.32456  0.75980  1.0000
  H   H838      1.0  0.15197  0.21842  0.67412  1.0000
  H   H839      1.0  0.32768  0.31803  0.87826  1.0000
  C   C842      1.0  0.18555  0.20242  0.58020  1.0000
  C   C843      1.0  0.17801  0.21698  0.58094  1.0000
  C   C844      1.0  0.35173  0.24451  0.96939  1.0000
  C   C845      1.0  0.20077  0.20283  0.59641  1.0000
  H   H840      1.0  0.46644  0.31685  0.91079  1.0000
  C   C846      1.0  0.23553  0.37424  0.85540  1.0000
  N   N69       1.0  0.20695  0.29245  0.60496  1.0000
  C   C847      1.0  0.45716  0.33025  0.87997  1.0000
  C   C848      1.0  0.37604  0.32310  0.92909  1.0000
  H   H841      1.0  0.44575  0.29889  0.88312  1.0000
  C   C849      1.0  0.30503  0.31454  0.91261  1.0000
  N   N70       1.0  0.17941  0.31249  0.84497  1.0000
  C   C850      1.0  0.16415  0.31536  0.84728  1.0000
  C   C851      1.0  0.18693  0.32357  0.83792  1.0000
  C   C852      1.0  0.15606  0.32954  0.84207  1.0000
  C   C853      1.0  0.17918  0.33790  0.83268  1.0000
  C   C854      1.0  0.16366  0.34087  0.83473  1.0000
  C   C855      1.0  0.18768  0.29761  0.85066  1.0000
  H   H842      1.0  0.15819  0.30662  0.85304  1.0000
  H   H843      1.0  0.19903  0.32131  0.83605  1.0000
  H   H844      1.0  0.14399  0.33165  0.84366  1.0000
  H   H845      1.0  0.18519  0.34661  0.82698  1.0000
  H   H846      1.0  0.15757  0.35194  0.83061  1.0000
  H   H847      1.0  0.18858  0.29669  0.86212  1.0000
  H   H848      1.0  0.18182  0.28905  0.85091  1.0000
  H   H849      1.0  0.19904  0.29514  0.84351  1.0000
  N   N71       1.0  0.21984  0.36420  0.87815  1.0000
  C   C856      1.0  0.22934  0.35057  0.87848  1.0000
  C   C857      1.0  0.33282  0.36940  0.90575  1.0000
  C   C858      1.0  0.24218  0.34846  0.86727  1.0000
  S   S296      1.0  0.18819  0.37615  0.82152  1.0000
  C   C859      1.0  0.15699  0.19495  0.49024  1.0000
  H   H850      1.0  0.23284  0.38020  0.72135  1.0000
  H   H851      1.0  0.02327  0.28362  0.69867  1.0000
  H   H852      1.0  0.15012  0.19249  0.67827  1.0000
  H   H853      1.0  0.24986  0.33772  0.86775  1.0000
  H   H854      1.0  0.39605  0.36849  0.84797  1.0000
  Fe  Fe148     1.0  0.00197  0.22120  0.75251  1.0000
  C   C860      1.0  0.35293  0.37981  0.86613  1.0000
  H   H855      1.0  0.20301  0.26679  0.94320  1.0000
  H   H856      1.0  0.27779  0.29583  0.92125  1.0000
  C   C861      1.0  0.44685  0.28404  0.92390  1.0000
  H   H857      1.0  0.24231  0.29051  0.95555  1.0000
  H   H858      1.0  0.20034  0.21095  0.51438  1.0000
  C   C862      1.0  0.35372  0.33232  0.91895  1.0000
  H   H859      1.0  0.43871  0.32161  0.91793  1.0000
  H   H860      1.0  0.34369  0.36522  0.89928  1.0000
  C   C863      1.0  0.00341  0.29945  0.74168  1.0000
  N   N72       1.0  0.46215  0.28148  0.92021  1.0000
  H   H861      1.0  0.24501  0.37524  0.80410  1.0000
  H   H862      1.0  0.37838  0.35106  0.88095  1.0000
  C   C864      1.0  0.19684  0.19526  0.58805  1.0000
  C   C865      1.0  0.37977  0.22892  0.97531  1.0000
  C   C866      1.0  0.46086  0.30765  0.91476  1.0000
  H   H863      1.0  0.32277  0.35343  0.90252  1.0000
  H   H864      1.0  0.44557  0.20950  0.89570  1.0000
  H   H865      1.0  0.22118  0.36918  0.66935  1.0000
  H   H866      1.0  0.37279  0.27960  0.95797  1.0000
  H   H867      1.0  0.12378  0.22935  0.61531  1.0000
  C   C867      1.0  0.07777  0.19495  0.74684  1.0000
  H   H868      1.0  0.14496  0.19731  0.49166  1.0000
  H   H869      1.0  0.44584  0.37047  0.85223  1.0000
  H   H870      1.0  0.14884  0.22142  0.60001  1.0000
  S   S297      1.0  0.26826  0.37448  0.87095  1.0000
  C   C868      1.0  0.99539  0.31262  0.73440  1.0000
  C   C869      1.0  0.27135  0.37476  0.82203  1.0000
  H   H871      1.0  0.48145  0.26471  0.92462  1.0000
  C   C870      1.0  0.48992  0.22407  0.92772  1.0000
  H   H872      1.0  0.20670  0.20178  0.53920  1.0000
  C   C871      1.0  0.13010  0.19227  0.63013  1.0000
  C   C872      1.0  0.34312  0.37191  0.86505  1.0000
  C   C873      1.0  0.02357  0.28039  0.71059  1.0000
  C   C874      1.0  0.12227  0.23064  0.81888  1.0000
  H   H873      1.0  0.18165  0.25414  0.52374  1.0000
  S   S298      1.0  0.12010  0.24638  0.72831  1.0000
  H   H874      1.0  0.38959  0.26574  0.95883  1.0000
  C   C875      1.0  0.18660  0.24745  0.55100  1.0000
  S   S299      1.0  0.39466  0.32311  0.92822  1.0000
  N   N73       1.0  0.01395  0.29168  0.71866  1.0000
  C   C876      1.0  0.31864  0.31503  0.88739  1.0000
  H   H875      1.0  0.30943  0.30605  0.87472  1.0000
  C   C877      1.0  0.30848  0.30818  0.88542  1.0000
  C   C878      1.0  0.31694  0.31823  0.90105  1.0000
  C   C879      1.0  0.43818  0.29850  0.92325  1.0000
  H   H876      1.0  0.43997  0.34651  0.85452  1.0000
  Fe  Fe149     1.0  0.16975  0.23777  0.48935  1.0000
  C   C880      1.0  0.04918  0.19681  0.74396  1.0000
  C   C881      1.0  0.36864  0.35690  0.87642  1.0000
  C   C882      1.0  0.20143  0.21333  0.53559  1.0000
  H   H877      1.0  0.03534  0.27845  0.71157  1.0000
  S   S300      1.0  0.45012  0.34909  0.88045  1.0000
  C   C883      1.0  0.18511  0.34935  0.97407  1.0000
  S   S301      1.0  0.13282  0.25102  0.76259  1.0000
  C   C884      1.0  0.12813  0.21932  0.82980  1.0000
  H   H878      1.0  0.13883  0.23929  0.69437  1.0000
  C   C885      1.0  0.36848  0.31382  0.94095  1.0000
  C   C886      1.0  0.45607  0.20794  0.88710  1.0000
  N   N74       1.0  0.37798  0.26564  0.94285  1.0000
  C   C887      1.0  0.38565  0.25164  0.94137  1.0000
  C   C888      1.0  0.36607  0.27258  0.93634  1.0000
  C   C889      1.0  0.36108  0.26521  0.92870  1.0000
  C   C890      1.0  0.36856  0.25078  0.92750  1.0000
  H   H879      1.0  0.36019  0.28378  0.93730  1.0000
  H   H880      1.0  0.35130  0.27057  0.92401  1.0000
  H   H881      1.0  0.36456  0.24476  0.92200  1.0000
  C   C891      1.0  0.40710  0.36886  0.84866  1.0000
  S   S302      1.0  0.01710  0.22400  0.76515  1.0000
  C   C892      1.0  0.15051  0.23294  0.69441  1.0000
  Fe  Fe150     1.0  0.40038  0.34434  0.91370  1.0000
  S   S303      1.0  0.09172  0.21224  0.66340  1.0000
  N   N75       1.0  0.29521  0.30768  0.91063  1.0000
  H   H882      1.0  0.21978  0.27517  0.61867  1.0000
  S   S304      1.0  0.40768  0.34647  0.88918  1.0000
  H   H883      1.0  0.19820  0.27358  0.60809  1.0000
  H   H884      1.0  0.00722  0.30679  0.69953  1.0000
  C   C893      1.0  0.36867  0.33231  0.91803  1.0000
  H   H885      1.0  0.20449  0.35578  0.89765  1.0000
  C   C894      1.0  0.13708  0.37612  0.68795  1.0000
  C   C895      1.0  0.11856  0.20303  0.74139  1.0000
  H   H886      1.0  0.07094  0.23023  0.73273  1.0000
  C   C896      1.0  0.01425  0.26114  0.91298  1.0000
  C   C897      1.0  0.03383  0.20249  0.71008  1.0000
  C   C898      1.0  0.20177  0.30739  0.60059  1.0000
  H   H887      1.0  0.15778  0.23695  0.68362  1.0000
  C   C899      1.0  0.20515  0.31729  0.60669  1.0000
  H   H888      1.0  0.13537  0.21384  0.85029  1.0000
  C   C900      1.0  0.21394  0.31183  0.61724  1.0000
  C   C901      1.0  0.13743  0.19744  0.52437  1.0000
  H   H889      1.0  0.19440  0.31171  0.59287  1.0000
  H   H890      1.0  0.48020  0.33167  0.87550  1.0000
  H   H891      1.0  0.20047  0.32907  0.60369  1.0000
  H   H892      1.0  0.19457  0.24448  0.55839  1.0000
  H   H893      1.0  0.21606  0.31932  0.62258  1.0000
  C   C902      1.0  0.34627  0.35645  0.86931  1.0000
  C   C903      1.0  0.44528  0.31034  0.91870  1.0000
  C   C904      1.0  0.29680  0.30452  0.89726  1.0000
  N   N76       1.0  0.17351  0.26316  0.93260  1.0000
  C   C905      1.0  0.18057  0.26029  0.91894  1.0000
  C   C906      1.0  0.18140  0.26543  0.94131  1.0000
  C   C907      1.0  0.19585  0.26002  0.91352  1.0000
  C   C908      1.0  0.19673  0.26502  0.93631  1.0000
  C   C909      1.0  0.20396  0.26242  0.92230  1.0000
  C   C910      1.0  0.15756  0.26317  0.93827  1.0000
  H   H894      1.0  0.17428  0.25865  0.91196  1.0000
  C   C911      1.0  0.04386  0.18542  0.67725  1.0000
  H   H895      1.0  0.46478  0.19946  0.89232  1.0000
  H   H896      1.0  0.47670  0.25737  0.86424  1.0000
  C   C912      1.0  0.43154  0.35661  0.85234  1.0000
  H   H897      1.0  0.16167  0.19485  0.60407  1.0000
  H   H898      1.0  0.15615  0.25216  0.94529  1.0000
  H   H899      1.0  0.15202  0.27176  0.94491  1.0000
  S   S305      1.0  0.32243  0.30305  0.97484  1.0000
  C   C913      1.0  0.05016  0.29610  0.81104  1.0000
  H   H900      1.0  0.12914  0.20066  0.51764  1.0000
  S   S306      1.0  0.38260  0.20819  0.95961  1.0000
  C   C914      1.0  0.00247  0.25905  0.79839  1.0000
  C   C915      1.0  0.99649  0.35319  0.83558  1.0000
  N   N77       1.0  0.03254  0.19773  0.69743  1.0000
  H   H901      1.0  0.34768  0.30700  0.95128  1.0000
  H   H902      1.0  0.29770  0.36302  0.91728  1.0000
  C   C916      1.0  0.32102  0.36270  0.90755  1.0000
  C   C917      1.0  0.41419  0.34180  0.85283  1.0000
  C   C918      1.0  0.15172  0.21456  0.54654  1.0000
  N   N78       1.0  0.41766  0.35608  0.85140  1.0000
  H   H903      1.0  0.10365  0.23499  0.64005  1.0000
  H   H904      1.0  0.01565  0.32638  0.82200  1.0000
  H   H905      1.0  0.37408  0.30688  0.94962  1.0000
  H   H906      1.0  0.20102  0.21909  0.55560  1.0000
  C   C919      1.0  0.00629  0.30465  0.71138  1.0000
  C   C920      1.0  0.19805  0.22316  0.54490  1.0000
  C   C921      1.0  0.47224  0.24744  0.86879  1.0000
  H   H907      1.0  0.10469  0.21474  0.68545  1.0000
  S   S307      1.0  0.41258  0.37942  0.88747  1.0000
  H   H908      1.0  0.04511  0.20458  0.70851  1.0000
  H   H909      1.0  0.18789  0.23732  0.50667  1.0000
  H   H910      1.0  0.18620  0.25919  0.54503  1.0000
  C   C922      1.0  0.45971  0.23123  0.88948  1.0000
  S   S308      1.0  0.12168  0.22616  0.80259  1.0000
  H   H911      1.0  0.38921  0.28157  0.94328  1.0000
  H   H912      1.0  0.00875  0.20363  0.70266  1.0000
  C   C923      1.0  0.18727  0.24270  0.52713  1.0000
  H   H913      1.0  0.17530  0.24660  0.55796  1.0000
  S   S309      1.0  0.47546  0.28139  0.87842  1.0000
  H   H914      1.0  0.43555  0.32521  0.88432  1.0000
  S   S310      1.0  0.45454  0.20194  0.92530  1.0000
  Fe  Fe151     1.0  0.11596  0.24440  0.78325  1.0000
  H   H915      1.0  0.22719  0.36086  0.71357  1.0000
  C   C924      1.0  0.12256  0.20715  0.62792  1.0000
  H   H916      1.0  0.46956  0.21734  0.85902  1.0000
  Fe  Fe152     1.0  0.11547  0.25244  0.75034  1.0000
  H   H917      1.0  0.27337  0.31485  0.92281  1.0000
  Fe  Fe153     1.0  0.42577  0.35584  0.89137  1.0000
  H   H918      1.0  0.45692  0.21508  0.94799  1.0000
  H   H919      1.0  0.46494  0.25794  0.92828  1.0000
  C   C925      1.0  0.35905  0.34897  0.87498  1.0000
  S   S311      1.0  0.09987  0.24323  0.77076  1.0000
  C   C926      1.0  0.19775  0.21843  0.52176  1.0000
  H   H920      1.0  0.25883  0.25529  0.93218  1.0000
  H   H921      1.0  0.15750  0.29599  0.78928  1.0000
  C   C927      1.0  0.35887  0.23129  0.96461  1.0000
  C   C928      1.0  0.20298  0.28206  0.59894  1.0000
  C   C929      1.0  0.44749  0.32094  0.88216  1.0000
  C   C930      1.0  0.34599  0.32343  0.93108  1.0000
  H   H922      1.0  0.18729  0.34833  0.96269  1.0000
  Fe  Fe154     1.0  0.40610  0.19945  0.96303  1.0000
  C   C931      1.0  0.14961  0.19349  0.71330  1.0000
  S   S312      1.0  0.13489  0.27052  0.49053  1.0000
  H   H923      1.0  0.20131  0.25812  0.90254  1.0000
  C   C932      1.0  0.15072  0.19823  0.61091  1.0000
  H   H924      1.0  0.18784  0.37536  0.69498  1.0000
  C   C933      1.0  0.48083  0.21102  0.91515  1.0000
  H   H925      1.0  0.13204  0.21867  0.52972  1.0000
  C   C934      1.0  0.15897  0.18995  0.54101  1.0000
  S   S313      1.0  0.00648  0.19868  0.74764  1.0000
  H   H926      1.0  0.11149  0.21044  0.63458  1.0000
  H   H927      1.0  0.12935  0.36686  0.71101  1.0000
  H   H928      1.0  0.42108  0.33265  0.85968  1.0000
  H   H929      1.0  0.41634  0.33945  0.84171  1.0000
  H   H930      1.0  0.13418  0.36792  0.68417  1.0000
  Fe  Fe155     1.0  0.32979  0.27923  0.97352  1.0000
  S   S314      1.0  0.18123  0.19391  0.56856  1.0000
  S   S315      1.0  0.18768  0.21697  0.48897  1.0000
  C   C935      1.0  0.43497  0.37017  0.85097  1.0000
  H   H931      1.0  0.20817  0.37321  0.89693  1.0000
  H   H932      1.0  0.14944  0.21293  0.72003  1.0000
  C   C936      1.0  0.18808  0.18923  0.48627  1.0000
  H   H933      1.0  0.14839  0.18668  0.72445  1.0000
  H   H934      1.0  0.02539  0.26341  0.90894  1.0000
  C   C937      1.0  0.99688  0.31529  0.71913  1.0000
  H   H935      1.0  0.99717  0.28054  0.69018  1.0000
  H   H936      1.0  0.49325  0.19735  0.88512  1.0000
  H   H937      1.0  0.99858  0.36984  0.81524  1.0000
  Fe  Fe156     1.0  0.28492  0.38046  0.87928  1.0000
  N   N79       1.0  0.33072  0.38109  0.91202  1.0000
  Fe  Fe157     1.0  0.99645  0.23752  0.77695  1.0000
  H   H938      1.0  0.19648  0.37213  0.88552  1.0000
  C   C938      1.0  0.99536  0.24814  0.80821  1.0000
  C   C939      1.0  0.99661  0.19651  0.73583  1.0000
  C   C940      1.0  0.30494  0.37992  0.92230  1.0000
  N   N80       1.0  0.22600  0.38311  0.70123  1.0000
  C   C941      1.0  0.11594  0.23272  0.48243  1.0000
  C   C942      1.0  0.11170  0.22079  0.48031  1.0000
  C   C943      1.0  0.28664  0.38183  0.78486  1.0000
  H   H939      1.0  0.20014  0.18713  0.48441  1.0000
  H   H940      1.0  0.99615  0.20689  0.59872  1.0000
  S   S316      1.0  0.30169  0.38239  0.85770  1.0000
  H   H941      1.0  0.12468  0.18417  0.63862  1.0000
  C   C944      1.0  0.99534  0.24990  0.91136  1.0000
  Fe  Fe158     1.0  0.47613  0.55831  0.13431  1.0000
  H   H942      1.0  0.43733  0.48600  0.18148  1.0000
  S   S317      1.0  0.46883  0.54263  0.12540  1.0000
  H   H943      1.0  0.33892  0.43023  0.14884  1.0000
  H   H944      1.0  0.45263  0.49297  0.16889  1.0000
  C   C945      1.0  0.17101  0.55479  0.14763  1.0000
  N   N81       1.0  0.28101  0.54233  0.06058  1.0000
  N   N82       1.0  0.42640  0.55755  0.12333  1.0000
  H   H945      1.0  0.18187  0.55520  0.99174  1.0000
  C   C946      1.0  0.05044  0.52414  0.18700  1.0000
  H   H946      1.0  0.02425  0.51174  0.15628  1.0000
  Fe  Fe159     1.0  0.37597  0.49200  0.15164  1.0000
  S   S318      1.0  0.38275  0.48530  0.12990  1.0000
  S   S319      1.0  0.35226  0.49483  0.16481  1.0000
  Fe  Fe160     1.0  0.40682  0.49754  0.14902  1.0000
  S   S320      1.0  0.41607  0.49096  0.12717  1.0000
  S   S321      1.0  0.41890  0.50618  0.16081  1.0000
  Fe  Fe161     1.0  0.39406  0.50441  0.12191  1.0000
  S   S322      1.0  0.39147  0.52042  0.10034  1.0000
  Fe  Fe162     1.0  0.40383  0.47235  0.13746  1.0000
  S   S323      1.0  0.41487  0.44839  0.13661  1.0000
  S   S324      1.0  0.38563  0.51215  0.14308  1.0000
  S   S325      1.0  0.39630  0.47789  0.15990  1.0000
  H   H947      1.0  0.15857  0.39759  0.27821  1.0000
  Fe  Fe163     1.0  0.28978  0.46609  0.15779  1.0000
  S   S326      1.0  0.27676  0.46219  0.14372  1.0000
  S   S327      1.0  0.31462  0.45639  0.15344  1.0000
  Fe  Fe164     1.0  0.26209  0.48377  0.17496  1.0000
  S   S328      1.0  0.24696  0.48181  0.16195  1.0000
  S   S329      1.0  0.25093  0.49499  0.19396  1.0000
  Fe  Fe165     1.0  0.25944  0.45814  0.16478  1.0000
  S   S330      1.0  0.24642  0.44011  0.17385  1.0000
  Fe  Fe166     1.0  0.26555  0.48620  0.14225  1.0000
  S   S331      1.0  0.26367  0.50186  0.12028  1.0000
  S   S332      1.0  0.27360  0.45975  0.17904  1.0000
  S   S333      1.0  0.27971  0.49044  0.15503  1.0000
  S   S334      1.0  0.14029  0.55844  0.31376  1.0000
  Fe  Fe167     1.0  0.18685  0.47069  0.25439  1.0000
  S   S335      1.0  0.16331  0.46755  0.26193  1.0000
  S   S336      1.0  0.20184  0.46066  0.23556  1.0000
  Fe  Fe168     1.0  0.18384  0.48492  0.27973  1.0000
  S   S337      1.0  0.16021  0.48241  0.28986  1.0000
  S   S338      1.0  0.19736  0.49668  0.28627  1.0000
  Fe  Fe169     1.0  0.16850  0.45982  0.28445  1.0000
  S   S339      1.0  0.16248  0.43817  0.29756  1.0000
  Fe  Fe170     1.0  0.15735  0.49021  0.26639  1.0000
  S   S340      1.0  0.13764  0.50782  0.26040  1.0000
  S   S341      1.0  0.19249  0.46159  0.27665  1.0000
  S   S342      1.0  0.18038  0.49427  0.25659  1.0000
  Fe  Fe171     1.0  0.11667  0.53754  0.18826  1.0000
  S   S343      1.0  0.13235  0.51575  0.19461  1.0000
  H   H948      1.0  0.26650  0.54055  0.04807  1.0000
  Fe  Fe172     1.0  0.38748  0.38530  0.12155  1.0000
  S   S344      1.0  0.20083  0.51919  0.10291  1.0000
  Fe  Fe173     1.0  0.19073  0.56091  0.05828  1.0000
  H   H949      1.0  0.07534  0.57921  0.28533  1.0000
  C   C947      1.0  0.18636  0.53551  0.00860  1.0000
  S   S345      1.0  0.17805  0.55594  0.08201  1.0000
  H   H950      1.0  0.14015  0.56776  0.34204  1.0000
  C   C948      1.0  0.01963  0.56757  0.22313  1.0000
  H   H951      1.0  0.00794  0.56721  0.22767  1.0000
  C   C949      1.0  0.17642  0.41421  0.35911  1.0000
  Fe  Fe174     1.0  0.18236  0.57128  0.46121  1.0000
  H   H952      1.0  0.02265  0.54677  0.17039  1.0000
  C   C950      1.0  0.18334  0.55080  0.00295  1.0000
  H   H953      1.0  0.16197  0.42344  0.32857  1.0000
  Fe  Fe175     1.0  0.13770  0.49483  0.37400  1.0000
  S   S346      1.0  0.15047  0.51027  0.37577  1.0000
  S   S347      1.0  0.11996  0.50377  0.36070  1.0000
  Fe  Fe176     1.0  0.15574  0.46792  0.39144  1.0000
  S   S348      1.0  0.17044  0.48107  0.39419  1.0000
  S   S349      1.0  0.15917  0.44351  0.40171  1.0000
  Fe  Fe177     1.0  0.14910  0.49780  0.39934  1.0000
  S   S350      1.0  0.14100  0.50881  0.41887  1.0000
  Fe  Fe178     1.0  0.17039  0.49217  0.37031  1.0000
  S   S351      1.0  0.19063  0.49772  0.35323  1.0000
  S   S352      1.0  0.13429  0.48390  0.39806  1.0000
  S   S353      1.0  0.15769  0.47743  0.36718  1.0000
  H   H954      1.0  0.05020  0.56921  0.23368  1.0000
  N   N83       1.0  0.02582  0.56731  0.20856  1.0000
  S   S354      1.0  0.38128  0.41028  0.11819  1.0000
  S   S355      1.0  0.17708  0.40159  0.24810  1.0000
  S   S356      1.0  0.13456  0.40829  0.37075  1.0000
  C   C951      1.0  0.15203  0.43365  0.39346  1.0000
  C   C952      1.0  0.14360  0.44117  0.38278  1.0000
  C   C953      1.0  0.13812  0.43322  0.37612  1.0000
  C   C954      1.0  0.14106  0.41773  0.38000  1.0000
  C   C955      1.0  0.14945  0.41016  0.39073  1.0000
  C   C956      1.0  0.15490  0.41812  0.39747  1.0000
  H   H955      1.0  0.14114  0.45312  0.37978  1.0000
  H   H956      1.0  0.13160  0.43906  0.36793  1.0000
  H   H957      1.0  0.15172  0.39820  0.39386  1.0000
  H   H958      1.0  0.16137  0.41225  0.40578  1.0000
  H   H959      1.0  0.02104  0.57062  0.18734  1.0000
  C   C957      1.0  0.36593  0.41972  0.15475  1.0000
  H   H960      1.0  0.05325  0.51321  0.19387  1.0000
  C   C958      1.0  0.17214  0.52043  0.44031  1.0000
  C   C959      1.0  0.15663  0.52395  0.44541  1.0000
  C   C960      1.0  0.14723  0.52047  0.43859  1.0000
  C   C961      1.0  0.15324  0.51368  0.42647  1.0000
  C   C962      1.0  0.16875  0.51044  0.42115  1.0000
  C   C963      1.0  0.17818  0.51366  0.42817  1.0000
  H   H961      1.0  0.15187  0.52911  0.45479  1.0000
  H   H962      1.0  0.13524  0.52297  0.44279  1.0000
  H   H963      1.0  0.17349  0.50516  0.41184  1.0000
  H   H964      1.0  0.19019  0.51089  0.42419  1.0000
  H   H965      1.0  0.07155  0.52948  0.18511  1.0000
  C   C964      1.0  0.29520  0.54259  0.06079  1.0000
  C   C965      1.0  0.42231  0.54493  0.10707  1.0000
  C   C966      1.0  0.16720  0.42695  0.28458  1.0000
  C   C967      1.0  0.17722  0.43051  0.27115  1.0000
  C   C968      1.0  0.18010  0.42267  0.26012  1.0000
  C   C969      1.0  0.17331  0.41086  0.26251  1.0000
  C   C970      1.0  0.16374  0.40680  0.27619  1.0000
  C   C971      1.0  0.16062  0.41489  0.28720  1.0000
  H   H966      1.0  0.18274  0.43943  0.26912  1.0000
  H   H967      1.0  0.18745  0.42597  0.24963  1.0000
  C   C972      1.0  0.22110  0.55223  0.99371  1.0000
  H   H968      1.0  0.15286  0.41202  0.29755  1.0000
  C   C973      1.0  0.13696  0.51024  0.24184  1.0000
  C   C974      1.0  0.12646  0.52203  0.23575  1.0000
  C   C975      1.0  0.12492  0.52353  0.22137  1.0000
  C   C976      1.0  0.13418  0.51356  0.21278  1.0000
  C   C977      1.0  0.14494  0.50193  0.21873  1.0000
  C   C978      1.0  0.14634  0.50028  0.23325  1.0000
  H   H969      1.0  0.11945  0.53002  0.24215  1.0000
  H   H970      1.0  0.11645  0.53237  0.21700  1.0000
  H   H971      1.0  0.15218  0.49423  0.21210  1.0000
  H   H972      1.0  0.15461  0.49127  0.23778  1.0000
  C   C979      1.0  0.19172  0.49757  0.33471  1.0000
  C   C980      1.0  0.18086  0.49333  0.33053  1.0000
  C   C981      1.0  0.18246  0.49290  0.31567  1.0000
  C   C982      1.0  0.19483  0.49691  0.30498  1.0000
  C   C983      1.0  0.20544  0.50148  0.30912  1.0000
  C   C984      1.0  0.20394  0.50171  0.32391  1.0000
  H   H973      1.0  0.17130  0.49036  0.33870  1.0000
  H   H974      1.0  0.17416  0.48958  0.31246  1.0000
  H   H975      1.0  0.21497  0.50471  0.30089  1.0000
  H   H976      1.0  0.21234  0.50506  0.32701  1.0000
  C   C985      1.0  0.13487  0.54233  0.32517  1.0000
  C   C986      1.0  0.11986  0.54133  0.32886  1.0000
  C   C987      1.0  0.11534  0.52913  0.33934  1.0000
  C   C988      1.0  0.12582  0.51795  0.34612  1.0000
  C   C989      1.0  0.14094  0.51858  0.34181  1.0000
  C   C990      1.0  0.14546  0.53078  0.33139  1.0000
  H   H977      1.0  0.40036  0.53722  0.14142  1.0000
  H   H978      1.0  0.10364  0.52864  0.34257  1.0000
  H   H979      1.0  0.14918  0.50981  0.34671  1.0000
  H   H980      1.0  0.15710  0.53144  0.32856  1.0000
  C   C991      1.0  0.23642  0.48625  0.20486  1.0000
  C   C992      1.0  0.23590  0.47261  0.20289  1.0000
  C   C993      1.0  0.22511  0.46497  0.21227  1.0000
  C   C994      1.0  0.21461  0.47101  0.22356  1.0000
  C   C995      1.0  0.21483  0.48484  0.22536  1.0000
  C   C996      1.0  0.22580  0.49243  0.21606  1.0000
  H   H981      1.0  0.24391  0.46778  0.19425  1.0000
  H   H982      1.0  0.22505  0.45430  0.21081  1.0000
  H   H983      1.0  0.20675  0.48961  0.23402  1.0000
  H   H984      1.0  0.22610  0.50302  0.21757  1.0000
  C   C997      1.0  0.25005  0.42884  0.16127  1.0000
  C   C998      1.0  0.25600  0.43378  0.14624  1.0000
  C   C999      1.0  0.25976  0.42426  0.13650  1.0000
  C   C1000     1.0  0.25776  0.40973  0.14184  1.0000
  C   C1001     1.0  0.25128  0.40500  0.15676  1.0000
  C   C1002     1.0  0.24730  0.41458  0.16643  1.0000
  H   H985      1.0  0.25762  0.44497  0.14209  1.0000
  H   H986      1.0  0.26445  0.42809  0.12491  1.0000
  H   H987      1.0  0.32654  0.40654  0.11193  1.0000
  H   H988      1.0  0.24243  0.41077  0.17795  1.0000
  C   C1003     1.0  0.24626  0.50592  0.11548  1.0000
  C   C1004     1.0  0.24413  0.51605  0.10226  1.0000
  C   C1005     1.0  0.23025  0.51997  0.09831  1.0000
  C   C1006     1.0  0.21843  0.51366  0.10752  1.0000
  C   C1007     1.0  0.22062  0.50324  0.12059  1.0000
  C   C1008     1.0  0.23453  0.49939  0.12459  1.0000
  H   H989      1.0  0.25326  0.52082  0.09506  1.0000
  H   H990      1.0  0.22876  0.52776  0.08805  1.0000
  H   H991      1.0  0.21154  0.49824  0.12769  1.0000
  H   H992      1.0  0.23615  0.49138  0.13469  1.0000
  C   C1009     1.0  0.40549  0.43780  0.13150  1.0000
  C   C1010     1.0  0.39244  0.44439  0.12613  1.0000
  C   C1011     1.0  0.38532  0.43581  0.12190  1.0000
  C   C1012     1.0  0.39104  0.42053  0.12317  1.0000
  C   C1013     1.0  0.40401  0.41385  0.12870  1.0000
  C   C1014     1.0  0.41124  0.42249  0.13278  1.0000
  H   H993      1.0  0.38793  0.45612  0.12500  1.0000
  H   H994      1.0  0.37530  0.44106  0.11762  1.0000
  H   H995      1.0  0.40850  0.40208  0.12973  1.0000
  H   H996      1.0  0.42135  0.41730  0.13689  1.0000
  C   C1015     1.0  0.37548  0.53482  0.10236  1.0000
  C   C1016     1.0  0.36687  0.54002  0.09158  1.0000
  H   H997      1.0  0.15838  0.54472  0.41858  1.0000
  C   C1017     1.0  0.34910  0.55680  0.10623  1.0000
  C   C1018     1.0  0.35787  0.55182  0.11682  1.0000
  C   C1019     1.0  0.37104  0.54091  0.11486  1.0000
  C   C1020     1.0  0.27751  0.54326  0.04645  1.0000
  H   H998      1.0  0.35447  0.55643  0.12656  1.0000
  H   H999      1.0  0.37786  0.53749  0.12291  1.0000
  C   C1021     1.0  0.34206  0.48336  0.16254  1.0000
  C   C1022     1.0  0.34906  0.47232  0.15451  1.0000
  C   C1023     1.0  0.34058  0.46390  0.15198  1.0000
  C   C1024     1.0  0.32508  0.46646  0.15751  1.0000
  C   C1025     1.0  0.31810  0.47727  0.16583  1.0000
  C   C1026     1.0  0.32660  0.48567  0.16838  1.0000
  H   H1000     1.0  0.36100  0.47024  0.15025  1.0000
  H   H1001     1.0  0.34599  0.45564  0.14546  1.0000
  H   H1002     1.0  0.30616  0.47917  0.17026  1.0000
  H   H1003     1.0  0.32116  0.49411  0.17471  1.0000
  Fe  Fe179     1.0  0.32289  0.58049  0.08903  1.0000
  C   C1027     1.0  0.27010  0.54177  0.07330  1.0000
  C   C1028     1.0  0.16045  0.52898  0.15927  1.0000
  N   N84       1.0  0.35689  0.41178  0.15313  1.0000
  H   H1004     1.0  0.16271  0.51572  0.99092  1.0000
  C   C1029     1.0  0.17421  0.39597  0.32475  1.0000
  S   S357      1.0  0.12026  0.55690  0.19419  1.0000
  H   H1005     1.0  0.18459  0.38764  0.32168  1.0000
  S   S358      1.0  0.02434  0.51684  0.18789  1.0000
  C   C1030     1.0  0.45528  0.53223  0.13564  1.0000
  C   C1031     1.0  0.44860  0.53242  0.15047  1.0000
  C   C1032     1.0  0.43747  0.52434  0.15808  1.0000
  C   C1033     1.0  0.43283  0.51621  0.15087  1.0000
  C   C1034     1.0  0.43956  0.51598  0.13606  1.0000
  C   C1035     1.0  0.45080  0.52389  0.12852  1.0000
  H   H1006     1.0  0.45202  0.53877  0.15607  1.0000
  H   H1007     1.0  0.43237  0.52450  0.16957  1.0000
  H   H1008     1.0  0.43611  0.50971  0.13042  1.0000
  H   H1009     1.0  0.45593  0.52371  0.11704  1.0000
  N   N85       1.0  0.30930  0.39491  0.12411  1.0000
  Fe  Fe180     1.0  0.17508  0.54263  0.46147  1.0000
  H   H1010     1.0  0.37026  0.53536  0.08187  1.0000
  C   C1036     1.0  0.04623  0.56375  0.30614  1.0000
  H   H1011     1.0  0.19269  0.47343  0.44055  1.0000
  H   H1012     1.0  0.17894  0.42822  0.22143  1.0000
  C   C1037     1.0  0.03310  0.54303  0.17389  1.0000
  C   C1038     1.0  0.10478  0.58088  0.22423  1.0000
  C   C1039     1.0  0.41166  0.53881  0.11850  1.0000
  H   H1013     1.0  0.17405  0.46718  0.22425  1.0000
  H   H1014     1.0  0.11163  0.55015  0.32401  1.0000
  Fe  Fe181     1.0  0.12045  0.57456  0.30635  1.0000
  C   C1040     1.0  0.24957  0.57485  0.06428  1.0000
  H   H1015     1.0  0.44202  0.45847  0.13332  1.0000
  C   C1041     1.0  0.31134  0.55996  0.01053  1.0000
  H   H1016     1.0  0.17351  0.52266  0.13898  1.0000
  H   H1017     1.0  0.42736  0.45316  0.15906  1.0000
  H   H1018     1.0  0.21659  0.43093  0.18452  1.0000
  H   H1019     1.0  0.17833  0.52831  0.28438  1.0000
  H   H1020     1.0  0.17939  0.57234  0.00758  1.0000
  N   N86       1.0  0.22520  0.39308  0.23142  1.0000
  C   C1042     1.0  0.18190  0.56051  0.01196  1.0000
  C   C1043     1.0  0.14462  0.57654  0.13327  1.0000
  C   C1044     1.0  0.31582  0.56559  0.03166  1.0000
  H   H1021     1.0  0.14843  0.53847  0.17811  1.0000
  H   H1022     1.0  0.24940  0.39390  0.16095  1.0000
  Fe  Fe182     1.0  0.19989  0.54059  0.08595  1.0000
  C   C1045     1.0  0.22354  0.55986  0.01492  1.0000
  C   C1046     1.0  0.09093  0.57092  0.24840  1.0000
  N   N87       1.0  0.18519  0.44911  0.21348  1.0000
  C   C1047     1.0  0.18659  0.43462  0.21340  1.0000
  C   C1048     1.0  0.19489  0.45715  0.20344  1.0000
  C   C1049     1.0  0.19787  0.42784  0.20300  1.0000
  C   C1050     1.0  0.20634  0.45070  0.19295  1.0000
  C   C1051     1.0  0.20776  0.43598  0.19269  1.0000
  C   C1052     1.0  0.17292  0.45605  0.22415  1.0000
  H   H1023     1.0  0.18848  0.53538  0.04342  1.0000
  H   H1024     1.0  0.19395  0.46859  0.20361  1.0000
  C   C1053     1.0  0.07696  0.53759  0.27904  1.0000
  H   H1025     1.0  0.21414  0.45704  0.18509  1.0000
  Fe  Fe183     1.0  0.47549  0.57339  0.15819  1.0000
  H   H1026     1.0  0.16201  0.45729  0.22141  1.0000
  H   H1027     1.0  0.17290  0.44921  0.23554  1.0000
  C   C1054     1.0  0.38128  0.39719  0.16599  1.0000
  C   C1055     1.0  0.28771  0.54187  0.08696  1.0000
  H   H1028     1.0  0.31005  0.54270  0.07394  1.0000
  H   H1029     1.0  0.29028  0.54181  0.09724  1.0000
  H   H1030     1.0  0.45612  0.47452  0.18043  1.0000
  C   C1056     1.0  0.29883  0.57175  0.01029  1.0000
  H   H1031     1.0  0.19041  0.51815  0.02768  1.0000
  H   H1032     1.0  0.32974  0.54801  0.02104  1.0000
  C   C1057     1.0  0.04456  0.57183  0.28038  1.0000
  S   S359      1.0  0.26432  0.39713  0.13021  1.0000
  C   C1058     1.0  0.18812  0.52998  0.02324  1.0000
  S   S360      1.0  0.11415  0.54957  0.16514  1.0000
  H   H1033     1.0  0.06807  0.54426  0.25946  1.0000
  C   C1059     1.0  0.06080  0.53331  0.18204  1.0000
  S   S361      1.0  0.16079  0.57813  0.47644  1.0000
  S   S362      1.0  0.03463  0.57491  0.26672  1.0000
  C   C1060     1.0  0.05743  0.54718  0.17266  1.0000
  C   C1061     1.0  0.18704  0.53970  0.03216  1.0000
  S   S363      1.0  0.20890  0.55737  0.09081  1.0000
  C   C1062     1.0  0.08830  0.52826  0.28594  1.0000
  H   H1034     1.0  0.12711  0.38819  0.19618  1.0000
  H   H1035     1.0  0.30384  0.54301  0.05074  1.0000
  H   H1036     1.0  0.17481  0.56507  0.14308  1.0000
  C   C1063     1.0  0.07659  0.53652  0.26500  1.0000
  H   H1037     1.0  0.08285  0.56456  0.25521  1.0000
  H   H1038     1.0  0.31453  0.55318  0.00247  1.0000
  S   S364      1.0  0.09205  0.54155  0.19819  1.0000
  N   N88       1.0  0.13645  0.46922  0.33549  1.0000
  C   C1064     1.0  0.14083  0.45889  0.32700  1.0000
  C   C1065     1.0  0.12372  0.46941  0.34644  1.0000
  C   C1066     1.0  0.13260  0.44813  0.32964  1.0000
  C   C1067     1.0  0.11520  0.45885  0.34934  1.0000
  C   C1068     1.0  0.11979  0.44803  0.34099  1.0000
  C   C1069     1.0  0.14531  0.48035  0.33245  1.0000
  H   H1039     1.0  0.15077  0.45889  0.31813  1.0000
  H   H1040     1.0  0.12015  0.47765  0.35313  1.0000
  H   H1041     1.0  0.13614  0.43993  0.32290  1.0000
  H   H1042     1.0  0.10530  0.45884  0.35826  1.0000
  H   H1043     1.0  0.11351  0.43952  0.34340  1.0000
  H   H1044     1.0  0.14349  0.48870  0.32217  1.0000
  H   H1045     1.0  0.14219  0.48630  0.34157  1.0000
  H   H1046     1.0  0.15740  0.47501  0.33131  1.0000
  H   H1047     1.0  0.06138  0.56827  0.20727  1.0000
  Fe  Fe184     1.0  0.32002  0.57791  0.05940  1.0000
  S   S365      1.0  0.10923  0.56817  0.29240  1.0000
  H   H1048     1.0  0.02842  0.56158  0.29781  1.0000
  C   C1070     1.0  0.35363  0.55096  0.09355  1.0000
  H   H1049     1.0  0.00147  0.52802  0.14808  1.0000
  N   N89       1.0  0.22956  0.55757  0.00091  1.0000
  C   C1071     1.0  0.27329  0.54153  0.08667  1.0000
  H   H1050     1.0  0.33596  0.41290  0.14837  1.0000
  S   S366      1.0  0.28932  0.57661  0.99590  1.0000
  Fe  Fe185     1.0  0.01068  0.57913  0.27861  1.0000
  N   N90       1.0  0.44629  0.47642  0.16261  1.0000
  C   C1072     1.0  0.45445  0.47940  0.14842  1.0000
  C   C1073     1.0  0.43669  0.46709  0.16649  1.0000
  C   C1074     1.0  0.45305  0.47303  0.13767  1.0000
  C   C1075     1.0  0.43511  0.46044  0.15604  1.0000
  C   C1076     1.0  0.44336  0.46342  0.14156  1.0000
  C   C1077     1.0  0.44827  0.48272  0.17393  1.0000
  H   H1051     1.0  0.46193  0.48694  0.14530  1.0000
  H   H1052     1.0  0.16833  0.48773  0.45215  1.0000
  H   H1053     1.0  0.45931  0.47561  0.12636  1.0000
  H   H1054     1.0  0.23815  0.42825  0.20630  1.0000
  H   H1055     1.0  0.43412  0.57310  0.97861  1.0000
  C   C1078     1.0  0.09891  0.57188  0.36313  1.0000
  C   C1079     1.0  0.05786  0.57666  0.27686  1.0000
  H   H1056     1.0  0.17856  0.58154  0.40824  1.0000
  N   N91       1.0  0.25274  0.47460  0.23442  1.0000
  C   C1080     1.0  0.24830  0.48711  0.24000  1.0000
  C   C1081     1.0  0.24498  0.46356  0.24018  1.0000
  C   C1082     1.0  0.23571  0.48883  0.25158  1.0000
  C   C1083     1.0  0.23235  0.46492  0.25177  1.0000
  C   C1084     1.0  0.22774  0.47764  0.25749  1.0000
  C   C1085     1.0  0.26625  0.47266  0.22266  1.0000
  H   H1057     1.0  0.25436  0.49592  0.23535  1.0000
  H   H1058     1.0  0.24834  0.45378  0.23560  1.0000
  H   H1059     1.0  0.23205  0.49880  0.25592  1.0000
  H   H1060     1.0  0.22595  0.45635  0.25601  1.0000
  H   H1061     1.0  0.21790  0.47892  0.26638  1.0000
  H   H1062     1.0  0.27593  0.46573  0.22743  1.0000
  H   H1063     1.0  0.26460  0.46738  0.21453  1.0000
  H   H1064     1.0  0.26890  0.48349  0.21622  1.0000
  H   H1065     1.0  0.13031  0.54531  0.35577  1.0000
  C   C1086     1.0  0.01661  0.56616  0.19923  1.0000
  C   C1087     1.0  0.01162  0.53209  0.14548  1.0000
  S   S367      1.0  0.09109  0.57637  0.18097  1.0000
  C   C1088     1.0  0.23126  0.56523  0.02190  1.0000
  C   C1089     1.0  0.09545  0.38521  0.21245  1.0000
  H   H1066     1.0  0.00165  0.55387  0.13447  1.0000
  H   H1067     1.0  0.10729  0.58239  0.21232  1.0000
  C   C1090     1.0  0.25118  0.56619  0.00006  1.0000
  Fe  Fe186     1.0  0.00003  0.52731  0.18771  1.0000
  C   C1091     1.0  0.42961  0.55437  0.10968  1.0000
  S   S368      1.0  0.33249  0.57019  0.10923  1.0000
  C   C1092     1.0  0.24522  0.56833  0.01444  1.0000
  H   H1068     1.0  0.16288  0.43418  0.34873  1.0000
  H   H1069     1.0  0.38566  0.41891  0.16198  1.0000
  N   N92       1.0  0.03733  0.52813  0.14664  1.0000
  C   C1093     1.0  0.03764  0.54232  0.13883  1.0000
  C   C1094     1.0  0.02455  0.52294  0.14995  1.0000
  C   C1095     1.0  0.02482  0.55183  0.13441  1.0000
  C   C1096     1.0  0.23451  0.41840  0.21342  1.0000
  C   C1097     1.0  0.01174  0.54664  0.13775  1.0000
  C   C1098     1.0  0.05097  0.51823  0.15089  1.0000
  H   H1070     1.0  0.04776  0.54644  0.13625  1.0000
  C   C1099     1.0  0.26234  0.58038  0.05663  1.0000
  H   H1071     1.0  0.02500  0.56316  0.12848  1.0000
  H   H1072     1.0  0.18462  0.54268  0.40654  1.0000
  H   H1073     1.0  0.29091  0.41205  0.11870  1.0000
  H   H1074     1.0  0.05770  0.51251  0.14188  1.0000
  H   H1075     1.0  0.05786  0.52450  0.15327  1.0000
  H   H1076     1.0  0.04822  0.50981  0.16120  1.0000
  N   N93       1.0  0.33588  0.51411  0.13295  1.0000
  C   C1100     1.0  0.34803  0.50877  0.12286  1.0000
  C   C1101     1.0  0.32309  0.50891  0.13652  1.0000
  C   C1102     1.0  0.34780  0.49745  0.11656  1.0000
  C   C1103     1.0  0.32244  0.49763  0.13039  1.0000
  C   C1104     1.0  0.33495  0.49178  0.12047  1.0000
  C   C1105     1.0  0.33636  0.52586  0.13955  1.0000
  H   H1077     1.0  0.35807  0.51309  0.11981  1.0000
  H   H1078     1.0  0.31343  0.51316  0.14448  1.0000
  H   H1079     1.0  0.35761  0.49300  0.10886  1.0000
  H   H1080     1.0  0.31246  0.49316  0.13364  1.0000
  H   H1081     1.0  0.33468  0.48276  0.11597  1.0000
  H   H1082     1.0  0.34800  0.52533  0.14008  1.0000
  H   H1083     1.0  0.33185  0.53689  0.13296  1.0000
  H   H1084     1.0  0.32982  0.52453  0.15117  1.0000
  C   C1106     1.0  0.15601  0.53999  0.16736  1.0000
  C   C1107     1.0  0.04065  0.56744  0.20290  1.0000
  H   H1085     1.0  0.43003  0.46491  0.17766  1.0000
  H   H1086     1.0  0.16423  0.53518  0.29927  1.0000
  C   C1108     1.0  0.40837  0.54220  0.13235  1.0000
  H   H1087     1.0  0.25113  0.40354  0.20090  1.0000
  C   C1109     1.0  0.15738  0.55645  0.41726  1.0000
  C   C1110     1.0  0.06521  0.57527  0.28800  1.0000
  H   H1088     1.0  0.42496  0.54226  0.09630  1.0000
  H   H1089     1.0  0.36390  0.43163  0.15069  1.0000
  H   H1090     1.0  0.14284  0.57600  0.26602  1.0000
  H   H1091     1.0  0.04565  0.56706  0.19141  1.0000
  H   H1092     1.0  0.99600  0.52282  0.28271  1.0000
  H   H1093     1.0  0.35291  0.39027  0.15618  1.0000
  C   C1111     1.0  0.18472  0.55222  0.41080  1.0000
  H   H1094     1.0  0.28618  0.53543  0.04029  1.0000
  S   S369      1.0  0.19868  0.57940  0.06135  1.0000
  H   H1095     1.0  0.34532  0.38392  0.10667  1.0000
  H   H1096     1.0  0.08890  0.52929  0.29667  1.0000
  H   H1097     1.0  0.29073  0.40609  0.13815  1.0000
  H   H1098     1.0  0.25135  0.57245  0.01978  1.0000
  C   C1112     1.0  0.09892  0.51772  0.27890  1.0000
  H   H1099     1.0  0.15714  0.56969  0.11285  1.0000
  C   C1113     1.0  0.04336  0.56864  0.22664  1.0000
  C   C1114     1.0  0.03656  0.52898  0.18291  1.0000
  H   H1100     1.0  0.35282  0.49295  0.98693  1.0000
  S   S370      1.0  0.32701  0.56193  0.04447  1.0000
  H   H1101     1.0  0.22639  0.56700  0.03302  1.0000
  C   C1115     1.0  0.18375  0.55500  0.02656  1.0000
  S   S371      1.0  0.18225  0.56770  0.03719  1.0000
  N   N94       1.0  0.15743  0.53976  0.27883  1.0000
  C   C1116     1.0  0.15394  0.55479  0.27741  1.0000
  C   C1117     1.0  0.15345  0.53367  0.26968  1.0000
  C   C1118     1.0  0.14582  0.56410  0.26697  1.0000
  C   C1119     1.0  0.14540  0.54268  0.25906  1.0000
  C   C1120     1.0  0.14152  0.55797  0.25777  1.0000
  C   C1121     1.0  0.16620  0.53018  0.28963  1.0000
  H   H1102     1.0  0.26460  0.54111  0.09674  1.0000
  H   H1103     1.0  0.15648  0.52179  0.27055  1.0000
  C   C1122     1.0  0.29878  0.54234  0.07395  1.0000
  H   H1104     1.0  0.14222  0.53781  0.25185  1.0000
  Fe  Fe187     1.0  0.15036  0.57007  0.46322  1.0000
  C   C1123     1.0  0.12308  0.55624  0.35585  1.0000
  H   H1105     1.0  0.43641  0.56396  0.13701  1.0000
  H   H1106     1.0  0.40611  0.53131  0.11665  1.0000
  N   N95       1.0  0.15569  0.46837  0.43574  1.0000
  C   C1124     1.0  0.16903  0.46017  0.42959  1.0000
  C   C1125     1.0  0.15536  0.47799  0.44393  1.0000
  C   C1126     1.0  0.18255  0.46187  0.43119  1.0000
  C   C1127     1.0  0.16864  0.47979  0.44595  1.0000
  C   C1128     1.0  0.18232  0.47179  0.43939  1.0000
  C   C1129     1.0  0.14157  0.46661  0.43398  1.0000
  H   H1107     1.0  0.16932  0.45247  0.42314  1.0000
  H   H1108     1.0  0.14479  0.48468  0.44859  1.0000
  H   H1109     1.0  0.19311  0.45565  0.42595  1.0000
  S   S372      1.0  0.49013  0.55259  0.15128  1.0000
  H   H1110     1.0  0.19328  0.55799  0.40282  1.0000
  H   H1111     1.0  0.13414  0.47765  0.43093  1.0000
  H   H1112     1.0  0.14338  0.46067  0.42506  1.0000
  H   H1113     1.0  0.13583  0.46023  0.44445  1.0000
  H   H1114     1.0  0.24770  0.55933  0.98217  1.0000
  H   H1115     1.0  0.18027  0.54372  0.11685  1.0000
  H   H1116     1.0  0.17265  0.40458  0.31453  1.0000
  S   S373      1.0  0.18761  0.54832  0.47517  1.0000
  S   S374      1.0  0.21170  0.54393  0.06195  1.0000
  C   C1130     1.0  0.35982  0.39668  0.15774  1.0000
  H   H1117     1.0  0.16084  0.54230  0.98829  1.0000
  C   C1131     1.0  0.24310  0.56085  0.99339  1.0000
  H   H1118     1.0  0.10798  0.51052  0.28398  1.0000
  H   H1119     1.0  0.16309  0.51925  0.29406  1.0000
  H   H1120     1.0  0.09334  0.51499  0.24028  1.0000
  S   S375      1.0  0.18771  0.52322  0.99757  1.0000
  H   H1121     1.0  0.41341  0.55406  0.14544  1.0000
  H   H1122     1.0  0.21270  0.56164  0.98899  1.0000
  C   C1132     1.0  0.09407  0.57284  0.23303  1.0000
  H   H1123     1.0  0.21525  0.54378  0.00173  1.0000
  H   H1124     1.0  0.01628  0.55439  0.20075  1.0000
  C   C1133     1.0  0.21799  0.40663  0.23452  1.0000
  C   C1134     1.0  0.24180  0.40452  0.21036  1.0000
  C   C1135     1.0  0.22254  0.41950  0.22561  1.0000
  H   H1125     1.0  0.09359  0.39872  0.22747  1.0000
  N   N96       1.0  0.17526  0.40236  0.33641  1.0000
  H   H1126     1.0  0.08722  0.57293  0.36874  1.0000
  H   H1127     1.0  0.20867  0.40747  0.24396  1.0000
  H   H1128     1.0  0.34912  0.42169  0.13339  1.0000
  H   H1129     1.0  0.21678  0.43024  0.22814  1.0000
  H   H1130     1.0  0.19620  0.53847  0.12526  1.0000
  C   C1136     1.0  0.16815  0.41672  0.33691  1.0000
  H   H1131     1.0  0.30328  0.41745  0.12641  1.0000
  S   S376      1.0  0.30686  0.57187  0.08248  1.0000
  C   C1137     1.0  0.23702  0.39190  0.21955  1.0000
  N   N97       1.0  0.99909  0.54941  0.47409  1.0000
  H   H1132     1.0  0.19891  0.41636  0.20293  1.0000
  C   C1138     1.0  0.04356  0.55201  0.16863  1.0000
  H   H1133     1.0  0.29946  0.58331  0.04021  1.0000
  C   C1139     1.0  0.09801  0.51669  0.26502  1.0000
  Fe  Fe188     1.0  0.18791  0.57292  0.08532  1.0000
  N   N98       1.0  0.08702  0.52611  0.25819  1.0000
  H   H1134     1.0  0.10639  0.50851  0.25962  1.0000
  H   H1135     1.0  0.14631  0.39025  0.19022  1.0000
  H   H1136     1.0  0.09215  0.53463  0.23511  1.0000
  C   C1140     1.0  0.08693  0.52575  0.24314  1.0000
  C   C1141     1.0  0.37827  0.41257  0.16117  1.0000
  H   H1137     1.0  0.06865  0.54576  0.28447  1.0000
  H   H1138     1.0  0.45617  0.57861  0.21133  1.0000
  C   C1142     1.0  0.05946  0.56876  0.30261  1.0000
  H   H1139     1.0  0.07533  0.52755  0.24178  1.0000
  H   H1140     1.0  0.13825  0.56801  0.13692  1.0000
  Fe  Fe189     1.0  0.08961  0.55560  0.17581  1.0000
  H   H1141     1.0  0.26196  0.56874  0.99410  1.0000
  H   H1142     1.0  0.25880  0.54168  0.07317  1.0000
  C   C1143     1.0  0.29808  0.40831  0.12694  1.0000
  C   C1144     1.0  0.09898  0.38829  0.22422  1.0000
  C   C1145     1.0  0.09801  0.57744  0.25497  1.0000
  C   C1146     1.0  0.31988  0.55695  0.02113  1.0000
  C   C1147     1.0  0.24338  0.57595  0.07899  1.0000
  Fe  Fe190     1.0  0.08806  0.57812  0.30672  1.0000
  S   S377      1.0  0.06866  0.56716  0.31645  1.0000
  S   S378      1.0  0.07018  0.55880  0.16538  1.0000
  H   H1143     1.0  0.04093  0.56273  0.16134  1.0000
  H   H1144     1.0  0.04173  0.55873  0.31747  1.0000
  C   C1148     1.0  0.34460  0.41950  0.14555  1.0000
  H   H1145     1.0  0.39095  0.39146  0.17075  1.0000
  C   C1149     1.0  0.17011  0.53120  0.14532  1.0000
  C   C1150     1.0  0.18507  0.54612  0.12495  1.0000
  Fe  Fe191     1.0  0.21878  0.56216  0.06655  1.0000
  C   C1151     1.0  0.18270  0.39372  0.34717  1.0000
  H   H1146     1.0  0.27708  0.55469  0.03960  1.0000
  N   N99       1.0  0.17512  0.54405  0.13964  1.0000
  H   H1147     1.0  0.15629  0.51888  0.16377  1.0000
  C   C1152     1.0  0.04962  0.56814  0.21183  1.0000
  H   H1148     1.0  0.02330  0.56869  0.24387  1.0000
  C   C1153     1.0  0.02827  0.56835  0.23236  1.0000
  S   S379      1.0  0.17161  0.56521  0.44662  1.0000
  S   S380      1.0  0.24158  0.56677  0.05507  1.0000
  C   C1154     1.0  0.16869  0.42288  0.34820  1.0000
  H   H1149     1.0  0.18663  0.55768  0.12075  1.0000
  C   C1155     1.0  0.41585  0.55169  0.13457  1.0000
  H   H1150     1.0  0.13330  0.56085  0.42435  1.0000
  N   N100      1.0  0.16990  0.56220  0.41280  1.0000
  Fe  Fe192     1.0  0.09546  0.56183  0.20255  1.0000
  C   C1156     1.0  0.03871  0.56539  0.29503  1.0000
  H   H1151     1.0  0.34682  0.55464  0.08539  1.0000
  C   C1157     1.0  0.32343  0.39590  0.11607  1.0000
  H   H1152     1.0  0.13526  0.56509  0.24960  1.0000
  Fe  Fe193     1.0  0.11579  0.56935  0.17192  1.0000
  C   C1158     1.0  0.15536  0.57745  0.11970  1.0000
  H   H1153     1.0  0.15751  0.56181  0.16756  1.0000
  C   C1159     1.0  0.16126  0.55300  0.16152  1.0000
  H   H1154     1.0  0.09546  0.57600  0.26680  1.0000
  S   S381      1.0  0.18421  0.52405  0.44908  1.0000
  C   C1160     1.0  0.16864  0.57702  0.41126  1.0000
  S   S382      1.0  0.49124  0.57212  0.11741  1.0000
  S   S383      1.0  0.08361  0.56605  0.22515  1.0000
  H   H1155     1.0  0.15736  0.55966  0.28443  1.0000
  H   H1156     1.0  0.00831  0.53249  0.46199  1.0000
  C   C1161     1.0  0.37193  0.38919  0.16440  1.0000
  H   H1157     1.0  0.10364  0.54788  0.36874  1.0000
  C   C1162     1.0  0.14316  0.56555  0.42039  1.0000
  H   H1158     1.0  0.21270  0.55754  0.02081  1.0000
  H   H1159     1.0  0.43801  0.55895  0.10079  1.0000
  C   C1163     1.0  0.10809  0.55770  0.36319  1.0000
  H   H1160     1.0  0.18814  0.54780  0.42161  1.0000
  C   C1164     1.0  0.18345  0.39952  0.35864  1.0000
  S   S384      1.0  0.99761  0.56161  0.28950  1.0000
  H   H1161     1.0  0.08744  0.39333  0.20661  1.0000
  S   S385      1.0  0.15272  0.54705  0.47711  1.0000
  H   H1162     1.0  0.23360  0.57160  0.08502  1.0000
  H   H1163     1.0  0.42655  0.57907  0.12476  1.0000
  H   H1164     1.0  0.17664  0.41877  0.36811  1.0000
  H   H1165     1.0  0.99712  0.56903  0.45699  1.0000
  C   C1165     1.0  0.43381  0.56776  0.12583  1.0000
  H   H1166     1.0  0.44472  0.56822  0.11783  1.0000
  H   H1167     1.0  0.06234  0.58169  0.26558  1.0000
  C   C1166     1.0  0.30287  0.57689  0.03190  1.0000
  C   C1167     1.0  0.11917  0.58286  0.34846  1.0000
  C   C1168     1.0  0.12864  0.56886  0.34827  1.0000
  H   H1168     1.0  0.26712  0.57964  0.04524  1.0000
  C   C1169     1.0  0.29440  0.58002  0.02119  1.0000
  H   H1169     1.0  0.48125  0.56763  0.98166  1.0000
  C   C1170     1.0  0.15905  0.52368  0.98144  1.0000
  S   S386      1.0  0.09930  0.58242  0.32201  1.0000
  H   H1170     1.0  0.18915  0.39256  0.36729  1.0000
  H   H1171     1.0  0.16468  0.39034  0.32872  1.0000
  S   S387      1.0  0.46528  0.57412  0.18200  1.0000
  C   C1171     1.0  0.15806  0.53877  0.97985  1.0000
  H   H1172     1.0  0.00496  0.57264  0.20206  1.0000
  C   C1172     1.0  0.14176  0.58068  0.41874  1.0000
  H   H1173     1.0  0.22851  0.54699  0.98457  1.0000
  S   S388      1.0  0.46032  0.57788  0.14256  1.0000
  C   C1173     1.0  0.99884  0.56412  0.46815  1.0000
  C   C1174     1.0  0.99742  0.54003  0.46533  1.0000
  H   H1174     1.0  0.34730  0.58070  0.02621  1.0000
  C   C1175     1.0  0.24982  0.58282  0.08590  1.0000
  C   C1176     1.0  0.00050  0.57309  0.47647  1.0000
  S   S389      1.0  0.34786  0.52461  0.97867  1.0000
  H   H1175     1.0  0.49069  0.58179  0.98017  1.0000
  Fe  Fe194     1.0  0.02172  0.52640  0.73685  1.0000
  S   S390      1.0  0.01033  0.53911  0.75460  1.0000
  S   S391      1.0  0.04623  0.51703  0.73608  1.0000
  H   H1176     1.0  0.02886  0.54695  0.78824  1.0000
  S   S392      1.0  0.99578  0.55698  0.57056  1.0000
  C   C1177     1.0  0.00316  0.55183  0.49669  1.0000
  C   C1178     1.0  0.15148  0.52930  0.95828  1.0000
  H   H1177     1.0  0.19200  0.52323  0.58044  1.0000
  S   S393      1.0  0.00959  0.50554  0.85445  1.0000
  C   C1179     1.0  0.19311  0.39994  0.84745  1.0000
  H   H1178     1.0  0.39329  0.52395  0.93098  1.0000
  Fe  Fe195     1.0  0.01768  0.51113  0.87152  1.0000
  S   S394      1.0  0.04243  0.50204  0.87038  1.0000
  H   H1179     1.0  0.44773  0.43166  0.92236  1.0000
  H   H1180     1.0  0.00358  0.57373  0.49761  1.0000
  Fe  Fe196     1.0  0.18263  0.56353  0.60923  1.0000
  S   S395      1.0  0.16780  0.55650  0.59931  1.0000
  S   S396      1.0  0.19053  0.55104  0.63027  1.0000
  H   H1181     1.0  0.18786  0.38806  0.77155  1.0000
  Fe  Fe197     1.0  0.16477  0.55486  0.48953  1.0000
  H   H1182     1.0  0.14136  0.57067  0.96826  1.0000
  H   H1183     1.0  0.02028  0.49282  0.82015  1.0000
  H   H1184     1.0  0.31409  0.51793  0.91031  1.0000
  Fe  Fe198     1.0  0.18289  0.56400  0.57752  1.0000
  H   H1185     1.0  0.15539  0.41501  0.69383  1.0000
  C   C1180     1.0  0.27456  0.56426  0.94809  1.0000
  S   S397      1.0  0.19885  0.56906  0.58765  1.0000
  Fe  Fe199     1.0  0.16394  0.46971  0.71025  1.0000
  S   S398      1.0  0.17836  0.48605  0.69857  1.0000
  S   S399      1.0  0.14067  0.47632  0.72339  1.0000
  Fe  Fe200     1.0  0.18844  0.44362  0.70204  1.0000
  S   S400      1.0  0.20507  0.45779  0.68954  1.0000
  Fe  Fe201     1.0  0.19624  0.46906  0.70876  1.0000
  S   S401      1.0  0.20820  0.47708  0.72100  1.0000
  Fe  Fe202     1.0  0.18554  0.47350  0.68055  1.0000
  S   S402      1.0  0.18489  0.48458  0.65668  1.0000
  S   S403      1.0  0.18119  0.45373  0.72189  1.0000
  S   S404      1.0  0.16964  0.45824  0.69160  1.0000
  Fe  Fe203     1.0  0.08543  0.56132  0.75549  1.0000
  S   S405      1.0  0.09680  0.57512  0.76195  1.0000
  S   S406      1.0  0.06264  0.55754  0.76737  1.0000
  Fe  Fe204     1.0  0.11058  0.55516  0.72911  1.0000
  S   S407      1.0  0.12428  0.56842  0.73319  1.0000
  S   S408      1.0  0.11850  0.54568  0.70879  1.0000
  Fe  Fe205     1.0  0.11746  0.55738  0.75714  1.0000
  S   S409      1.0  0.13351  0.54410  0.77177  1.0000
  H   H1186     1.0  0.19154  0.38907  0.71122  1.0000
  C   C1181     1.0  0.37449  0.55822  0.93608  1.0000
  S   S410      1.0  0.10541  0.54280  0.75263  1.0000
  S   S411      1.0  0.08932  0.57231  0.73150  1.0000
  Fe  Fe206     1.0  0.23244  0.43905  0.79286  1.0000
  S   S412      1.0  0.20990  0.44414  0.80768  1.0000
  S   S413      1.0  0.23383  0.42976  0.77341  1.0000
  Fe  Fe207     1.0  0.24805  0.44716  0.81234  1.0000
  S   S414      1.0  0.22652  0.45323  0.82848  1.0000
  S   S415      1.0  0.27095  0.44662  0.81522  1.0000
  Fe  Fe208     1.0  0.22174  0.43269  0.82620  1.0000
  S   S416      1.0  0.21244  0.41669  0.84604  1.0000
  Fe  Fe209     1.0  0.21698  0.46412  0.80829  1.0000
  S   S417      1.0  0.20147  0.48653  0.80539  1.0000
  S   S418      1.0  0.24378  0.42574  0.81142  1.0000
  S   S419      1.0  0.23895  0.45988  0.79213  1.0000
  Fe  Fe210     1.0  0.10708  0.53026  0.87635  1.0000
  S   S420      1.0  0.12028  0.54714  0.87390  1.0000
  S   S421      1.0  0.08282  0.53284  0.88832  1.0000
  Fe  Fe211     1.0  0.13332  0.51093  0.85953  1.0000
  S   S422      1.0  0.14844  0.52639  0.85508  1.0000
  S   S423      1.0  0.14146  0.48848  0.85414  1.0000
  Fe  Fe212     1.0  0.13924  0.52767  0.87893  1.0000
  S   S424      1.0  0.15637  0.52001  0.89336  1.0000
  Fe  Fe213     1.0  0.12837  0.54421  0.85040  1.0000
  S   S425      1.0  0.12831  0.56346  0.83078  1.0000
  S   S426      1.0  0.12509  0.51113  0.88352  1.0000
  S   S427      1.0  0.11402  0.52856  0.85264  1.0000
  C   C1182     1.0  0.31703  0.50813  0.95451  1.0000
  S   S428      1.0  0.23063  0.49800  0.93975  1.0000
  C   C1183     1.0  0.18990  0.39886  0.77047  1.0000
  H   H1187     1.0  0.19442  0.57587  0.48286  1.0000
  Fe  Fe214     1.0  0.29649  0.47389  0.87033  1.0000
  S   S429      1.0  0.29615  0.46273  0.89410  1.0000
  S   S430      1.0  0.27449  0.47714  0.86410  1.0000
  Fe  Fe215     1.0  0.32779  0.47922  0.86548  1.0000
  S   S431      1.0  0.32993  0.46816  0.88871  1.0000
  S   S432      1.0  0.34582  0.48985  0.84929  1.0000
  Fe  Fe216     1.0  0.31972  0.45128  0.88567  1.0000
  S   S433      1.0  0.32895  0.42682  0.89193  1.0000
  Fe  Fe217     1.0  0.30632  0.48076  0.89469  1.0000
  S   S434      1.0  0.29903  0.49505  0.91131  1.0000
  S   S435      1.0  0.31947  0.46122  0.86175  1.0000
  S   S436      1.0  0.30475  0.49300  0.87161  1.0000
  Fe  Fe218     1.0  0.39774  0.49785  0.89192  1.0000
  S   S437      1.0  0.39273  0.47533  0.90115  1.0000
  S   S438      1.0  0.38979  0.51255  0.87181  1.0000
  Fe  Fe219     1.0  0.41360  0.49571  0.91609  1.0000
  S   S439      1.0  0.40987  0.47281  0.92730  1.0000
  H   H1188     1.0  0.36381  0.41158  0.88491  1.0000
  Fe  Fe220     1.0  0.41615  0.46849  0.90446  1.0000
  S   S440      1.0  0.43051  0.44738  0.89808  1.0000
  Fe  Fe221     1.0  0.38683  0.48173  0.92292  1.0000
  S   S441      1.0  0.36688  0.47652  0.94046  1.0000
  S   S442      1.0  0.42196  0.49066  0.89343  1.0000
  H   H1189     1.0  0.08353  0.55517  0.80239  1.0000
  C   C1184     1.0  0.24634  0.52539  0.89558  1.0000
  N   N101      1.0  0.14513  0.39670  0.69771  1.0000
  H   H1190     1.0  0.32514  0.51251  0.95697  1.0000
  C   C1185     1.0  0.44581  0.46230  0.93378  1.0000
  H   H1191     1.0  0.24628  0.47893  0.88821  1.0000
  H   H1192     1.0  0.28774  0.49248  0.94670  1.0000
  H   H1193     1.0  0.18737  0.49931  0.59719  1.0000
  H   H1194     1.0  0.31465  0.48174  0.93875  1.0000
  C   C1186     1.0  0.20901  0.39091  0.82120  1.0000
  C   C1187     1.0  0.22450  0.39278  0.68803  1.0000
  C   C1188     1.0  0.18464  0.40960  0.67231  1.0000
  H   H1195     1.0  0.26089  0.47343  0.89834  1.0000
  H   H1196     1.0  0.46320  0.48904  0.91035  1.0000
  H   H1197     1.0  0.14923  0.52577  0.94954  1.0000
  H   H1198     1.0  0.35104  0.53402  0.91194  1.0000
  C   C1189     1.0  0.27535  0.51463  0.96060  1.0000
  H   H1199     1.0  0.37354  0.53836  0.97130  1.0000
  H   H1200     1.0  0.49390  0.54790  0.96744  1.0000
  H   H1201     1.0  0.20723  0.53679  0.58625  1.0000
  C   C1190     1.0  0.00129  0.54322  0.48813  1.0000
  N   N102      1.0  0.19370  0.41657  0.78148  1.0000
  Fe  Fe222     1.0  0.48614  0.54874  0.91351  1.0000
  H   H1202     1.0  0.37068  0.56932  0.92992  1.0000
  C   C1191     1.0  0.28201  0.55370  0.93961  1.0000
  C   C1192     1.0  0.20528  0.52640  0.59364  1.0000
  H   H1203     1.0  0.44878  0.48287  0.93614  1.0000
  S   S443      1.0  0.00474  0.51242  0.74298  1.0000
  S   S444      1.0  0.30162  0.54903  0.93515  1.0000
  H   H1204     1.0  0.26923  0.51578  0.95195  1.0000
  C   C1193     1.0  0.42186  0.43221  0.90552  1.0000
  C   C1194     1.0  0.40918  0.43283  0.91708  1.0000
  C   C1195     1.0  0.40253  0.42057  0.92311  1.0000
  C   C1196     1.0  0.40831  0.40774  0.91741  1.0000
  C   C1197     1.0  0.42088  0.40719  0.90572  1.0000
  C   C1198     1.0  0.42773  0.41936  0.89989  1.0000
  H   H1205     1.0  0.40453  0.44271  0.92149  1.0000
  H   H1206     1.0  0.39276  0.42108  0.93211  1.0000
  H   H1207     1.0  0.15704  0.40159  0.71069  1.0000
  H   H1208     1.0  0.43754  0.41884  0.89094  1.0000
  C   C1199     1.0  0.45709  0.52356  0.89952  1.0000
  C   C1200     1.0  0.44462  0.51701  0.90544  1.0000
  S   S445      1.0  0.39915  0.39294  0.92476  1.0000
  H   H1209     1.0  0.46265  0.52417  0.88801  1.0000
  H   H1210     1.0  0.44063  0.51260  0.89849  1.0000
  C   C1201     1.0  0.31483  0.41815  0.89270  1.0000
  C   C1202     1.0  0.31815  0.40613  0.88605  1.0000
  C   C1203     1.0  0.30670  0.39953  0.88630  1.0000
  C   C1204     1.0  0.29192  0.40508  0.89307  1.0000
  C   C1205     1.0  0.28868  0.41689  0.89998  1.0000
  C   C1206     1.0  0.30014  0.42337  0.89984  1.0000
  H   H1211     1.0  0.32952  0.40203  0.88058  1.0000
  H   H1212     1.0  0.01318  0.48271  0.70093  1.0000
  H   H1213     1.0  0.27730  0.42107  0.90539  1.0000
  H   H1214     1.0  0.29759  0.43229  0.90545  1.0000
  C   C1207     1.0  0.35795  0.49583  0.85601  1.0000
  C   C1208     1.0  0.36695  0.50518  0.84611  1.0000
  C   C1209     1.0  0.37673  0.51019  0.85104  1.0000
  C   C1210     1.0  0.37785  0.50562  0.86585  1.0000
  C   C1211     1.0  0.36888  0.49624  0.87579  1.0000
  C   C1212     1.0  0.35886  0.49145  0.87090  1.0000
  H   H1215     1.0  0.36630  0.50864  0.83458  1.0000
  H   H1216     1.0  0.38354  0.51754  0.84332  1.0000
  H   H1217     1.0  0.36922  0.49311  0.88736  1.0000
  H   H1218     1.0  0.35198  0.48431  0.87866  1.0000
  H   H1219     1.0  0.14328  0.55550  0.68204  1.0000
  H   H1220     1.0  0.01909  0.50297  0.62968  1.0000
  C   C1213     1.0  0.24975  0.49714  0.93273  1.0000
  C   C1214     1.0  0.25573  0.50954  0.93014  1.0000
  C   C1215     1.0  0.27095  0.50886  0.92362  1.0000
  C   C1216     1.0  0.28013  0.49580  0.91970  1.0000
  C   C1217     1.0  0.27419  0.48334  0.92263  1.0000
  C   C1218     1.0  0.25902  0.48401  0.92912  1.0000
  H   H1221     1.0  0.27553  0.51851  0.92132  1.0000
  H   H1222     1.0  0.28134  0.47307  0.92018  1.0000
  H   H1223     1.0  0.25443  0.47435  0.93134  1.0000
  C   C1219     1.0  0.16114  0.53053  0.90300  1.0000
  C   C1220     1.0  0.17205  0.52350  0.91144  1.0000
  C   C1221     1.0  0.17638  0.53138  0.91919  1.0000
  C   C1222     1.0  0.19189  0.40853  0.75664  1.0000
  C   C1223     1.0  0.15451  0.54552  0.90242  1.0000
  H   H1224     1.0  0.17721  0.51190  0.91197  1.0000
  H   H1225     1.0  0.14611  0.55105  0.89594  1.0000
  C   C1224     1.0  0.27186  0.45551  0.82855  1.0000
  C   C1225     1.0  0.25891  0.46145  0.83800  1.0000
  C   C1226     1.0  0.25989  0.46807  0.84881  1.0000
  C   C1227     1.0  0.27385  0.46872  0.85035  1.0000
  C   C1228     1.0  0.28686  0.46278  0.84093  1.0000
  C   C1229     1.0  0.28584  0.45627  0.83000  1.0000
  H   H1226     1.0  0.24811  0.46101  0.83699  1.0000
  H   H1227     1.0  0.24979  0.47272  0.85600  1.0000
  H   H1228     1.0  0.29767  0.46338  0.84192  1.0000
  H   H1229     1.0  0.29592  0.45182  0.82265  1.0000
  C   C1230     1.0  0.20620  0.40478  0.83959  1.0000
  C   C1231     1.0  0.21415  0.40027  0.82646  1.0000
  H   H1230     1.0  0.16198  0.56034  0.56033  1.0000
  C   C1232     1.0  0.99803  0.51884  0.62998  1.0000
  C   C1233     1.0  0.18435  0.48684  0.81826  1.0000
  C   C1234     1.0  0.17440  0.50041  0.81955  1.0000
  C   C1235     1.0  0.16109  0.50092  0.83041  1.0000
  C   C1236     1.0  0.15761  0.48786  0.83991  1.0000
  C   C1237     1.0  0.16740  0.47425  0.83841  1.0000
  C   C1238     1.0  0.18083  0.47374  0.82767  1.0000
  H   H1231     1.0  0.17708  0.51058  0.81231  1.0000
  H   H1232     1.0  0.15346  0.51143  0.83133  1.0000
  H   H1233     1.0  0.16475  0.46411  0.84573  1.0000
  H   H1234     1.0  0.18849  0.46323  0.82681  1.0000
  H   H1235     1.0  0.27954  0.53851  0.92832  1.0000
  H   H1236     1.0  0.18974  0.39531  0.79345  1.0000
  C   C1239     1.0  0.28332  0.41708  0.79577  1.0000
  H   H1237     1.0  0.19640  0.42986  0.74465  1.0000
  Fe  Fe223     1.0  0.47995  0.55967  0.94163  1.0000
  C   C1240     1.0  0.23500  0.50429  0.90285  1.0000
  C   C1241     1.0  0.18222  0.55103  0.52200  1.0000
  H   H1238     1.0  0.35064  0.39175  0.86249  1.0000
  H   H1239     1.0  0.27834  0.42873  0.79087  1.0000
  H   H1240     1.0  0.46740  0.47232  0.89342  1.0000
  C   C1242     1.0  0.13208  0.54976  0.78799  1.0000
  C   C1243     1.0  0.13559  0.53903  0.80048  1.0000
  C   C1244     1.0  0.13449  0.54321  0.81360  1.0000
  C   C1245     1.0  0.13031  0.55816  0.81419  1.0000
  C   C1246     1.0  0.12703  0.56892  0.80162  1.0000
  C   C1247     1.0  0.12769  0.56472  0.78860  1.0000
  H   H1241     1.0  0.13900  0.52744  0.80009  1.0000
  H   H1242     1.0  0.13704  0.53487  0.82323  1.0000
  H   H1243     1.0  0.00229  0.52661  0.62018  1.0000
  H   H1244     1.0  0.12514  0.57306  0.77894  1.0000
  C   C1248     1.0  0.13481  0.49560  0.71948  1.0000
  C   C1249     1.0  0.14068  0.50404  0.70582  1.0000
  C   C1250     1.0  0.13583  0.51948  0.70268  1.0000
  C   C1251     1.0  0.12508  0.52648  0.71320  1.0000
  C   C1252     1.0  0.11904  0.51803  0.72677  1.0000
  C   C1253     1.0  0.12390  0.50259  0.72991  1.0000
  H   H1245     1.0  0.14855  0.49866  0.69744  1.0000
  H   H1246     1.0  0.14031  0.52593  0.69204  1.0000
  H   H1247     1.0  0.11028  0.52329  0.73467  1.0000
  H   H1248     1.0  0.11915  0.49606  0.74039  1.0000
  C   C1254     1.0  0.21591  0.46379  0.73513  1.0000
  C   C1255     1.0  0.21850  0.46847  0.74649  1.0000
  C   C1256     1.0  0.22394  0.45809  0.75830  1.0000
  C   C1257     1.0  0.22744  0.44298  0.75848  1.0000
  C   C1258     1.0  0.22536  0.43829  0.74683  1.0000
  C   C1259     1.0  0.21930  0.44866  0.73533  1.0000
  H   H1249     1.0  0.21617  0.48018  0.74622  1.0000
  H   H1250     1.0  0.22559  0.46183  0.76716  1.0000
  H   H1251     1.0  0.22816  0.42661  0.74686  1.0000
  H   H1252     1.0  0.21751  0.44500  0.72647  1.0000
  C   C1260     1.0  0.26055  0.50171  0.89043  1.0000
  H   H1253     1.0  0.21328  0.50333  0.62511  1.0000
  H   H1254     1.0  0.31114  0.51914  0.88488  1.0000
  C   C1261     1.0  0.45615  0.45646  0.91017  1.0000
  C   C1262     1.0  0.02967  0.52109  0.78364  1.0000
  C   C1263     1.0  0.02671  0.51374  0.80972  1.0000
  S   S446      1.0  0.30881  0.54667  0.97271  1.0000
  H   H1255     1.0  0.39810  0.44674  0.88778  1.0000
  C   C1264     1.0  0.19558  0.42046  0.79437  1.0000
  H   H1256     1.0  0.11533  0.57298  0.68612  1.0000
  C   C1265     1.0  0.14763  0.39747  0.68288  1.0000
  H   H1257     1.0  0.20262  0.54698  0.52946  1.0000
  C   C1266     1.0  0.38897  0.44481  0.88444  1.0000
  S   S447      1.0  0.19391  0.55192  0.55902  1.0000
  N   N103      1.0  0.44853  0.45294  0.92452  1.0000
  H   H1258     1.0  0.25159  0.39078  0.81686  1.0000
  H   H1259     1.0  0.29546  0.41624  0.79437  1.0000
  C   C1267     1.0  0.15936  0.55823  0.53955  1.0000
  C   C1268     1.0  0.38709  0.53266  0.93680  1.0000
  C   C1269     1.0  0.18717  0.53321  0.63879  1.0000
  C   C1270     1.0  0.17886  0.52695  0.63335  1.0000
  C   C1271     1.0  0.17753  0.51222  0.63949  1.0000
  C   C1272     1.0  0.18449  0.50367  0.65110  1.0000
  C   C1273     1.0  0.19222  0.51014  0.65702  1.0000
  C   C1274     1.0  0.19358  0.52487  0.65084  1.0000
  H   H1260     1.0  0.17374  0.53328  0.62420  1.0000
  H   H1261     1.0  0.17143  0.50730  0.63496  1.0000
  H   H1262     1.0  0.19764  0.50360  0.66596  1.0000
  H   H1263     1.0  0.19998  0.52967  0.65515  1.0000
  C   C1275     1.0  0.05293  0.51264  0.87365  1.0000
  C   C1276     1.0  0.04661  0.52207  0.88352  1.0000
  C   C1277     1.0  0.05582  0.52859  0.88767  1.0000
  C   C1278     1.0  0.07130  0.52585  0.88183  1.0000
  C   C1279     1.0  0.07746  0.51701  0.87142  1.0000
  C   C1280     1.0  0.06831  0.51038  0.86740  1.0000
  H   H1264     1.0  0.03475  0.52383  0.88842  1.0000
  H   H1265     1.0  0.05098  0.53547  0.89570  1.0000
  H   H1266     1.0  0.08935  0.51480  0.86688  1.0000
  H   H1267     1.0  0.07323  0.50309  0.85976  1.0000
  C   C1281     1.0  0.16382  0.50090  0.73696  1.0000
  H   H1268     1.0  0.24857  0.51971  0.93292  1.0000
  H   H1269     1.0  0.36003  0.47393  0.97189  1.0000
  H   H1270     1.0  0.20860  0.57898  0.54713  1.0000
  C   C1282     1.0  0.05173  0.52827  0.74404  1.0000
  C   C1283     1.0  0.06201  0.52215  0.75320  1.0000
  C   C1284     1.0  0.06557  0.53118  0.76027  1.0000
  C   C1285     1.0  0.05869  0.54625  0.75828  1.0000
  C   C1286     1.0  0.04868  0.55237  0.74889  1.0000
  C   C1287     1.0  0.04528  0.54342  0.74171  1.0000
  H   H1271     1.0  0.06691  0.51039  0.75519  1.0000
  H   H1272     1.0  0.07343  0.52645  0.76744  1.0000
  H   H1273     1.0  0.04366  0.56405  0.74707  1.0000
  H   H1274     1.0  0.03757  0.54823  0.73440  1.0000
  C   C1288     1.0  0.16659  0.55469  0.52577  1.0000
  C   C1289     1.0  0.99862  0.50308  0.70606  1.0000
  C   C1290     1.0  0.37620  0.54071  0.95930  1.0000
  H   H1275     1.0  0.43184  0.57493  0.94101  1.0000
  H   H1276     1.0  0.21446  0.39157  0.72030  1.0000
  C   C1291     1.0  0.17748  0.50174  0.77497  1.0000
  C   C1292     1.0  0.25890  0.56780  0.95185  1.0000
  C   C1293     1.0  0.19468  0.42231  0.75538  1.0000
  C   C1294     1.0  0.44267  0.43942  0.92996  1.0000
  C   C1295     1.0  0.18327  0.55351  0.54615  1.0000
  H   H1277     1.0  0.18689  0.40351  0.85755  1.0000
  C   C1296     1.0  0.37133  0.55513  0.95150  1.0000
  S   S448      1.0  0.19364  0.52183  0.95564  1.0000
  C   C1297     1.0  0.38244  0.54693  0.92865  1.0000
  Fe  Fe224     1.0  0.33330  0.54546  0.96860  1.0000
  N   N104      1.0  0.16861  0.50142  0.74995  1.0000
  H   H1278     1.0  0.29763  0.38893  0.79738  1.0000
  C   C1298     1.0  0.35152  0.52969  0.89106  1.0000
  H   H1279     1.0  0.21906  0.52702  0.62161  1.0000
  C   C1299     1.0  0.02602  0.50815  0.78330  1.0000
  C   C1300     1.0  0.38170  0.45570  0.87422  1.0000
  H   H1280     1.0  0.02359  0.56939  0.71851  1.0000
  S   S449      1.0  0.27673  0.38638  0.82971  1.0000
  H   H1281     1.0  0.27815  0.41481  0.80779  1.0000
  Fe  Fe225     1.0  0.31113  0.55799  0.94880  1.0000
  H   H1282     1.0  0.06193  0.54308  0.85324  1.0000
  H   H1283     1.0  0.02565  0.50619  0.77288  1.0000
  H   H1284     1.0  0.22331  0.52589  0.90696  1.0000
  C   C1301     1.0  0.19670  0.51871  0.59025  1.0000
  N   N105      1.0  0.02964  0.52390  0.79676  1.0000
  C   C1302     1.0  0.22611  0.38867  0.71385  1.0000
  H   H1285     1.0  0.17728  0.38768  0.84773  1.0000
  H   H1286     1.0  0.27102  0.49493  0.88575  1.0000
  C   C1303     1.0  0.32345  0.51478  0.88246  1.0000
  H   H1287     1.0  0.38760  0.50627  0.95501  1.0000
  H   H1288     1.0  0.43932  0.45980  0.94499  1.0000
  H   H1289     1.0  0.15123  0.52013  0.75479  1.0000
  H   H1290     1.0  0.17370  0.49826  0.72795  1.0000
  H   H1291     1.0  0.15681  0.51168  0.73242  1.0000
  C   C1304     1.0  0.25804  0.54969  0.93928  1.0000
  H   H1292     1.0  0.02827  0.54091  0.80759  1.0000
  N   N106      1.0  0.28081  0.40650  0.78889  1.0000
  C   C1305     1.0  0.14543  0.56520  0.67345  1.0000
  C   C1306     1.0  0.26961  0.41054  0.78132  1.0000
  H   H1293     1.0  0.38497  0.54919  0.91667  1.0000
  H   H1294     1.0  0.14727  0.56101  0.54256  1.0000
  H   H1295     1.0  0.07231  0.55689  0.86476  1.0000
  H   H1296     1.0  0.04569  0.53625  0.79442  1.0000
  H   H1297     1.0  0.23081  0.39874  0.71019  1.0000
  H   H1298     1.0  0.26278  0.42171  0.77996  1.0000
  C   C1307     1.0  0.02311  0.50061  0.80980  1.0000
  H   H1299     1.0  0.12650  0.57840  0.51137  1.0000
  H   H1300     1.0  0.16562  0.55297  0.66134  1.0000
  C   C1308     1.0  0.00265  0.56687  0.49084  1.0000
  C   C1309     1.0  0.00255  0.49039  0.70017  1.0000
  C   C1310     1.0  0.42455  0.57937  0.93285  1.0000
  N   N107      1.0  0.37284  0.42891  0.88623  1.0000
  C   C1311     1.0  0.36546  0.43964  0.87644  1.0000
  C   C1312     1.0  0.36986  0.45313  0.87019  1.0000
  C   C1313     1.0  0.36787  0.41498  0.89292  1.0000
  H   H1301     1.0  0.35607  0.43781  0.87345  1.0000
  H   H1302     1.0  0.36404  0.46159  0.86234  1.0000
  H   H1303     1.0  0.35860  0.41643  0.90272  1.0000
  H   H1304     1.0  0.37714  0.40581  0.89643  1.0000
  C   C1314     1.0  0.34340  0.38768  0.91012  1.0000
  S   S450      1.0  0.33599  0.55501  0.94431  1.0000
  H   H1305     1.0  0.12386  0.58052  0.80200  1.0000
  S   S451      1.0  0.33050  0.56703  0.97445  1.0000
  C   C1315     1.0  0.20887  0.50763  0.61515  1.0000
  H   H1306     1.0  0.43039  0.44225  0.93076  1.0000
  C   C1316     1.0  0.18767  0.39103  0.84189  1.0000
  H   H1307     1.0  0.36223  0.53264  0.88557  1.0000
  H   H1308     1.0  0.32672  0.52686  0.92417  1.0000
  H   H1309     1.0  0.21521  0.38744  0.81109  1.0000
  H   H1310     1.0  0.00117  0.57791  0.69545  1.0000
  C   C1317     1.0  0.33172  0.52622  0.91275  1.0000
  C   C1318     1.0  0.25062  0.56036  0.94770  1.0000
  C   C1319     1.0  0.18936  0.39486  0.70048  1.0000
  H   H1311     1.0  0.19147  0.40527  0.74689  1.0000
  H   H1312     1.0  0.03943  0.58209  0.69618  1.0000
  H   H1313     1.0  0.19795  0.43682  0.76691  1.0000
  H   H1314     1.0  0.18292  0.41532  0.66134  1.0000
  N   N108      1.0  0.18290  0.49565  0.86030  1.0000
  C   C1320     1.0  0.18438  0.50974  0.85875  1.0000
  C   C1321     1.0  0.19246  0.48694  0.85105  1.0000
  C   C1322     1.0  0.19510  0.51574  0.84720  1.0000
  C   C1323     1.0  0.20345  0.49251  0.83951  1.0000
  C   C1324     1.0  0.20462  0.50706  0.83746  1.0000
  C   C1325     1.0  0.17148  0.48962  0.87238  1.0000
  H   H1315     1.0  0.17708  0.51653  0.86634  1.0000
  H   H1316     1.0  0.19145  0.47570  0.85235  1.0000
  H   H1317     1.0  0.19591  0.52707  0.84576  1.0000
  H   H1318     1.0  0.21077  0.48571  0.83194  1.0000
  H   H1319     1.0  0.21285  0.51158  0.82829  1.0000
  H   H1320     1.0  0.17592  0.48475  0.88258  1.0000
  H   H1321     1.0  0.16133  0.49842  0.87478  1.0000
  H   H1322     1.0  0.16774  0.48111  0.86941  1.0000
  C   C1326     1.0  0.35453  0.49629  0.97500  1.0000
  H   H1323     1.0  0.99641  0.48559  0.84963  1.0000
  C   C1327     1.0  0.43758  0.51593  0.92037  1.0000
  H   H1324     1.0  0.38517  0.46616  0.86952  1.0000
  H   H1325     1.0  0.38988  0.42308  0.89846  1.0000
  S   S452      1.0  0.99854  0.50494  0.89005  1.0000
  C   C1328     1.0  0.15805  0.56369  0.66185  1.0000
  C   C1329     1.0  0.38431  0.43143  0.89042  1.0000
  C   C1330     1.0  0.27375  0.54657  0.93500  1.0000
  N   N109      1.0  0.09109  0.51940  0.71100  1.0000
  C   C1331     1.0  0.08829  0.50643  0.72037  1.0000
  C   C1332     1.0  0.10198  0.51919  0.69829  1.0000
  C   C1333     1.0  0.09695  0.49280  0.71748  1.0000
  C   C1334     1.0  0.11071  0.50573  0.69495  1.0000
  C   C1335     1.0  0.10831  0.49248  0.70474  1.0000
  C   C1336     1.0  0.08233  0.53350  0.71474  1.0000
  H   H1326     1.0  0.07947  0.50660  0.73027  1.0000
  H   H1327     1.0  0.10437  0.52944  0.69095  1.0000
  H   H1328     1.0  0.09505  0.48256  0.72522  1.0000
  H   H1329     1.0  0.11973  0.50560  0.68518  1.0000
  H   H1330     1.0  0.11550  0.48201  0.70267  1.0000
  H   H1331     1.0  0.08274  0.53360  0.72611  1.0000
  H   H1332     1.0  0.08682  0.54307  0.70722  1.0000
  H   H1333     1.0  0.07049  0.53507  0.71418  1.0000
  N   N110      1.0  0.27500  0.42341  0.85588  1.0000
  C   C1337     1.0  0.27159  0.41754  0.84620  1.0000
  C   C1338     1.0  0.26414  0.42803  0.86732  1.0000
  C   C1339     1.0  0.25690  0.41653  0.84763  1.0000
  C   C1340     1.0  0.24932  0.42721  0.86905  1.0000
  C   C1341     1.0  0.24569  0.42147  0.85908  1.0000
  C   C1342     1.0  0.29054  0.42393  0.85450  1.0000
  H   H1334     1.0  0.28021  0.41370  0.83722  1.0000
  H   H1335     1.0  0.26696  0.43222  0.87527  1.0000
  H   H1336     1.0  0.25426  0.41187  0.83993  1.0000
  H   H1337     1.0  0.24076  0.43084  0.87817  1.0000
  H   H1338     1.0  0.23426  0.42075  0.86026  1.0000
  H   H1339     1.0  0.29638  0.41332  0.86055  1.0000
  H   H1340     1.0  0.29654  0.42592  0.84272  1.0000
  H   H1341     1.0  0.29112  0.43303  0.85914  1.0000
  H   H1342     1.0  0.45797  0.44929  0.90267  1.0000
  H   H1343     1.0  0.15912  0.56646  0.97347  1.0000
  C   C1343     1.0  0.46249  0.52923  0.90842  1.0000
  H   H1344     1.0  0.30934  0.39019  0.88124  1.0000
  S   S453      1.0  0.30620  0.58103  0.95267  1.0000
  C   C1344     1.0  0.16767  0.55782  0.54965  1.0000
  C   C1345     1.0  0.32174  0.49636  0.94736  1.0000
  C   C1346     1.0  0.22304  0.38786  0.67628  1.0000
  S   S454      1.0  0.21720  0.54173  0.93187  1.0000
  H   H1345     1.0  0.15915  0.52069  0.77685  1.0000
  H   H1346     1.0  0.36499  0.56383  0.95736  1.0000
  H   H1347     1.0  0.22372  0.40450  0.68676  1.0000
  C   C1347     1.0  0.12278  0.57993  0.68624  1.0000
  H   H1348     1.0  0.33958  0.39903  0.91226  1.0000
  S   S455      1.0  0.19367  0.41866  0.70715  1.0000
  C   C1348     1.0  0.16084  0.51190  0.75802  1.0000
  C   C1349     1.0  0.24932  0.48004  0.89808  1.0000
  H   H1349     1.0  0.42543  0.39732  0.90130  1.0000
  C   C1350     1.0  0.34533  0.53034  0.90584  1.0000
  C   C1351     1.0  0.02260  0.49791  0.79650  1.0000
  H   H1350     1.0  0.43742  0.52104  0.94078  1.0000
  S   S456      1.0  0.22231  0.52570  0.96578  1.0000
  C   C1352     1.0  0.34393  0.52499  0.88337  1.0000
  N   N111      1.0  0.24832  0.49568  0.89726  1.0000
  H   H1351     1.0  0.26965  0.52120  0.88451  1.0000
  H   H1352     1.0  0.00111  0.53164  0.49296  1.0000
  S   S457      1.0  0.27729  0.39764  0.89283  1.0000
  C   C1353     1.0  0.26659  0.40027  0.77542  1.0000
  C   C1354     1.0  0.19556  0.42618  0.76799  1.0000
  H   H1353     1.0  0.21593  0.54129  0.60582  1.0000
  N   N112      1.0  0.43388  0.58145  0.91783  1.0000
  H   H1354     1.0  0.14634  0.38745  0.66603  1.0000
  C   C1355     1.0  0.32457  0.52130  0.90480  1.0000
  H   H1355     1.0  0.18788  0.54829  0.51140  1.0000
  C   C1356     1.0  0.19418  0.50528  0.59958  1.0000
  H   H1356     1.0  0.19826  0.48934  0.61963  1.0000
  H   H1357     1.0  0.34885  0.52452  0.87188  1.0000
  N   N113      1.0  0.21099  0.52097  0.60612  1.0000
  H   H1358     1.0  0.45927  0.53282  0.93022  1.0000
  H   H1359     1.0  0.10197  0.54728  0.80632  1.0000
  C   C1357     1.0  0.07032  0.54927  0.84656  1.0000
  Fe  Fe226     1.0  0.19737  0.53055  0.97326  1.0000
  N   N114      1.0  0.09377  0.48335  0.88829  1.0000
  C   C1358     1.0  0.08993  0.49190  0.89851  1.0000
  C   C1359     1.0  0.08326  0.47756  0.88600  1.0000
  C   C1360     1.0  0.07529  0.49470  0.90689  1.0000
  C   C1361     1.0  0.06851  0.48016  0.89418  1.0000
  C   C1362     1.0  0.06452  0.48882  0.90464  1.0000
  C   C1363     1.0  0.10886  0.48147  0.87885  1.0000
  H   H1360     1.0  0.09802  0.49713  0.89983  1.0000
  H   H1361     1.0  0.08611  0.47133  0.87747  1.0000
  H   H1362     1.0  0.07218  0.50202  0.91450  1.0000
  H   H1363     1.0  0.06004  0.47613  0.89187  1.0000
  H   H1364     1.0  0.05297  0.49147  0.91055  1.0000
  H   H1365     1.0  0.11735  0.48131  0.88480  1.0000
  H   H1366     1.0  0.11225  0.47090  0.87508  1.0000
  H   H1367     1.0  0.10930  0.49074  0.86893  1.0000
  H   H1368     1.0  0.23190  0.52591  0.60391  1.0000
  H   H1369     1.0  0.21544  0.38684  0.86670  1.0000
  C   C1364     1.0  0.22000  0.52914  0.60948  1.0000
  C   C1365     1.0  0.20038  0.49962  0.61207  1.0000
  H   H1370     1.0  0.43605  0.55931  0.91608  1.0000
  H   H1371     1.0  0.29399  0.38434  0.92851  1.0000
  C   C1366     1.0  0.44281  0.52184  0.92921  1.0000
  H   H1372     1.0  0.09180  0.57074  0.84927  1.0000
  C   C1367     1.0  0.48974  0.57387  0.97424  1.0000
  C   C1368     1.0  0.18717  0.38710  0.69129  1.0000
  C   C1369     1.0  0.19097  0.40303  0.78282  1.0000
  S   S458      1.0  0.99794  0.47171  0.68590  1.0000
  H   H1373     1.0  0.42658  0.39379  0.84778  1.0000
  H   H1374     1.0  0.20763  0.41732  0.79475  1.0000
  C   C1370     1.0  0.18520  0.49099  0.76681  1.0000
  H   H1375     1.0  0.33358  0.49147  0.94417  1.0000
  C   C1371     1.0  0.00739  0.50551  0.63520  1.0000
  H   H1376     1.0  0.13662  0.38529  0.71953  1.0000
  N   N115      1.0  0.15402  0.54884  0.96768  1.0000
  H   H1377     1.0  0.01934  0.48801  0.79644  1.0000
  C   C1372     1.0  0.03335  0.53764  0.79679  1.0000
  H   H1378     1.0  0.20456  0.57540  0.53150  1.0000
  S   S459      1.0  0.46985  0.56782  0.92178  1.0000
  S   S460      1.0  0.01128  0.54345  0.71921  1.0000
  S   S461      1.0  0.47841  0.53699  0.90065  1.0000
  H   H1379     1.0  0.22431  0.40393  0.82039  1.0000
  H   H1380     1.0  0.18484  0.52585  0.92560  1.0000
  S   S462      1.0  0.00690  0.53535  0.86650  1.0000
  S   S463      1.0  0.18234  0.38464  0.66547  1.0000
  C   C1373     1.0  0.01939  0.58073  0.71331  1.0000
  Fe  Fe227     1.0  0.21837  0.51915  0.94694  1.0000
  C   C1374     1.0  0.30172  0.51424  0.95855  1.0000
  C   C1375     1.0  0.31113  0.49082  0.94440  1.0000
  H   H1381     1.0  0.03230  0.52900  0.77337  1.0000
  H   H1382     1.0  0.02664  0.51598  0.82015  1.0000
  C   C1376     1.0  0.45908  0.47891  0.91431  1.0000
  H   H1383     1.0  0.15304  0.40583  0.67485  1.0000
  C   C1377     1.0  0.15039  0.54432  0.95717  1.0000
  S   S464      1.0  0.15560  0.55438  0.51396  1.0000
  C   C1378     1.0  0.18934  0.40995  0.69566  1.0000
  C   C1379     1.0  0.16983  0.54639  0.91855  1.0000
  N   N116      1.0  0.29139  0.50869  0.95564  1.0000
  C   C1380     1.0  0.29591  0.49704  0.94881  1.0000
  C   C1381     1.0  0.27516  0.38582  0.77724  1.0000
  H   H1384     1.0  0.00620  0.50516  0.71134  1.0000
  H   H1385     1.0  0.15722  0.49224  0.73993  1.0000
  H   H1386     1.0  0.36072  0.50821  0.93231  1.0000
  C   C1382     1.0  0.15884  0.55341  0.91020  1.0000
  N   N117      1.0  0.13592  0.57872  0.67400  1.0000
  C   C1383     1.0  0.08694  0.56491  0.84434  1.0000
  C   C1384     1.0  0.28922  0.39232  0.79079  1.0000
  C   C1385     1.0  0.19053  0.55026  0.53226  1.0000
  S   S465      1.0  0.42259  0.50686  0.92856  1.0000
  C   C1386     1.0  0.09172  0.56498  0.82926  1.0000
  C   C1387     1.0  0.07610  0.55706  0.85302  1.0000
  H   H1387     1.0  0.10004  0.57123  0.82262  1.0000
  C   C1388     1.0  0.19560  0.38655  0.82875  1.0000
  C   C1389     1.0  0.14938  0.40744  0.70303  1.0000
  H   H1388     1.0  0.22127  0.39566  0.66603  1.0000
  H   H1389     1.0  0.09557  0.56703  0.80080  1.0000
  C   C1390     1.0  0.36107  0.48986  0.95112  1.0000
  H   H1390     1.0  0.18918  0.41468  0.80486  1.0000
  N   N118      1.0  0.08613  0.55719  0.82302  1.0000
  C   C1391     1.0  0.07568  0.54925  0.83150  1.0000
  S   S466      1.0  0.23108  0.56452  0.95347  1.0000
  H   H1391     1.0  0.24186  0.47522  0.90832  1.0000
  H   H1392     1.0  0.01943  0.58032  0.74647  1.0000
  S   S467      1.0  0.38988  0.50493  0.91348  1.0000
  C   C1392     1.0  0.35912  0.50487  0.94419  1.0000
  H   H1393     1.0  0.07145  0.54282  0.82667  1.0000
  C   C1393     1.0  0.45519  0.52851  0.92326  1.0000
  H   H1394     1.0  0.32573  0.50252  0.88610  1.0000
  H   H1395     1.0  0.18101  0.50191  0.78469  1.0000
  H   H1396     1.0  0.22531  0.49952  0.90840  1.0000
  Fe  Fe228     1.0  0.19253  0.54489  0.94183  1.0000
  H   H1397     1.0  0.14709  0.55232  0.94756  1.0000
  H   H1398     1.0  0.40151  0.39264  0.84568  1.0000
  H   H1399     1.0  0.18694  0.42905  0.67771  1.0000
  H   H1400     1.0  0.19152  0.43254  0.79383  1.0000
  C   C1394     1.0  0.35489  0.51558  0.95266  1.0000
  H   H1401     1.0  0.41729  0.57158  0.93453  1.0000
  C   C1395     1.0  0.38910  0.51462  0.96010  1.0000
  H   H1402     1.0  0.24562  0.53690  0.89524  1.0000
  C   C1396     1.0  0.25980  0.51660  0.88961  1.0000
  C   C1397     1.0  0.14378  0.38712  0.67779  1.0000
  S   S468      1.0  0.17494  0.55655  0.92830  1.0000
  H   H1403     1.0  0.19476  0.48277  0.77017  1.0000
  Fe  Fe229     1.0  0.99759  0.52929  0.85064  1.0000
  C   C1398     1.0  0.46153  0.46948  0.90485  1.0000
  C   C1399     1.0  0.35855  0.48556  0.96653  1.0000
  Fe  Fe230     1.0  0.21870  0.54865  0.95171  1.0000
  N   N119      1.0  0.33070  0.52076  0.89029  1.0000
  C   C1400     1.0  0.45112  0.47536  0.92885  1.0000
  C   C1401     1.0  0.18684  0.41740  0.68158  1.0000
  H   H1404     1.0  0.15373  0.56503  0.90964  1.0000
  H   H1405     1.0  0.32764  0.51761  0.87026  1.0000
  C   C1402     1.0  0.16089  0.57614  0.65086  1.0000
  C   C1403     1.0  0.16522  0.51226  0.77058  1.0000
  S   S469      1.0  0.19385  0.55398  0.96037  1.0000
  H   H1406     1.0  0.35381  0.52707  0.94722  1.0000
  C   C1404     1.0  0.09205  0.55662  0.80739  1.0000
  C   C1405     1.0  0.23381  0.51925  0.90214  1.0000
  C   C1406     1.0  0.18055  0.49096  0.75428  1.0000
  H   H1407     1.0  0.18660  0.48258  0.74796  1.0000
  S   S470      1.0  0.46433  0.56149  0.96349  1.0000
  C   C1407     1.0  0.35263  0.51130  0.96807  1.0000
  H   H1408     1.0  0.28083  0.56988  0.95159  1.0000
  S   S471      1.0  0.99774  0.54332  0.82773  1.0000
  H   H1409     1.0  0.31531  0.39569  0.92517  1.0000
  H   H1410     1.0  0.25167  0.54405  0.93591  1.0000
  H   H1411     1.0  0.25745  0.40347  0.76973  1.0000
  C   C1408     1.0  0.31704  0.38630  0.92034  1.0000
  H   H1412     1.0  0.35009  0.38868  0.89856  1.0000
  Fe  Fe231     1.0  0.33103  0.57687  0.95049  1.0000
  H   H1413     1.0  0.44502  0.43347  0.94100  1.0000
  N   N120      1.0  0.38382  0.52966  0.95192  1.0000
  H   H1414     1.0  0.25319  0.57630  0.95806  1.0000
  C   C1409     1.0  0.99567  0.57579  0.68807  1.0000
  C   C1410     1.0  0.18489  0.39440  0.67714  1.0000
  H   H1415     1.0  0.13928  0.41431  0.70887  1.0000
  Fe  Fe232     1.0  0.15591  0.58047  0.59644  1.0000
  H   H1416     1.0  0.00443  0.54698  0.50799  1.0000
  C   C1411     1.0  0.43728  0.58120  0.96868  1.0000
  H   H1417     1.0  0.45356  0.56193  0.89169  1.0000
  H   H1418     1.0  0.00871  0.48500  0.65175  1.0000
  C   C1412     1.0  0.15322  0.56462  0.96594  1.0000
  C   C1413     1.0  0.43910  0.56988  0.91081  1.0000
  H   H1419     1.0  0.00015  0.47284  0.82952  1.0000
  H   H1420     1.0  0.15873  0.56937  0.95446  1.0000
  H   H1421     1.0  0.40118  0.51274  0.95993  1.0000
  H   H1422     1.0  0.27316  0.52582  0.96286  1.0000
  H   H1423     1.0  0.12633  0.57605  0.69699  1.0000
  C   C1414     1.0  0.15587  0.51893  0.97051  1.0000
  Fe  Fe233     1.0  0.30603  0.56923  0.97639  1.0000
  C   C1415     1.0  0.13855  0.38595  0.70777  1.0000
  H   H1424     1.0  0.48549  0.58020  0.96414  1.0000
  H   H1425     1.0  0.38266  0.51267  0.97176  1.0000
  C   C1416     1.0  0.00158  0.49539  0.64745  1.0000
  S   S472      1.0  0.49511  0.53937  0.93429  1.0000
  H   H1426     1.0  0.17068  0.57515  0.64187  1.0000
  H   H1427     1.0  0.27069  0.50711  0.97084  1.0000
  Fe  Fe234     1.0  0.48815  0.58024  0.91205  1.0000
  C   C1417     1.0  0.44905  0.57128  0.89700  1.0000
  H   H1428     1.0  0.29818  0.52351  0.96393  1.0000
  N   N121      1.0  0.99840  0.58233  0.67333  1.0000
  Fe  Fe235     1.0  0.99843  0.55496  0.73761  1.0000
  C   C1418     1.0  0.45171  0.57854  0.95980  1.0000
  H   H1429     1.0  0.15703  0.50721  0.97142  1.0000
  C   C1419     1.0  0.24419  0.70330  0.47657  1.0000
  H   H1430     1.0  0.47633  0.75790  0.12754  1.0000
  H   H1431     1.0  0.15600  0.68837  0.45557  1.0000
  H   H1432     1.0  0.38061  0.60334  0.06800  1.0000
  C   C1420     1.0  0.45088  0.75679  0.47029  1.0000
  H   H1433     1.0  0.45262  0.69751  0.99523  1.0000
  S   S473      1.0  0.19609  0.58851  0.45178  1.0000
  S   S474      1.0  0.38865  0.62046  0.01765  1.0000
  Fe  Fe236     1.0  0.00843  0.65321  0.33863  1.0000
  H   H1434     1.0  0.03844  0.60322  0.24389  1.0000
  C   C1421     1.0  0.38713  0.68674  0.01005  1.0000
  C   C1422     1.0  0.33007  0.61383  0.00810  1.0000
  S   S475      1.0  0.47147  0.61342  0.11174  1.0000
  Fe  Fe237     1.0  0.39729  0.66523  0.06517  1.0000
  S   S476      1.0  0.37619  0.68285  0.06615  1.0000
  S   S477      1.0  0.41084  0.66228  0.04267  1.0000
  Fe  Fe238     1.0  0.39508  0.65853  0.09831  1.0000
  S   S478      1.0  0.37374  0.67555  0.10200  1.0000
  S   S479      1.0  0.40329  0.64558  0.11889  1.0000
  Fe  Fe239     1.0  0.36717  0.66672  0.08615  1.0000
  S   S480      1.0  0.34436  0.66184  0.09146  1.0000
  Fe  Fe240     1.0  0.38491  0.68985  0.08181  1.0000
  S   S481      1.0  0.38586  0.71339  0.07934  1.0000
  S   S482      1.0  0.38765  0.64839  0.08411  1.0000
  S   S483      1.0  0.40683  0.67354  0.07917  1.0000
  H   H1435     1.0  0.03068  0.61417  0.30463  1.0000
  C   C1423     1.0  0.33844  0.62273  0.00984  1.0000
  S   S484      1.0  0.47144  0.69483  0.20318  1.0000
  H   H1436     1.0  0.07336  0.77978  0.35981  1.0000
  H   H1437     1.0  0.26096  0.65727  0.45129  1.0000
  S   S485      1.0  0.46907  0.62442  0.20983  1.0000
  S   S486      1.0  0.39660  0.76392  0.99773  1.0000
  H   H1438     1.0  0.44030  0.70718  0.08713  1.0000
  H   H1439     1.0  0.00906  0.72991  0.41383  1.0000
  N   N122      1.0  0.44406  0.61983  0.17711  1.0000
  C   C1424     1.0  0.48082  0.71135  0.21634  1.0000
  S   S487      1.0  0.46734  0.66417  0.18536  1.0000
  Fe  Fe241     1.0  0.42398  0.74205  0.11951  1.0000
  S   S488      1.0  0.44229  0.74060  0.09918  1.0000
  S   S489      1.0  0.40966  0.72514  0.12889  1.0000
  Fe  Fe242     1.0  0.45603  0.74569  0.11170  1.0000
  H   H1440     1.0  0.49479  0.63100  0.10389  1.0000
  S   S490      1.0  0.43854  0.74481  0.13264  1.0000
  H   H1441     1.0  0.99996  0.58481  0.47187  1.0000
  C   C1425     1.0  0.35655  0.75940  0.47532  1.0000
  S   S491      1.0  0.41572  0.72945  0.99925  1.0000
  S   S492      1.0  0.30658  0.60112  0.05428  1.0000
  Fe  Fe243     1.0  0.10861  0.59138  0.27916  1.0000
  Fe  Fe244     1.0  0.32282  0.60706  0.06336  1.0000
  S   S493      1.0  0.33576  0.62476  0.05111  1.0000
  Fe  Fe245     1.0  0.29440  0.59551  0.07802  1.0000
  H   H1442     1.0  0.14873  0.60564  0.14392  1.0000
  H   H1443     1.0  0.08522  0.59900  0.36561  1.0000
  H   H1444     1.0  0.05201  0.77929  0.35046  1.0000
  C   C1426     1.0  0.09476  0.59899  0.35584  1.0000
  S   S494      1.0  0.08619  0.60093  0.29221  1.0000
  H   H1445     1.0  0.08027  0.61524  0.25563  1.0000
  H   H1446     1.0  0.35447  0.67195  0.03871  1.0000
  C   C1427     1.0  0.42872  0.78050  0.39499  1.0000
  Fe  Fe246     1.0  0.09928  0.60454  0.30644  1.0000
  S   S495      1.0  0.09015  0.62483  0.31606  1.0000
  H   H1447     1.0  0.43722  0.59981  0.18957  1.0000
  H   H1448     1.0  0.16663  0.66702  0.44360  1.0000
  C   C1428     1.0  0.05694  0.76947  0.40334  1.0000
  C   C1429     1.0  0.03786  0.61421  0.31155  1.0000
  C   C1430     1.0  0.35715  0.62294  0.10149  1.0000
  S   S496      1.0  0.41069  0.76252  0.47525  1.0000
  C   C1431     1.0  0.14230  0.58669  0.14210  1.0000
  S   S497      1.0  0.41458  0.74184  0.03287  1.0000
  C   C1432     1.0  0.00192  0.63542  0.31194  1.0000
  H   H1449     1.0  0.32693  0.59158  0.01263  1.0000
  C   C1433     1.0  0.22794  0.69667  0.44472  1.0000
  C   C1434     1.0  0.00214  0.72466  0.42372  1.0000
  H   H1450     1.0  0.38322  0.70780  0.03225  1.0000
  H   H1451     1.0  0.21781  0.61750  0.04891  1.0000
  C   C1435     1.0  0.36494  0.61800  0.08854  1.0000
  H   H1452     1.0  0.41307  0.67403  0.14422  1.0000
  H   H1453     1.0  0.17481  0.66241  0.41548  1.0000
  Fe  Fe247     1.0  0.39881  0.74521  0.98705  1.0000
  N   N123      1.0  0.35290  0.60139  0.02345  1.0000
  C   C1436     1.0  0.42948  0.69547  0.02882  1.0000
  N   N124      1.0  0.42184  0.68064  0.12096  1.0000
  C   C1437     1.0  0.37228  0.75115  0.08440  1.0000
  C   C1438     1.0  0.04066  0.62752  0.31205  1.0000
  Fe  Fe248     1.0  0.11855  0.65063  0.36919  1.0000
  S   S498      1.0  0.11400  0.63622  0.39188  1.0000
  S   S499      1.0  0.13009  0.63988  0.34982  1.0000
  Fe  Fe249     1.0  0.10746  0.67910  0.38061  1.0000
  S   S500      1.0  0.10184  0.66711  0.40420  1.0000
  S   S501      1.0  0.10252  0.70399  0.37575  1.0000
  Fe  Fe250     1.0  0.12370  0.65136  0.39854  1.0000
  S   S502      1.0  0.14038  0.64354  0.41301  1.0000
  Fe  Fe251     1.0  0.09263  0.65329  0.39532  1.0000
  S   S503      1.0  0.07020  0.64806  0.40636  1.0000
  S   S504      1.0  0.13019  0.66444  0.37552  1.0000
  S   S505      1.0  0.09629  0.66666  0.37203  1.0000
  Fe  Fe252     1.0  0.02459  0.77752  0.38691  1.0000
  C   C1439     1.0  0.44336  0.71435  0.02397  1.0000
  S   S506      1.0  0.43354  0.75598  0.99041  1.0000
  S   S507      1.0  0.30234  0.72224  0.47692  1.0000
  H   H1454     1.0  0.38797  0.74152  0.05744  1.0000
  C   C1440     1.0  0.06745  0.76468  0.41230  1.0000
  H   H1455     1.0  0.25020  0.76522  0.47156  1.0000
  S   S508      1.0  0.19386  0.68099  0.45753  1.0000
  H   H1456     1.0  0.45935  0.74797  0.47552  1.0000
  C   C1441     1.0  0.34847  0.60205  0.09299  1.0000
  C   C1442     1.0  0.43278  0.70650  0.03338  1.0000
  H   H1457     1.0  0.09022  0.60291  0.34566  1.0000
  Fe  Fe253     1.0  0.13971  0.75193  0.43331  1.0000
  S   S509      1.0  0.15652  0.75414  0.41191  1.0000
  S   S510      1.0  0.14669  0.74216  0.45506  1.0000
  Fe  Fe254     1.0  0.14101  0.74655  0.40342  1.0000
  S   S511      1.0  0.15018  0.72848  0.39067  1.0000
  S   S512      1.0  0.12534  0.74241  0.42542  1.0000
  Fe  Fe255     1.0  0.02541  0.63611  0.36227  1.0000
  S   S513      1.0  0.02289  0.65966  0.34951  1.0000
  S   S514      1.0  0.04865  0.62331  0.36399  1.0000
  C   C1443     1.0  0.13184  0.60077  0.44549  1.0000
  C   C1444     1.0  0.43545  0.69944  0.09658  1.0000
  S   S515      1.0  0.12985  0.58608  0.15954  1.0000
  H   H1458     1.0  0.15439  0.59732  0.44806  1.0000
  S   S516      1.0  0.49340  0.74422  0.34545  1.0000
  H   H1459     1.0  0.36993  0.65793  0.01954  1.0000
  S   S517      1.0  0.01254  0.62933  0.35007  1.0000
  C   C1445     1.0  0.33510  0.75032  0.47578  1.0000
  H   H1460     1.0  0.46863  0.75407  0.44417  1.0000
  H   H1461     1.0  0.49421  0.71669  0.33979  1.0000
  C   C1446     1.0  0.16337  0.71692  0.46924  1.0000
  C   C1447     1.0  0.34486  0.59254  0.02166  1.0000
  Fe  Fe256     1.0  0.48659  0.66239  0.16589  1.0000
  H   H1462     1.0  0.42118  0.68947  0.03616  1.0000
  H   H1463     1.0  0.49107  0.68247  0.24623  1.0000
  C   C1448     1.0  0.33682  0.75554  0.46053  1.0000
  C   C1449     1.0  0.03061  0.61237  0.26935  1.0000
  H   H1464     1.0  0.22196  0.59757  0.05527  1.0000
  H   H1465     1.0  0.44130  0.70736  0.11247  1.0000
  C   C1450     1.0  0.15456  0.58650  0.41406  1.0000
  C   C1451     1.0  0.16096  0.59874  0.12377  1.0000
  C   C1452     1.0  0.01743  0.72009  0.37019  1.0000
  H   H1466     1.0  0.01708  0.67898  0.43018  1.0000
  C   C1453     1.0  0.48063  0.68498  0.13531  1.0000
  H   H1467     1.0  0.00315  0.70632  0.41473  1.0000
  C   C1454     1.0  0.01473  0.69857  0.36345  1.0000
  C   C1455     1.0  0.02183  0.71035  0.36058  1.0000
  C   C1456     1.0  0.42804  0.76707  0.05881  1.0000
  H   H1468     1.0  0.01798  0.69128  0.35585  1.0000
  H   H1469     1.0  0.03058  0.71208  0.35075  1.0000
  C   C1457     1.0  0.18130  0.69828  0.45698  1.0000
  H   H1470     1.0  0.37605  0.59351  0.02289  1.0000
  H   H1471     1.0  0.06331  0.60067  0.22670  1.0000
  C   C1458     1.0  0.16020  0.72541  0.45564  1.0000
  C   C1459     1.0  0.16773  0.72038  0.44270  1.0000
  C   C1460     1.0  0.17835  0.70691  0.44336  1.0000
  H   H1472     1.0  0.19806  0.60439  0.10336  1.0000
  S   S518      1.0  0.32387  0.75388  0.45155  1.0000
  H   H1473     1.0  0.16530  0.72677  0.43218  1.0000
  H   H1474     1.0  0.18404  0.70303  0.43331  1.0000
  C   C1461     1.0  0.06461  0.63999  0.39527  1.0000
  C   C1462     1.0  0.04984  0.63837  0.39861  1.0000
  C   C1463     1.0  0.04488  0.63323  0.38901  1.0000
  C   C1464     1.0  0.05481  0.62930  0.37631  1.0000
  C   C1465     1.0  0.06970  0.63048  0.37323  1.0000
  C   C1466     1.0  0.07457  0.63597  0.38261  1.0000
  H   H1475     1.0  0.04218  0.64133  0.40848  1.0000
  H   H1476     1.0  0.03345  0.63207  0.39159  1.0000
  H   H1477     1.0  0.07735  0.62751  0.36340  1.0000
  H   H1478     1.0  0.08602  0.63712  0.38002  1.0000
  C   C1467     1.0  0.11570  0.71019  0.38072  1.0000
  C   C1468     1.0  0.11094  0.72165  0.38838  1.0000
  C   C1469     1.0  0.12144  0.72735  0.39152  1.0000
  C   C1470     1.0  0.13675  0.72157  0.38700  1.0000
  C   C1471     1.0  0.14149  0.70989  0.37964  1.0000
  C   C1472     1.0  0.13099  0.70415  0.37659  1.0000
  H   H1479     1.0  0.09913  0.72595  0.39210  1.0000
  H   H1480     1.0  0.11771  0.73623  0.39740  1.0000
  H   H1481     1.0  0.15333  0.70535  0.37622  1.0000
  H   H1482     1.0  0.13478  0.69528  0.37073  1.0000
  S   S519      1.0  0.43035  0.77736  0.07020  1.0000
  C   C1473     1.0  0.12048  0.61040  0.43870  1.0000
  C   C1474     1.0  0.12300  0.62370  0.42891  1.0000
  C   C1475     1.0  0.13681  0.62747  0.42603  1.0000
  C   C1476     1.0  0.14799  0.61810  0.43324  1.0000
  C   C1477     1.0  0.14555  0.60470  0.44288  1.0000
  H   H1483     1.0  0.10983  0.60745  0.44079  1.0000
  H   H1484     1.0  0.11422  0.63105  0.42360  1.0000
  H   H1485     1.0  0.15871  0.62097  0.43102  1.0000
  H   H1486     1.0  0.21624  0.61381  0.11044  1.0000
  C   C1478     1.0  0.25829  0.70485  0.47677  1.0000
  H   H1487     1.0  0.48101  0.75813  0.30063  1.0000
  C   C1479     1.0  0.34860  0.76257  0.45258  1.0000
  H   H1488     1.0  0.02674  0.62347  0.27209  1.0000
  S   S520      1.0  0.37250  0.65204  0.98847  1.0000
  C   C1480     1.0  0.46860  0.76112  0.13769  1.0000
  H   H1489     1.0  0.46816  0.64190  0.14381  1.0000
  H   H1490     1.0  0.06328  0.61475  0.33611  1.0000
  S   S521      1.0  0.08820  0.76920  0.42406  1.0000
  C   C1481     1.0  0.15334  0.68875  0.44523  1.0000
  C   C1482     1.0  0.25087  0.70436  0.44135  1.0000
  N   N125      1.0  0.10457  0.58422  0.35606  1.0000
  S   S522      1.0  0.26941  0.59884  0.08606  1.0000
  H   H1491     1.0  0.16709  0.60746  0.12018  1.0000
  H   H1492     1.0  0.14489  0.62028  0.47468  1.0000
  C   C1483     1.0  0.10134  0.62872  0.32552  1.0000
  C   C1484     1.0  0.09476  0.63836  0.33520  1.0000
  C   C1485     1.0  0.10340  0.64146  0.34310  1.0000
  C   C1486     1.0  0.11876  0.63528  0.34100  1.0000
  C   C1487     1.0  0.12535  0.62571  0.33124  1.0000
  C   C1488     1.0  0.11663  0.62228  0.32365  1.0000
  H   H1493     1.0  0.08290  0.64328  0.33676  1.0000
  H   H1494     1.0  0.09821  0.64878  0.35065  1.0000
  H   H1495     1.0  0.13726  0.62097  0.32952  1.0000
  H   H1496     1.0  0.12179  0.61491  0.31611  1.0000
  N   N126      1.0  0.36067  0.60752  0.08456  1.0000
  Fe  Fe257     1.0  0.43113  0.76926  0.12420  1.0000
  H   H1497     1.0  0.14459  0.69003  0.40817  1.0000
  C   C1489     1.0  0.38951  0.76615  0.07027  1.0000
  H   H1498     1.0  0.48033  0.71158  0.16030  1.0000
  S   S523      1.0  0.47881  0.77716  0.24635  1.0000
  H   H1499     1.0  0.48834  0.72364  0.22740  1.0000
  H   H1500     1.0  0.13422  0.71169  0.41957  1.0000
  H   H1501     1.0  0.42471  0.73265  0.05959  1.0000
  S   S524      1.0  0.38288  0.61915  0.97953  1.0000
  H   H1502     1.0  0.39065  0.66782  0.00073  1.0000
  C   C1490     1.0  0.49170  0.71597  0.22015  1.0000
  H   H1503     1.0  0.45861  0.71725  0.00268  1.0000
  C   C1491     1.0  0.38167  0.70825  0.02113  1.0000
  C   C1492     1.0  0.00611  0.71783  0.38283  1.0000
  H   H1504     1.0  0.23680  0.60709  0.04937  1.0000
  H   H1505     1.0  0.11965  0.59422  0.22398  1.0000
  Fe  Fe258     1.0  0.38883  0.63052  0.99366  1.0000
  Fe  Fe259     1.0  0.14237  0.77692  0.40617  1.0000
  H   H1506     1.0  0.06159  0.64453  0.31223  1.0000
  C   C1493     1.0  0.43610  0.69950  0.11080  1.0000
  H   H1507     1.0  0.39619  0.69091  0.00181  1.0000
  S   S525      1.0  0.28115  0.75327  0.46252  1.0000
  N   N127      1.0  0.37868  0.69429  0.02073  1.0000
  C   C1494     1.0  0.38559  0.71983  0.98043  1.0000
  H   H1508     1.0  0.48288  0.61790  0.18057  1.0000
  Fe  Fe260     1.0  0.48059  0.64263  0.19592  1.0000
  C   C1495     1.0  0.25728  0.68989  0.44783  1.0000
  N   N128      1.0  0.04935  0.62765  0.32110  1.0000
  C   C1496     1.0  0.26875  0.58726  0.06352  1.0000
  C   C1497     1.0  0.10807  0.58615  0.24620  1.0000
  C   C1498     1.0  0.46747  0.70906  0.12388  1.0000
  C   C1499     1.0  0.48512  0.70111  0.20726  1.0000
  H   H1509     1.0  0.42249  0.61644  0.18885  1.0000
  C   C1500     1.0  0.47423  0.77875  0.28548  1.0000
  H   H1510     1.0  0.45830  0.68952  0.13191  1.0000
  H   H1511     1.0  0.45754  0.71615  0.12043  1.0000
  H   H1512     1.0  0.04202  0.65082  0.32034  1.0000
  H   H1513     1.0  0.42091  0.65919  0.13430  1.0000
  C   C1501     1.0  0.34168  0.65225  0.07976  1.0000
  C   C1502     1.0  0.32937  0.64562  0.08413  1.0000
  C   C1503     1.0  0.32747  0.63715  0.07540  1.0000
  C   C1504     1.0  0.33764  0.63564  0.06205  1.0000
  C   C1505     1.0  0.34972  0.64264  0.05745  1.0000
  C   C1506     1.0  0.35192  0.65069  0.06644  1.0000
  H   H1514     1.0  0.32140  0.64685  0.09442  1.0000
  H   H1515     1.0  0.31796  0.63205  0.07888  1.0000
  H   H1516     1.0  0.35746  0.64165  0.04702  1.0000
  H   H1517     1.0  0.36147  0.65575  0.06305  1.0000
  C   C1507     1.0  0.39292  0.71589  0.09321  1.0000
  C   C1508     1.0  0.40130  0.72665  0.08968  1.0000
  C   C1509     1.0  0.40633  0.72960  0.10063  1.0000
  C   C1510     1.0  0.40298  0.72176  0.11524  1.0000
  C   C1511     1.0  0.39465  0.71088  0.11884  1.0000
  C   C1512     1.0  0.38971  0.70785  0.10780  1.0000
  H   H1518     1.0  0.40364  0.73295  0.07849  1.0000
  H   H1519     1.0  0.41260  0.73811  0.09780  1.0000
  H   H1520     1.0  0.39200  0.70481  0.13016  1.0000
  H   H1521     1.0  0.38310  0.69960  0.11065  1.0000
  C   C1513     1.0  0.14710  0.68954  0.41861  1.0000
  C   C1514     1.0  0.42213  0.63630  0.11638  1.0000
  C   C1515     1.0  0.43250  0.64053  0.10345  1.0000
  C   C1516     1.0  0.44767  0.63346  0.10209  1.0000
  C   C1517     1.0  0.45241  0.62186  0.11346  1.0000
  C   C1518     1.0  0.44196  0.61745  0.12625  1.0000
  C   C1519     1.0  0.42689  0.62483  0.12780  1.0000
  H   H1522     1.0  0.42888  0.64933  0.09456  1.0000
  H   H1523     1.0  0.45573  0.63686  0.09216  1.0000
  H   H1524     1.0  0.45770  0.65088  0.16702  1.0000
  H   H1525     1.0  0.36903  0.75205  0.05761  1.0000
  C   C1520     1.0  0.47993  0.71491  0.12183  1.0000
  C   C1521     1.0  0.47664  0.59788  0.18120  1.0000
  C   C1522     1.0  0.47728  0.60923  0.18735  1.0000
  C   C1523     1.0  0.47018  0.60958  0.20210  1.0000
  C   C1524     1.0  0.46293  0.59828  0.21078  1.0000
  C   C1525     1.0  0.36865  0.60275  0.07076  1.0000
  H   H1526     1.0  0.42046  0.68178  0.01360  1.0000
  H   H1527     1.0  0.39617  0.77067  0.05974  1.0000
  H   H1528     1.0  0.45750  0.59843  0.22221  1.0000
  H   H1529     1.0  0.44550  0.60854  0.13505  1.0000
  C   C1526     1.0  0.20772  0.60752  0.09519  1.0000
  H   H1530     1.0  0.36408  0.58399  0.03860  1.0000
  S   S526      1.0  0.12638  0.77526  0.42830  1.0000
  H   H1531     1.0  0.27828  0.59196  0.05741  1.0000
  H   H1532     1.0  0.47441  0.77325  0.27704  1.0000
  H   H1533     1.0  0.06083  0.67004  0.37591  1.0000
  H   H1534     1.0  0.26864  0.68748  0.44936  1.0000
  C   C1527     1.0  0.45282  0.74955  0.16024  1.0000
  H   H1535     1.0  0.15834  0.66580  0.40834  1.0000
  H   H1536     1.0  0.04552  0.66569  0.37210  1.0000
  H   H1537     1.0  0.35007  0.76655  0.44072  1.0000
  H   H1538     1.0  0.43022  0.74638  0.07473  1.0000
  H   H1539     1.0  0.23924  0.77560  0.44953  1.0000
  H   H1540     1.0  0.42734  0.68976  0.08365  1.0000
  H   H1541     1.0  0.10097  0.60708  0.35606  1.0000
  H   H1542     1.0  0.39188  0.71078  0.01286  1.0000
  H   H1543     1.0  0.12353  0.59262  0.34241  1.0000
  C   C1528     1.0  0.00323  0.69650  0.37599  1.0000
  H   H1544     1.0  0.38367  0.76534  0.10683  1.0000
  H   H1545     1.0  0.05883  0.73236  0.36798  1.0000
  S   S527      1.0  0.43652  0.75978  0.43581  1.0000
  H   H1546     1.0  0.46907  0.71552  0.22063  1.0000
  C   C1529     1.0  0.35851  0.76444  0.45996  1.0000
  H   H1547     1.0  0.42925  0.69063  0.13397  1.0000
  C   C1530     1.0  0.39573  0.63114  0.02490  1.0000
  C   C1531     1.0  0.39006  0.63236  0.03961  1.0000
  C   C1532     1.0  0.39464  0.64194  0.04514  1.0000
  C   C1533     1.0  0.40531  0.64990  0.03611  1.0000
  C   C1534     1.0  0.41141  0.64823  0.02155  1.0000
  C   C1535     1.0  0.40648  0.63901  0.01590  1.0000
  H   H1548     1.0  0.38181  0.62623  0.04660  1.0000
  H   H1549     1.0  0.38984  0.64319  0.05634  1.0000
  H   H1550     1.0  0.41977  0.65424  0.01453  1.0000
  H   H1551     1.0  0.41112  0.63790  0.00461  1.0000
  H   H1552     1.0  0.15247  0.77360  0.44543  1.0000
  C   C1536     1.0  0.15050  0.59774  0.13723  1.0000
  Fe  Fe261     1.0  0.43262  0.73832  0.98009  1.0000
  H   H1553     1.0  0.03570  0.63779  0.30529  1.0000
  C   C1537     1.0  0.44705  0.69988  0.00603  1.0000
  H   H1554     1.0  0.36711  0.74900  0.10807  1.0000
  Fe  Fe262     1.0  0.43404  0.76527  0.09312  1.0000
  S   S528      1.0  0.30935  0.60378  0.08671  1.0000
  H   H1555     1.0  0.09268  0.76817  0.37231  1.0000
  C   C1538     1.0  0.07424  0.74332  0.37119  1.0000
  C   C1539     1.0  0.19819  0.59531  0.46595  1.0000
  H   H1556     1.0  0.48129  0.77276  0.42559  1.0000
  H   H1557     1.0  0.47734  0.76543  0.39193  1.0000
  H   H1558     1.0  0.44527  0.75182  0.46485  1.0000
  C   C1540     1.0  0.38248  0.76331  0.09676  1.0000
  H   H1559     1.0  0.36377  0.71477  0.98647  1.0000
  Fe  Fe263     1.0  0.48097  0.67499  0.19286  1.0000
  C   C1541     1.0  0.34037  0.60680  0.10594  1.0000
  H   H1560     1.0  0.44775  0.60455  0.16351  1.0000
  H   H1561     1.0  0.48179  0.59791  0.16976  1.0000
  C   C1542     1.0  0.42815  0.68971  0.09464  1.0000
  C   C1543     1.0  0.42918  0.69000  0.12295  1.0000
  H   H1562     1.0  0.37418  0.62285  0.08153  1.0000
  H   H1563     1.0  0.36831  0.59110  0.07162  1.0000
  S   S529      1.0  0.39463  0.78046  0.44772  1.0000
  C   C1544     1.0  0.99645  0.73126  0.43591  1.0000
  H   H1564     1.0  0.06658  0.75524  0.42150  1.0000
  C   C1545     1.0  0.47257  0.72224  0.16039  1.0000
  C   C1546     1.0  0.04423  0.60098  0.32020  1.0000
  C   C1547     1.0  0.24633  0.77706  0.46824  1.0000
  S   S530      1.0  0.11550  0.59582  0.25432  1.0000
  H   H1565     1.0  0.04207  0.59058  0.32005  1.0000
  S   S531      1.0  0.01448  0.77650  0.36885  1.0000
  C   C1548     1.0  0.16242  0.66432  0.41850  1.0000
  C   C1549     1.0  0.34996  0.61627  0.01749  1.0000
  S   S532      1.0  0.49030  0.58839  0.14328  1.0000
  C   C1550     1.0  0.14426  0.70142  0.43845  1.0000
  C   C1551     1.0  0.06219  0.74274  0.36594  1.0000
  C   C1552     1.0  0.46875  0.58698  0.18974  1.0000
  C   C1553     1.0  0.25600  0.66408  0.45973  1.0000
  S   S533      1.0  0.12825  0.76956  0.39544  1.0000
  H   H1566     1.0  0.43588  0.61267  0.20027  1.0000
  C   C1554     1.0  0.43276  0.68084  0.01070  1.0000
  C   C1555     1.0  0.02218  0.77434  0.43301  1.0000
  C   C1556     1.0  0.45927  0.76297  0.41120  1.0000
  H   H1567     1.0  0.36566  0.74340  0.08508  1.0000
  N   N129      1.0  0.46547  0.74809  0.14926  1.0000
  C   C1557     1.0  0.99573  0.62818  0.30508  1.0000
  H   H1568     1.0  0.08032  0.73318  0.37718  1.0000
  C   C1558     1.0  0.42481  0.74427  0.05541  1.0000
  H   H1569     1.0  0.36034  0.63150  0.10444  1.0000
  C   C1559     1.0  0.42147  0.68023  0.10703  1.0000
  C   C1560     1.0  0.17383  0.70331  0.46993  1.0000
  H   H1570     1.0  0.41914  0.77211  0.02549  1.0000
  C   C1561     1.0  0.33331  0.59862  0.01399  1.0000
  C   C1562     1.0  0.46140  0.63569  0.15313  1.0000
  C   C1563     1.0  0.45957  0.72357  0.17148  1.0000
  C   C1564     1.0  0.99910  0.70601  0.38575  1.0000
  C   C1565     1.0  0.00217  0.65044  0.30633  1.0000
  H   H1571     1.0  0.16101  0.77727  0.42593  1.0000
  H   H1572     1.0  0.21640  0.69916  0.44367  1.0000
  H   H1573     1.0  0.05876  0.59087  0.33552  1.0000
  C   C1566     1.0  0.45059  0.71100  0.01023  1.0000
  C   C1567     1.0  0.45547  0.64076  0.16619  1.0000
  H   H1574     1.0  0.00283  0.72514  0.39039  1.0000
  S   S534      1.0  0.17717  0.59067  0.09831  1.0000
  H   H1575     1.0  0.04809  0.76369  0.40569  1.0000
  C   C1568     1.0  0.45864  0.62259  0.15217  1.0000
  H   H1576     1.0  0.37220  0.71758  0.01842  1.0000
  H   H1577     1.0  0.45722  0.71397  0.18008  1.0000
  C   C1569     1.0  0.47787  0.77709  0.30970  1.0000
  H   H1578     1.0  0.36762  0.76975  0.45377  1.0000
  C   C1570     1.0  0.04867  0.67392  0.37608  1.0000
  H   H1579     1.0  0.13081  0.58782  0.42140  1.0000
  N   N130      1.0  0.07823  0.75649  0.36888  1.0000
  C   C1571     1.0  0.44680  0.63263  0.17817  1.0000
  C   C1572     1.0  0.05211  0.64173  0.32143  1.0000
  C   C1573     1.0  0.05843  0.76906  0.35595  1.0000
  H   H1580     1.0  0.19278  0.77083  0.42866  1.0000
  Fe  Fe264     1.0  0.41809  0.77235  0.45113  1.0000
  C   C1574     1.0  0.42128  0.75151  0.04168  1.0000
  C   C1575     1.0  0.05428  0.75571  0.35826  1.0000
  C   C1576     1.0  0.47797  0.77013  0.29880  1.0000
  N   N131      1.0  0.04523  0.61115  0.25898  1.0000
  C   C1577     1.0  0.05682  0.61430  0.26240  1.0000
  C   C1578     1.0  0.04743  0.60630  0.24633  1.0000
  C   C1579     1.0  0.07097  0.61297  0.25286  1.0000
  C   C1580     1.0  0.06144  0.60483  0.23657  1.0000
  C   C1581     1.0  0.07318  0.60840  0.23979  1.0000
  C   C1582     1.0  0.43438  0.61183  0.18954  1.0000
  H   H1581     1.0  0.48555  0.73359  0.14080  1.0000
  C   C1583     1.0  0.47543  0.73472  0.14938  1.0000
  H   H1582     1.0  0.43651  0.68164  0.99856  1.0000
  C   C1584     1.0  0.37548  0.71125  0.98153  1.0000
  H   H1583     1.0  0.08407  0.60737  0.23228  1.0000
  Fe  Fe265     1.0  0.38728  0.77292  0.47227  1.0000
  C   C1585     1.0  0.44975  0.61482  0.16428  1.0000
  H   H1584     1.0  0.32114  0.61872  0.00215  1.0000
  S   S535      1.0  0.37945  0.73598  0.98744  1.0000
  H   H1585     1.0  0.43953  0.73845  0.18005  1.0000
  H   H1586     1.0  0.00047  0.60937  0.38699  1.0000
  H   H1587     1.0  0.02187  0.61084  0.26468  1.0000
  N   N132      1.0  0.38045  0.75709  0.07104  1.0000
  N   N133      1.0  0.04008  0.67506  0.39104  1.0000
  C   C1586     1.0  0.02616  0.67196  0.39581  1.0000
  C   C1587     1.0  0.04578  0.67983  0.39994  1.0000
  C   C1588     1.0  0.01763  0.67343  0.40989  1.0000
  C   C1589     1.0  0.03767  0.68118  0.41419  1.0000
  C   C1590     1.0  0.02353  0.67791  0.41918  1.0000
  C   C1591     1.0  0.44965  0.73731  0.17146  1.0000
  S   S536      1.0  0.49224  0.65357  0.20556  1.0000
  H   H1588     1.0  0.05687  0.68217  0.39622  1.0000
  H   H1589     1.0  0.00649  0.67122  0.41353  1.0000
  H   H1590     1.0  0.04238  0.68463  0.42133  1.0000
  H   H1591     1.0  0.00654  0.62937  0.32149  1.0000
  S   S537      1.0  0.41474  0.76644  0.11285  1.0000
  H   H1592     1.0  0.46342  0.61845  0.14212  1.0000
  S   S538      1.0  0.01038  0.65982  0.31406  1.0000
  N   N134      1.0  0.22247  0.60972  0.07034  1.0000
  C   C1592     1.0  0.21019  0.60605  0.08064  1.0000
  C   C1593     1.0  0.23225  0.61537  0.07401  1.0000
  C   C1594     1.0  0.11174  0.58759  0.23083  1.0000
  C   C1595     1.0  0.23018  0.61690  0.08847  1.0000
  C   C1596     1.0  0.21786  0.61289  0.09913  1.0000
  C   C1597     1.0  0.22486  0.60797  0.05520  1.0000
  H   H1593     1.0  0.20227  0.60180  0.07771  1.0000
  H   H1594     1.0  0.24211  0.61813  0.06593  1.0000
  N   N135      1.0  0.45807  0.76815  0.45941  1.0000
  H   H1595     1.0  0.23840  0.62070  0.09147  1.0000
  H   H1596     1.0  0.41886  0.62156  0.13781  1.0000
  H   H1597     1.0  0.15357  0.59822  0.41302  1.0000
  C   C1598     1.0  0.04091  0.76354  0.44762  1.0000
  H   H1598     1.0  0.26479  0.66411  0.46524  1.0000
  S   S539      1.0  0.12167  0.59713  0.29204  1.0000
  C   C1599     1.0  0.23607  0.70776  0.43986  1.0000
  H   H1599     1.0  0.33608  0.63455  0.00522  1.0000
  C   C1600     1.0  0.46221  0.58705  0.20462  1.0000
  H   H1600     1.0  0.39830  0.77620  0.08241  1.0000
  H   H1601     1.0  0.12357  0.61235  0.47175  1.0000
  C   C1601     1.0  0.42805  0.75202  0.06399  1.0000
  S   S540      1.0  0.48088  0.66636  0.14395  1.0000
  C   C1602     1.0  0.47439  0.77532  0.43598  1.0000
  H   H1602     1.0  0.25719  0.71296  0.43802  1.0000
  C   C1603     1.0  0.05600  0.61467  0.32929  1.0000
  S   S541      1.0  0.00371  0.58970  0.29813  1.0000
  C   C1604     1.0  0.15930  0.67670  0.43841  1.0000
  Fe  Fe266     1.0  0.11340  0.76593  0.41820  1.0000
  C   C1605     1.0  0.42182  0.76644  0.03612  1.0000
  H   H1603     1.0  0.36334  0.60999  0.06158  1.0000
  C   C1606     1.0  0.14111  0.70184  0.42506  1.0000
  N   N136      1.0  0.12913  0.67939  0.33563  1.0000
  C   C1607     1.0  0.12397  0.67272  0.32788  1.0000
  C   C1608     1.0  0.11972  0.69043  0.34226  1.0000
  C   C1609     1.0  0.10896  0.67685  0.32685  1.0000
  C   C1610     1.0  0.10466  0.69492  0.34135  1.0000
  C   C1611     1.0  0.09926  0.68803  0.33365  1.0000
  C   C1612     1.0  0.14488  0.67458  0.33669  1.0000
  H   H1604     1.0  0.13138  0.66378  0.32285  1.0000
  H   H1605     1.0  0.12371  0.69570  0.34851  1.0000
  H   H1606     1.0  0.10487  0.67118  0.32106  1.0000
  H   H1607     1.0  0.09720  0.70348  0.34690  1.0000
  H   H1608     1.0  0.08755  0.69121  0.33310  1.0000
  H   H1609     1.0  0.14744  0.68016  0.34403  1.0000
  H   H1610     1.0  0.14759  0.66245  0.34141  1.0000
  H   H1611     1.0  0.15224  0.67700  0.32556  1.0000
  S   S542      1.0  0.02636  0.73488  0.36623  1.0000
  S   S543      1.0  0.26504  0.72027  0.46512  1.0000
  C   C1613     1.0  0.38044  0.75263  0.05773  1.0000
  C   C1614     1.0  0.46791  0.69404  0.13039  1.0000
  N   N137      1.0  0.15605  0.67717  0.42532  1.0000
  H   H1612     1.0  0.46080  0.75120  0.41221  1.0000
  H   H1613     1.0  0.42682  0.70932  0.04393  1.0000
  Fe  Fe267     1.0  0.47652  0.59117  0.12700  1.0000
  C   C1615     1.0  0.09075  0.75682  0.37470  1.0000
  H   H1614     1.0  0.35639  0.62326  0.01885  1.0000
  C   C1616     1.0  0.20118  0.60941  0.46285  1.0000
  H   H1615     1.0  0.23086  0.71899  0.43511  1.0000
  C   C1617     1.0  0.34475  0.61734  0.11018  1.0000
  C   C1618     1.0  0.37312  0.75421  0.09745  1.0000
  H   H1616     1.0  0.20233  0.61602  0.45167  1.0000
  S   S544      1.0  0.42630  0.78203  0.14212  1.0000
  Fe  Fe268     1.0  0.30396  0.74601  0.46756  1.0000
  Fe  Fe269     1.0  0.01633  0.75238  0.37985  1.0000
  H   H1617     1.0  0.36028  0.69516  0.03932  1.0000
  C   C1619     1.0  0.36705  0.68912  0.03091  1.0000
  S   S545      1.0  0.02813  0.75315  0.39660  1.0000
  H   H1618     1.0  0.33837  0.62143  0.12000  1.0000
  H   H1619     1.0  0.44502  0.76018  0.16024  1.0000
  C   C1620     1.0  0.39071  0.76937  0.08308  1.0000
  H   H1620     1.0  0.41564  0.67279  0.10556  1.0000
  H   H1621     1.0  0.44255  0.63647  0.18843  1.0000
  C   C1621     1.0  0.41440  0.67080  0.13368  1.0000
  H   H1622     1.0  0.28466  0.58908  0.02110  1.0000
  S   S546      1.0  0.00582  0.64099  0.38084  1.0000
  C   C1622     1.0  0.07053  0.76925  0.36132  1.0000
  C   C1623     1.0  0.46721  0.76480  0.44653  1.0000
  H   H1623     1.0  0.04586  0.75454  0.45568  1.0000
  C   C1624     1.0  0.99612  0.65817  0.29399  1.0000
  H   H1624     1.0  0.34487  0.59402  0.08968  1.0000
  Fe  Fe270     1.0  0.00211  0.66415  0.36702  1.0000
  Fe  Fe271     1.0  0.41496  0.74856  0.00850  1.0000
  H   H1625     1.0  0.20492  0.62590  0.47179  1.0000
  C   C1625     1.0  0.42521  0.77420  0.04470  1.0000
  H   H1626     1.0  0.15908  0.65427  0.42628  1.0000
  H   H1627     1.0  0.10123  0.74967  0.36972  1.0000
  H   H1628     1.0  0.33068  0.60239  0.11251  1.0000
  C   C1626     1.0  0.18716  0.77994  0.43413  1.0000
  H   H1629     1.0  0.08840  0.75282  0.38691  1.0000
  H   H1630     1.0  0.03141  0.60366  0.27962  1.0000
  C   C1627     1.0  0.20264  0.61500  0.47421  1.0000
  H   H1631     1.0  0.47361  0.76784  0.14180  1.0000
  C   C1628     1.0  0.38399  0.67368  0.00934  1.0000
  C   C1629     1.0  0.07849  0.77256  0.41001  1.0000
  H   H1632     1.0  0.44563  0.72329  0.02718  1.0000
  C   C1630     1.0  0.26240  0.58867  0.07809  1.0000
  C   C1631     1.0  0.37230  0.66821  0.01980  1.0000
  C   C1632     1.0  0.44791  0.77011  0.42132  1.0000
  H   H1633     1.0  0.01233  0.77381  0.42985  1.0000
  N   N138      1.0  0.43645  0.69243  0.01521  1.0000
  Fe  Fe272     1.0  0.00513  0.75907  0.41040  1.0000
  N   N139      1.0  0.24912  0.67916  0.45287  1.0000
  C   C1633     1.0  0.05350  0.60116  0.32901  1.0000
  C   C1634     1.0  0.23471  0.68232  0.45114  1.0000
  S   S547      1.0  0.47947  0.73363  0.11347  1.0000
  C   C1635     1.0  0.36371  0.67600  0.03062  1.0000
  H   H1634     1.0  0.02324  0.75322  0.44835  1.0000
  H   H1635     1.0  0.13985  0.71098  0.44347  1.0000
  H   H1636     1.0  0.24761  0.65878  0.46858  1.0000
  H   H1637     1.0  0.22826  0.67381  0.45488  1.0000
  H   H1638     1.0  0.05524  0.61767  0.27263  1.0000
  H   H1639     1.0  0.40300  0.67128  0.13245  1.0000
  H   H1640     1.0  0.05498  0.64108  0.33204  1.0000
  C   C1636     1.0  0.99887  0.71125  0.42425  1.0000
  H   H1641     1.0  0.04659  0.68488  0.36839  1.0000
  H   H1642     1.0  0.49304  0.66490  0.23096  1.0000
  H   H1643     1.0  0.04482  0.75548  0.35426  1.0000
  H   H1644     1.0  0.02160  0.66827  0.38872  1.0000
  C   C1637     1.0  0.16354  0.58861  0.11498  1.0000
  S   S548      1.0  0.44965  0.77034  0.10390  1.0000
  H   H1645     1.0  0.48075  0.77053  0.32010  1.0000
  H   H1646     1.0  0.16941  0.76157  0.43868  1.0000
  Fe  Fe273     1.0  0.41536  0.76995  0.97859  1.0000
  H   H1647     1.0  0.43808  0.66976  0.01657  1.0000
  H   H1648     1.0  0.38457  0.76046  0.04745  1.0000
  C   C1638     1.0  0.46864  0.77100  0.39973  1.0000
  C   C1639     1.0  0.16331  0.77337  0.43721  1.0000
  H   H1649     1.0  0.45816  0.76812  0.13432  1.0000
  S   S549      1.0  0.33742  0.58426  0.06633  1.0000
  H   H1650     1.0  0.23705  0.71222  0.47038  1.0000
  C   C1640     1.0  0.02829  0.76277  0.44351  1.0000
  H   H1651     1.0  0.44695  0.78334  0.37623  1.0000
  Fe  Fe274     1.0  0.27850  0.73012  0.47413  1.0000
  H   H1652     1.0  0.43084  0.76862  0.39616  1.0000
  H   H1653     1.0  0.05726  0.77629  0.44413  1.0000
  C   C1641     1.0  0.36526  0.59489  0.03113  1.0000
  C   C1642     1.0  0.49294  0.69091  0.13366  1.0000
  H   H1654     1.0  0.99633  0.66976  0.28955  1.0000
  S   S550      1.0  0.99922  0.74881  0.43454  1.0000
  C   C1643     1.0  0.23995  0.78293  0.45586  1.0000
  H   H1655     1.0  0.99545  0.61664  0.30952  1.0000
  N   N140      1.0  0.17199  0.78266  0.43934  1.0000
  H   H1656     1.0  0.49083  0.64731  0.12107  1.0000
  C   C1644     1.0  0.05734  0.78223  0.39207  1.0000
  C   C1645     1.0  0.49267  0.70583  0.12672  1.0000
  H   H1657     1.0  0.36554  0.60230  0.03797  1.0000
  H   H1658     1.0  0.41053  0.78092  0.41415  1.0000
  C   C1646     1.0  0.04726  0.77591  0.44109  1.0000
  C   C1647     1.0  0.45596  0.78180  0.46224  1.0000
  H   H1659     1.0  0.00507  0.58746  0.40739  1.0000
  S   S551      1.0  0.12898  0.58367  0.45679  1.0000
  H   H1660     1.0  0.24493  0.58381  0.09723  1.0000
  S   S552      1.0  0.25782  0.77902  0.49023  1.0000
  N   N141      1.0  0.23210  0.67982  0.52896  1.0000
  S   S553      1.0  0.02375  0.62610  0.63989  1.0000
  Fe  Fe275     1.0  0.02104  0.65081  0.63453  1.0000
  S   S554      1.0  0.03756  0.66216  0.61661  1.0000
  S   S555      1.0  0.01859  0.65227  0.65791  1.0000
  H   H1661     1.0  0.22884  0.68882  0.48316  1.0000
  Fe  Fe276     1.0  0.99802  0.77350  0.61607  1.0000
  S   S556      1.0  0.01703  0.73211  0.62615  1.0000
  H   H1662     1.0  0.26995  0.67106  0.49821  1.0000
  Fe  Fe277     1.0  0.02747  0.75183  0.61943  1.0000
  S   S557      1.0  0.05209  0.74656  0.61961  1.0000
  C   C1648     1.0  0.00531  0.68872  0.59605  1.0000
  H   H1663     1.0  0.47881  0.72838  0.80182  1.0000
  H   H1664     1.0  0.16152  0.68740  0.59591  1.0000
  C   C1649     1.0  0.38051  0.69811  0.97623  1.0000
  C   C1650     1.0  0.99536  0.61236  0.55270  1.0000
  C   C1651     1.0  0.00867  0.61018  0.69988  1.0000
  C   C1652     1.0  0.42548  0.78130  0.92493  1.0000
  C   C1653     1.0  0.15111  0.58986  0.65150  1.0000
  H   H1665     1.0  0.10760  0.72730  0.60495  1.0000
  H   H1666     1.0  0.48563  0.75254  0.82968  1.0000
  N   N142      1.0  0.03213  0.59649  0.74229  1.0000
  C   C1654     1.0  0.11998  0.61828  0.59007  1.0000
  Fe  Fe278     1.0  0.09726  0.67378  0.64386  1.0000
  S   S558      1.0  0.11485  0.67232  0.65594  1.0000
  S   S559      1.0  0.07255  0.68160  0.65175  1.0000
  Fe  Fe279     1.0  0.11938  0.66220  0.61852  1.0000
  S   S560      1.0  0.13904  0.65947  0.62802  1.0000
  S   S561      1.0  0.12061  0.65743  0.59683  1.0000
  H   H1667     1.0  0.08923  0.62160  0.60953  1.0000
  Fe  Fe280     1.0  0.12758  0.68161  0.63340  1.0000
  S   S562      1.0  0.14176  0.69842  0.62696  1.0000
  S   S563      1.0  0.10904  0.68517  0.62196  1.0000
  Fe  Fe281     1.0  0.21392  0.67000  0.59839  1.0000
  S   S564      1.0  0.19631  0.69107  0.59618  1.0000
  S   S565      1.0  0.20691  0.64877  0.61102  1.0000
  Fe  Fe282     1.0  0.23949  0.68558  0.58372  1.0000
  S   S566      1.0  0.22424  0.70789  0.58020  1.0000
  S   S567      1.0  0.26355  0.68608  0.57421  1.0000
  Fe  Fe283     1.0  0.21184  0.70007  0.60314  1.0000
  S   S568      1.0  0.20429  0.71460  0.61934  1.0000
  Fe  Fe284     1.0  0.21044  0.69684  0.57344  1.0000
  S   S569      1.0  0.20208  0.70850  0.55283  1.0000
  S   S570      1.0  0.22830  0.67858  0.60743  1.0000
  S   S571      1.0  0.22678  0.67496  0.57489  1.0000
  C   C1655     1.0  0.33349  0.61912  0.96758  1.0000
  Fe  Fe285     1.0  0.10243  0.58483  0.73746  1.0000
  C   C1656     1.0  0.48631  0.74213  0.82711  1.0000
  C   C1657     1.0  0.04375  0.71782  0.65835  1.0000
  Fe  Fe286     1.0  0.48450  0.70209  0.89706  1.0000
  S   S572      1.0  0.15772  0.77176  0.59657  1.0000
  Fe  Fe287     1.0  0.12338  0.76883  0.64646  1.0000
  S   S573      1.0  0.12245  0.74800  0.66392  1.0000
  Fe  Fe288     1.0  0.00415  0.74369  0.60842  1.0000
  C   C1658     1.0  0.33727  0.70559  0.49780  1.0000
  S   S574      1.0  0.12060  0.76783  0.62459  1.0000
  H   H1668     1.0  0.43225  0.78224  0.52212  1.0000
  C   C1659     1.0  0.34077  0.70565  0.52205  1.0000
  C   C1660     1.0  0.06993  0.71969  0.64987  1.0000
  S   S575      1.0  0.16964  0.58709  0.60781  1.0000
  S   S576      1.0  0.13574  0.62963  0.66383  1.0000
  C   C1661     1.0  0.08527  0.62590  0.64428  1.0000
  C   C1662     1.0  0.10476  0.75093  0.59617  1.0000
  H   H1669     1.0  0.15755  0.72075  0.47928  1.0000
  C   C1663     1.0  0.44528  0.72092  0.93397  1.0000
  H   H1670     1.0  0.41735  0.69900  0.96345  1.0000
  C   C1664     1.0  0.13061  0.61142  0.69119  1.0000
  N   N143      1.0  0.11141  0.76279  0.59158  1.0000
  H   H1671     1.0  0.07337  0.70885  0.65733  1.0000
  H   H1672     1.0  0.03116  0.75855  0.66188  1.0000
  Fe  Fe289     1.0  0.27309  0.75783  0.48526  1.0000
  H   H1673     1.0  0.10597  0.64257  0.67877  1.0000
  C   C1665     1.0  0.99613  0.69457  0.62014  1.0000
  H   H1674     1.0  0.15706  0.61886  0.49977  1.0000
  H   H1675     1.0  0.26208  0.75006  0.61697  1.0000
  H   H1676     1.0  0.43793  0.77954  0.61727  1.0000
  C   C1666     1.0  0.26739  0.69337  0.48496  1.0000
  H   H1677     1.0  0.06597  0.59644  0.74716  1.0000
  H   H1678     1.0  0.12656  0.59683  0.71266  1.0000
  H   H1679     1.0  0.35047  0.65875  0.94260  1.0000
  C   C1667     1.0  0.31485  0.63550  0.93739  1.0000
  S   S577      1.0  0.48669  0.68382  0.88594  1.0000
  C   C1668     1.0  0.40566  0.70232  0.96856  1.0000
  H   H1680     1.0  0.45195  0.76803  0.63739  1.0000
  Fe  Fe290     1.0  0.18874  0.66235  0.51341  1.0000
  N   N144      1.0  0.05412  0.72622  0.65514  1.0000
  Fe  Fe291     1.0  0.99881  0.63109  0.64314  1.0000
  H   H1681     1.0  0.25511  0.70929  0.55075  1.0000
  H   H1682     1.0  0.42478  0.66293  0.94065  1.0000
  H   H1683     1.0  0.39550  0.72704  0.61708  1.0000
  S   S578      1.0  0.41708  0.61854  0.94362  1.0000
  S   S579      1.0  0.38477  0.64990  0.95358  1.0000
  S   S580      1.0  0.19300  0.61246  0.57336  1.0000
  H   H1684     1.0  0.34541  0.70181  0.48813  1.0000
  C   C1669     1.0  0.35867  0.76880  0.53268  1.0000
  C   C1670     1.0  0.49165  0.72866  0.83647  1.0000
  H   H1685     1.0  0.16385  0.63864  0.65690  1.0000
  C   C1671     1.0  0.11047  0.63257  0.68612  1.0000
  C   C1672     1.0  0.45950  0.71532  0.92598  1.0000
  C   C1673     1.0  0.20375  0.63835  0.60041  1.0000
  H   H1686     1.0  0.35068  0.63509  0.91854  1.0000
  C   C1674     1.0  0.25687  0.74128  0.61733  1.0000
  N   N145      1.0  0.25948  0.74351  0.53134  1.0000
  H   H1687     1.0  0.33226  0.69921  0.52736  1.0000
  Fe  Fe292     1.0  0.29934  0.73145  0.60031  1.0000
  S   S581      1.0  0.29075  0.74607  0.58056  1.0000
  S   S582      1.0  0.29061  0.71096  0.61257  1.0000
  Fe  Fe293     1.0  0.31641  0.75341  0.60133  1.0000
  H   H1688     1.0  0.05787  0.74749  0.65342  1.0000
  H   H1689     1.0  0.41535  0.59585  0.97078  1.0000
  N   N146      1.0  0.43975  0.78027  0.92600  1.0000
  C   C1675     1.0  0.44517  0.60170  0.94250  1.0000
  Fe  Fe294     1.0  0.31405  0.74998  0.57221  1.0000
  S   S583      1.0  0.32644  0.75129  0.54858  1.0000
  S   S584      1.0  0.29348  0.74953  0.61259  1.0000
  S   S585      1.0  0.32322  0.73368  0.59102  1.0000
  H   H1690     1.0  0.24084  0.69747  0.51320  1.0000
  H   H1691     1.0  0.39803  0.74115  0.64136  1.0000
  S   S586      1.0  0.45431  0.72358  0.97160  1.0000
  S   S587      1.0  0.24375  0.66124  0.49973  1.0000
  S   S588      1.0  0.39871  0.75577  0.59036  1.0000
  C   C1676     1.0  0.99983  0.59553  0.60013  1.0000
  H   H1692     1.0  0.06795  0.61101  0.72132  1.0000
  H   H1693     1.0  0.49526  0.72875  0.84608  1.0000
  S   S589      1.0  0.18256  0.65420  0.49683  1.0000
  C   C1677     1.0  0.45609  0.72050  0.95407  1.0000
  H   H1694     1.0  0.25516  0.65594  0.55044  1.0000
  H   H1695     1.0  0.13159  0.77016  0.58746  1.0000
  C   C1678     1.0  0.10760  0.61495  0.70985  1.0000
  C   C1679     1.0  0.06181  0.63378  0.63739  1.0000
  Fe  Fe295     1.0  0.29303  0.72955  0.49843  1.0000
  H   H1696     1.0  0.30286  0.64885  0.95337  1.0000
  S   S590      1.0  0.30010  0.71623  0.51947  1.0000
  H   H1697     1.0  0.32993  0.62314  0.92159  1.0000
  N   N147      1.0  0.33850  0.64850  0.93411  1.0000
  C   C1680     1.0  0.10191  0.62795  0.70029  1.0000
  H   H1698     1.0  0.18395  0.66359  0.56145  1.0000
  S   S591      1.0  0.26904  0.73525  0.49662  1.0000
  C   C1681     1.0  0.36564  0.77205  0.55356  1.0000
  Fe  Fe296     1.0  0.99866  0.74554  0.64023  1.0000
  H   H1699     1.0  0.06176  0.63224  0.61553  1.0000
  C   C1682     1.0  0.14057  0.61142  0.48303  1.0000
  H   H1700     1.0  0.13916  0.60507  0.61764  1.0000
  C   C1683     1.0  0.16748  0.66375  0.59803  1.0000
  H   H1701     1.0  0.48299  0.70824  0.92592  1.0000
  C   C1684     1.0  0.19427  0.60920  0.53949  1.0000
  C   C1685     1.0  0.18508  0.67418  0.55417  1.0000
  C   C1686     1.0  0.12804  0.73458  0.60093  1.0000
  H   H1702     1.0  0.01132  0.61730  0.61530  1.0000
  H   H1703     1.0  0.28155  0.74666  0.52182  1.0000
  S   S592      1.0  0.32927  0.75978  0.61398  1.0000
  H   H1704     1.0  0.04318  0.58683  0.76031  1.0000
  H   H1705     1.0  0.13450  0.72362  0.60472  1.0000
  H   H1706     1.0  0.18778  0.64284  0.63956  1.0000
  H   H1707     1.0  0.02402  0.60674  0.72258  1.0000
  H   H1708     1.0  0.18701  0.69238  0.63878  1.0000
  C   C1687     1.0  0.43458  0.68813  0.93273  1.0000
  H   H1709     1.0  0.26734  0.76312  0.51877  1.0000
  C   C1688     1.0  0.38982  0.77743  0.55137  1.0000
  C   C1689     1.0  0.42668  0.59404  0.96424  1.0000
  S   S593      1.0  0.47164  0.77819  0.64803  1.0000
  C   C1690     1.0  0.03462  0.74701  0.66117  1.0000
  H   H1710     1.0  0.34290  0.74895  0.49507  1.0000
  C   C1691     1.0  0.02400  0.73845  0.66472  1.0000
  S   S594      1.0  0.20166  0.67823  0.49659  1.0000
  H   H1711     1.0  0.16787  0.70037  0.64600  1.0000
  H   H1712     1.0  0.00839  0.59856  0.65621  1.0000
  H   H1713     1.0  0.24770  0.70957  0.63974  1.0000
  C   C1692     1.0  0.31321  0.64602  0.94545  1.0000
  H   H1714     1.0  0.22447  0.74468  0.52877  1.0000
  N   N148      1.0  0.37923  0.77421  0.54490  1.0000
  S   S595      1.0  0.99642  0.65571  0.63533  1.0000
  H   H1715     1.0  0.34315  0.70800  0.54282  1.0000
  Fe  Fe297     1.0  0.28641  0.76433  0.59221  1.0000
  H   H1716     1.0  0.45840  0.76642  0.93509  1.0000
  H   H1717     1.0  0.24335  0.76011  0.52067  1.0000
  C   C1693     1.0  0.20480  0.64366  0.58520  1.0000
  C   C1694     1.0  0.43656  0.66158  0.93528  1.0000
  H   H1718     1.0  0.14181  0.60509  0.68780  1.0000
  H   H1719     1.0  0.99956  0.61896  0.57043  1.0000
  H   H1720     1.0  0.23817  0.71038  0.61811  1.0000
  S   S596      1.0  0.20892  0.64413  0.51591  1.0000
  C   C1695     1.0  0.07452  0.78290  0.61921  1.0000
  H   H1721     1.0  0.32651  0.74436  0.48183  1.0000
  H   H1722     1.0  0.17338  0.69745  0.62747  1.0000
  H   H1723     1.0  0.32880  0.71539  0.49379  1.0000
  H   H1724     1.0  0.27168  0.75574  0.53686  1.0000
  H   H1725     1.0  0.00453  0.62162  0.69487  1.0000
  C   C1696     1.0  0.24865  0.71866  0.63016  1.0000
  C   C1697     1.0  0.17524  0.69271  0.63888  1.0000
  S   S597      1.0  0.46127  0.71180  0.90863  1.0000
  C   C1698     1.0  0.18196  0.62117  0.54034  1.0000
  C   C1699     1.0  0.19648  0.61658  0.59914  1.0000
  C   C1700     1.0  0.26269  0.68010  0.49226  1.0000
  C   C1701     1.0  0.31949  0.74134  0.54046  1.0000
  C   C1702     1.0  0.32061  0.74507  0.52518  1.0000
  C   C1703     1.0  0.31475  0.73732  0.51867  1.0000
  C   C1704     1.0  0.30782  0.72582  0.52738  1.0000
  C   C1705     1.0  0.30735  0.72167  0.54255  1.0000
  C   C1706     1.0  0.31299  0.72954  0.54914  1.0000
  H   H1726     1.0  0.32588  0.75403  0.51842  1.0000
  H   H1727     1.0  0.31601  0.74000  0.50689  1.0000
  H   H1728     1.0  0.30272  0.71232  0.54920  1.0000
  H   H1729     1.0  0.31259  0.72630  0.56089  1.0000
  C   C1707     1.0  0.34825  0.75948  0.60597  1.0000
  C   C1708     1.0  0.35651  0.75068  0.59581  1.0000
  C   C1709     1.0  0.37207  0.74952  0.59089  1.0000
  C   C1710     1.0  0.37923  0.75746  0.59585  1.0000
  C   C1711     1.0  0.37082  0.76655  0.60564  1.0000
  S   S598      1.0  0.41585  0.75272  0.96685  1.0000
  H   H1730     1.0  0.35101  0.74441  0.59216  1.0000
  H   H1731     1.0  0.37853  0.74245  0.58333  1.0000
  H   H1732     1.0  0.01916  0.60509  0.59397  1.0000
  C   C1712     1.0  0.14200  0.59278  0.50506  1.0000
  Fe  Fe298     1.0  0.01921  0.62808  0.66338  1.0000
  H   H1733     1.0  0.37624  0.77259  0.60967  1.0000
  H   H1734     1.0  0.22274  0.69652  0.51212  1.0000
  C   C1713     1.0  0.36154  0.72319  0.50878  1.0000
  H   H1735     1.0  0.09199  0.62445  0.65218  1.0000
  C   C1714     1.0  0.43056  0.60401  0.95089  1.0000
  S   S599      1.0  0.00035  0.73171  0.59319  1.0000
  C   C1715     1.0  0.02854  0.72378  0.66326  1.0000
  N   N149      1.0  0.17214  0.67783  0.64415  1.0000
  H   H1736     1.0  0.41879  0.77386  0.93277  1.0000
  H   H1737     1.0  0.32420  0.60370  0.96237  1.0000
  H   H1738     1.0  0.04388  0.69630  0.59828  1.0000
  H   H1739     1.0  0.14649  0.74521  0.59597  1.0000
  H   H1740     1.0  0.44832  0.60952  0.93231  1.0000
  S   S600      1.0  0.36876  0.76107  0.48513  1.0000
  H   H1741     1.0  0.01736  0.58796  0.76217  1.0000
  H   H1742     1.0  0.20230  0.63961  0.56528  1.0000
  H   H1743     1.0  0.11203  0.64141  0.58092  1.0000
  H   H1744     1.0  0.20478  0.61023  0.54089  1.0000
  C   C1716     1.0  0.32836  0.63169  0.92753  1.0000
  S   S601      1.0  0.13111  0.58910  0.60095  1.0000
  C   C1717     1.0  0.35544  0.76745  0.61078  1.0000
  H   H1745     1.0  0.25194  0.68102  0.53422  1.0000
  C   C1718     1.0  0.05788  0.60695  0.72718  1.0000
  H   H1746     1.0  0.07737  0.72683  0.64955  1.0000
  H   H1747     1.0  0.27832  0.69447  0.48511  1.0000
  S   S602      1.0  0.40800  0.63769  0.97620  1.0000
  C   C1719     1.0  0.15574  0.66151  0.65840  1.0000
  H   H1748     1.0  0.01077  0.70322  0.62703  1.0000
  C   C1720     1.0  0.34667  0.60392  0.94967  1.0000
  C   C1721     1.0  0.35923  0.60985  0.94699  1.0000
  C   C1722     1.0  0.35895  0.62033  0.95467  1.0000
  H   H1749     1.0  0.46691  0.58747  0.94038  1.0000
  S   S603      1.0  0.48467  0.78122  0.71042  1.0000
  C   C1723     1.0  0.33394  0.60823  0.96029  1.0000
  H   H1750     1.0  0.36911  0.60650  0.93883  1.0000
  H   H1751     1.0  0.36863  0.62501  0.95239  1.0000
  H   H1752     1.0  0.19877  0.62068  0.61915  1.0000
  C   C1724     1.0  0.34466  0.75259  0.48319  1.0000
  C   C1725     1.0  0.39253  0.74748  0.63206  1.0000
  C   C1726     1.0  0.48165  0.74203  0.81460  1.0000
  H   H1753     1.0  0.34918  0.77411  0.61877  1.0000
  H   H1754     1.0  0.14805  0.69192  0.57581  1.0000
  H   H1755     1.0  0.13485  0.63202  0.61618  1.0000
  Fe  Fe299     1.0  0.13967  0.77918  0.61529  1.0000
  C   C1727     1.0  0.19959  0.62481  0.60738  1.0000
  S   S604      1.0  0.09661  0.60922  0.72746  1.0000
  C   C1728     1.0  0.16078  0.67820  0.59196  1.0000
  C   C1729     1.0  0.17979  0.59503  0.53526  1.0000
  H   H1756     1.0  0.10597  0.78141  0.57450  1.0000
  C   C1730     1.0  0.12780  0.60803  0.60027  1.0000
  H   H1757     1.0  0.06368  0.64832  0.65982  1.0000
  C   C1731     1.0  0.38427  0.72996  0.62362  1.0000
  S   S605      1.0  0.03381  0.61133  0.67779  1.0000
  C   C1732     1.0  0.15315  0.68074  0.58076  1.0000
  S   S606      1.0  0.20346  0.61282  0.50299  1.0000
  H   H1758     1.0  0.04681  0.61597  0.70885  1.0000
  C   C1733     1.0  0.11785  0.63348  0.58901  1.0000
  Fe  Fe300     1.0  0.20374  0.63691  0.49820  1.0000
  C   C1734     1.0  0.39562  0.69370  0.96965  1.0000
  C   C1735     1.0  0.44482  0.64752  0.93324  1.0000
  C   C1736     1.0  0.17960  0.65199  0.64362  1.0000
  H   H1759     1.0  0.18301  0.63129  0.54238  1.0000
  H   H1760     1.0  0.07166  0.71791  0.63856  1.0000
  C   C1737     1.0  0.16835  0.61990  0.53871  1.0000
  H   H1761     1.0  0.40150  0.77467  0.54498  1.0000
  C   C1738     1.0  0.45573  0.58910  0.94704  1.0000
  C   C1739     1.0  0.19669  0.58678  0.48042  1.0000
  H   H1762     1.0  0.19280  0.66803  0.63137  1.0000
  H   H1763     1.0  0.11588  0.61446  0.58275  1.0000
  C   C1740     1.0  0.00940  0.69897  0.61839  1.0000
  C   C1741     1.0  0.13321  0.61298  0.60966  1.0000
  C   C1742     1.0  0.06847  0.63016  0.62362  1.0000
  H   H1764     1.0  0.17598  0.69667  0.48050  1.0000
  C   C1743     1.0  0.37246  0.77129  0.52386  1.0000
  H   H1765     1.0  0.09303  0.75245  0.59626  1.0000
  C   C1744     1.0  0.27081  0.69299  0.58505  1.0000
  C   C1745     1.0  0.28033  0.70275  0.57808  1.0000
  C   C1746     1.0  0.28642  0.70834  0.58646  1.0000
  C   C1747     1.0  0.28309  0.70406  0.60189  1.0000
  C   C1748     1.0  0.27357  0.69421  0.60889  1.0000
  C   C1749     1.0  0.26723  0.68888  0.60050  1.0000
  H   H1766     1.0  0.28295  0.70595  0.56618  1.0000
  H   H1767     1.0  0.29402  0.71561  0.58096  1.0000
  H   H1768     1.0  0.27113  0.69070  0.62082  1.0000
  H   H1769     1.0  0.26000  0.68118  0.60595  1.0000
  C   C1750     1.0  0.19334  0.69712  0.54845  1.0000
  C   C1751     1.0  0.18888  0.70124  0.53496  1.0000
  C   C1752     1.0  0.18265  0.69175  0.53103  1.0000
  C   C1753     1.0  0.18072  0.67824  0.54065  1.0000
  S   S607      1.0  0.29599  0.75280  0.48926  1.0000
  C   C1754     1.0  0.19138  0.68362  0.55808  1.0000
  H   H1770     1.0  0.19040  0.71168  0.52749  1.0000
  H   H1771     1.0  0.17932  0.69490  0.52054  1.0000
  C   C1755     1.0  0.99980  0.60305  0.71256  1.0000
  H   H1772     1.0  0.19487  0.68036  0.56848  1.0000
  C   C1756     1.0  0.19132  0.73035  0.61296  1.0000
  C   C1757     1.0  0.18378  0.74036  0.62202  1.0000
  C   C1758     1.0  0.17344  0.75304  0.61701  1.0000
  C   C1759     1.0  0.17066  0.75584  0.60290  1.0000
  C   C1760     1.0  0.17839  0.74592  0.59372  1.0000
  C   C1761     1.0  0.18860  0.73310  0.59881  1.0000
  H   H1773     1.0  0.18589  0.73829  0.63295  1.0000
  H   H1774     1.0  0.16791  0.76073  0.62401  1.0000
  H   H1775     1.0  0.17637  0.74805  0.58275  1.0000
  H   H1776     1.0  0.19434  0.72538  0.59175  1.0000
  C   C1762     1.0  0.13642  0.71181  0.63768  1.0000
  C   C1763     1.0  0.12524  0.71081  0.65065  1.0000
  C   C1764     1.0  0.12130  0.72163  0.65907  1.0000
  C   C1765     1.0  0.12833  0.73361  0.65435  1.0000
  C   C1766     1.0  0.13959  0.73450  0.64144  1.0000
  C   C1767     1.0  0.14371  0.72358  0.63320  1.0000
  H   H1777     1.0  0.11957  0.70177  0.65419  1.0000
  H   H1778     1.0  0.11253  0.72095  0.66901  1.0000
  H   H1779     1.0  0.14517  0.74364  0.63780  1.0000
  H   H1780     1.0  0.15249  0.72436  0.62327  1.0000
  C   C1768     1.0  0.12628  0.76078  0.59118  1.0000
  C   C1769     1.0  0.11294  0.73667  0.60104  1.0000
  C   C1770     1.0  0.22996  0.69495  0.51993  1.0000
  H   H1781     1.0  0.31747  0.78097  0.48420  1.0000
  H   H1782     1.0  0.14521  0.65975  0.66586  1.0000
  H   H1783     1.0  0.46349  0.68097  0.92061  1.0000
  N   N150      1.0  0.34483  0.70954  0.50695  1.0000
  H   H1784     1.0  0.36189  0.64748  0.93010  1.0000
  N   N151      1.0  0.02036  0.69819  0.60581  1.0000
  S   S608      1.0  0.01652  0.76212  0.60003  1.0000
  H   H1785     1.0  0.17359  0.66162  0.60662  1.0000
  Fe  Fe301     1.0  0.48523  0.77749  0.79875  1.0000
  H   H1786     1.0  0.06889  0.62966  0.67040  1.0000
  H   H1787     1.0  0.03597  0.70363  0.61449  1.0000
  S   S609      1.0  0.26335  0.77897  0.59520  1.0000
  H   H1788     1.0  0.44255  0.75839  0.93954  1.0000
  H   H1789     1.0  0.38779  0.75913  0.63322  1.0000
  C   C1771     1.0  0.27050  0.75276  0.52700  1.0000
  S   S610      1.0  0.17404  0.66589  0.53528  1.0000
  H   H1790     1.0  0.10427  0.61763  0.62805  1.0000
  C   C1772     1.0  0.08384  0.62429  0.62023  1.0000
  H   H1791     1.0  0.14173  0.75724  0.67737  1.0000
  H   H1792     1.0  0.20779  0.65417  0.57979  1.0000
  C   C1773     1.0  0.06020  0.76078  0.61979  1.0000
  H   H1793     1.0  0.36938  0.73037  0.50341  1.0000
  H   H1794     1.0  0.48207  0.63403  0.88460  1.0000
  H   H1795     1.0  0.36282  0.77250  0.56515  1.0000
  C   C1774     1.0  0.08119  0.76794  0.62349  1.0000
  C   C1775     1.0  0.07417  0.75695  0.62356  1.0000
  H   H1796     1.0  0.34965  0.72330  0.62972  1.0000
  C   C1776     1.0  0.45816  0.67162  0.92413  1.0000
  Fe  Fe302     1.0  0.39127  0.65848  0.96969  1.0000
  H   H1797     1.0  0.07967  0.74543  0.62641  1.0000
  H   H1798     1.0  0.04247  0.77879  0.61301  1.0000
  C   C1777     1.0  0.23847  0.72599  0.54042  1.0000
  C   C1778     1.0  0.23521  0.74033  0.53190  1.0000
  C   C1779     1.0  0.04704  0.66976  0.62481  1.0000
  C   C1780     1.0  0.03935  0.67605  0.63696  1.0000
  C   C1781     1.0  0.04718  0.68008  0.64496  1.0000
  C   C1782     1.0  0.06275  0.67804  0.64068  1.0000
  C   C1783     1.0  0.07038  0.67256  0.62798  1.0000
  C   C1784     1.0  0.06251  0.66851  0.61999  1.0000
  H   H1799     1.0  0.02734  0.67774  0.64029  1.0000
  H   H1800     1.0  0.04117  0.68436  0.65471  1.0000
  H   H1801     1.0  0.08238  0.67120  0.62440  1.0000
  H   H1802     1.0  0.06853  0.66383  0.61046  1.0000
  Fe  Fe303     1.0  0.22147  0.65918  0.49772  1.0000
  H   H1803     1.0  0.01223  0.74324  0.66840  1.0000
  H   H1804     1.0  0.34375  0.74190  0.64491  1.0000
  C   C1785     1.0  0.34687  0.71060  0.53087  1.0000
  C   C1786     1.0  0.02293  0.60263  0.69393  1.0000
  N   N152      1.0  0.15874  0.65458  0.58200  1.0000
  C   C1787     1.0  0.15237  0.66874  0.57579  1.0000
  C   C1788     1.0  0.16619  0.65200  0.59301  1.0000
  C   C1789     1.0  0.37316  0.72347  0.62292  1.0000
  C   C1790     1.0  0.15861  0.64226  0.57601  1.0000
  H   H1805     1.0  0.14671  0.67079  0.56686  1.0000
  H   H1806     1.0  0.17128  0.64080  0.59788  1.0000
  H   H1807     1.0  0.14795  0.64417  0.57251  1.0000
  H   H1808     1.0  0.16813  0.64109  0.56636  1.0000
  H   H1809     1.0  0.15962  0.63164  0.58441  1.0000
  H   H1810     1.0  0.04724  0.70646  0.65707  1.0000
  C   C1791     1.0  0.12338  0.59508  0.49154  1.0000
  H   H1811     1.0  0.43556  0.72320  0.92934  1.0000
  H   H1812     1.0  0.36158  0.72394  0.53088  1.0000
  H   H1813     1.0  0.43762  0.69088  0.94178  1.0000
  H   H1814     1.0  0.02702  0.69285  0.58463  1.0000
  C   C1792     1.0  0.04973  0.74068  0.65640  1.0000
  C   C1793     1.0  0.13479  0.74668  0.59594  1.0000
  H   H1815     1.0  0.45597  0.77658  0.85149  1.0000
  H   H1816     1.0  0.36384  0.75284  0.64611  1.0000
  H   H1817     1.0  0.37520  0.77111  0.51219  1.0000
  N   N153      1.0  0.19312  0.59641  0.53683  1.0000
  C   C1794     1.0  0.35852  0.72773  0.63068  1.0000
  H   H1818     1.0  0.39331  0.77607  0.52324  1.0000
  H   H1819     1.0  0.02028  0.71715  0.66579  1.0000
  H   H1820     1.0  0.04994  0.63862  0.63981  1.0000
  C   C1795     1.0  0.00508  0.58828  0.71918  1.0000
  C   C1796     1.0  0.44597  0.76897  0.93780  1.0000
  H   H1821     1.0  0.44193  0.77288  0.94832  1.0000
  H   H1822     1.0  0.47860  0.65640  0.91684  1.0000
  H   H1823     1.0  0.09085  0.63445  0.70385  1.0000
  H   H1824     1.0  0.46656  0.63481  0.92471  1.0000
  C   C1797     1.0  0.45118  0.77664  0.83095  1.0000
  C   C1798     1.0  0.00878  0.60395  0.60191  1.0000
  S   S611      1.0  0.10615  0.65095  0.63956  1.0000
  S   S612      1.0  0.30887  0.76993  0.58184  1.0000
  C   C1799     1.0  0.05675  0.59878  0.74172  1.0000
  H   H1825     1.0  0.15873  0.62910  0.53948  1.0000
  Fe  Fe304     1.0  0.40263  0.77797  0.58944  1.0000
  N   N154      1.0  0.07020  0.63166  0.64750  1.0000
  C   C1800     1.0  0.20147  0.60631  0.48859  1.0000
  S   S613      1.0  0.34650  0.59231  0.93864  1.0000
  C   C1801     1.0  0.22188  0.67150  0.53114  1.0000
  C   C1802     1.0  0.22337  0.65734  0.54030  1.0000
  C   C1803     1.0  0.24582  0.66018  0.54496  1.0000
  C   C1804     1.0  0.23540  0.65166  0.54728  1.0000
  H   H1826     1.0  0.21257  0.67574  0.52569  1.0000
  H   H1827     1.0  0.21522  0.65084  0.54192  1.0000
  H   H1828     1.0  0.23659  0.64071  0.55450  1.0000
  C   C1805     1.0  0.48244  0.72853  0.81144  1.0000
  H   H1829     1.0  0.43693  0.69669  0.92244  1.0000
  H   H1830     1.0  0.00591  0.70997  0.65038  1.0000
  C   C1806     1.0  0.19856  0.59218  0.49168  1.0000
  H   H1831     1.0  0.48249  0.77448  0.74174  1.0000
  C   C1807     1.0  0.12315  0.63843  0.59846  1.0000
  H   H1832     1.0  0.13106  0.60167  0.66356  1.0000
  C   C1808     1.0  0.02837  0.58795  0.70075  1.0000
  C   C1809     1.0  0.13070  0.62820  0.60890  1.0000
  S   S614      1.0  0.14377  0.77832  0.63727  1.0000
  S   S615      1.0  0.40251  0.67776  0.96232  1.0000
  C   C1810     1.0  0.48817  0.71517  0.82047  1.0000
  S   S616      1.0  0.47440  0.75848  0.80287  1.0000
  C   C1811     1.0  0.12197  0.60668  0.70525  1.0000
  H   H1833     1.0  0.45238  0.60643  0.89297  1.0000
  H   H1834     1.0  0.37579  0.71559  0.61597  1.0000
  H   H1835     1.0  0.16694  0.59967  0.50325  1.0000
  H   H1836     1.0  0.19326  0.60614  0.60455  1.0000
  H   H1837     1.0  0.22453  0.70295  0.52718  1.0000
  H   H1838     1.0  0.40113  0.74799  0.62151  1.0000
  C   C1812     1.0  0.09230  0.62207  0.63065  1.0000
  C   C1813     1.0  0.25237  0.72047  0.54426  1.0000
  H   H1839     1.0  0.16831  0.61013  0.48472  1.0000
  S   S617      1.0  0.21842  0.65006  0.48005  1.0000
  H   H1840     1.0  0.30583  0.63002  0.93904  1.0000
  C   C1814     1.0  0.24591  0.74901  0.52743  1.0000
  C   C1815     1.0  0.18239  0.66626  0.63905  1.0000
  N   N155      1.0  0.38084  0.74050  0.63175  1.0000
  C   C1816     1.0  0.35521  0.73819  0.63924  1.0000
  C   C1817     1.0  0.35520  0.71805  0.50029  1.0000
  C   C1818     1.0  0.35096  0.65540  0.93231  1.0000
  H   H1841     1.0  0.48000  0.71257  0.95074  1.0000
  C   C1819     1.0  0.12486  0.62431  0.68158  1.0000
  H   H1842     1.0  0.14750  0.58675  0.51412  1.0000
  H   H1843     1.0  0.45649  0.76504  0.83127  1.0000
  H   H1844     1.0  0.15057  0.68487  0.65737  1.0000
  C   C1820     1.0  0.36660  0.74441  0.63976  1.0000
  C   C1821     1.0  0.19752  0.62193  0.58394  1.0000
  C   C1822     1.0  0.46677  0.65772  0.92197  1.0000
  C   C1823     1.0  0.04605  0.60976  0.72022  1.0000
  S   S618      1.0  0.00985  0.76459  0.63493  1.0000
  C   C1824     1.0  0.20171  0.63543  0.57699  1.0000
  Fe  Fe305     1.0  0.40031  0.62873  0.96138  1.0000
  N   N156      1.0  0.44323  0.67344  0.93054  1.0000
  C   C1825     1.0  0.47199  0.71236  0.93204  1.0000
  C   C1826     1.0  0.47028  0.71487  0.94610  1.0000
  Fe  Fe306     1.0  0.12483  0.65035  0.64961  1.0000
  C   C1827     1.0  0.16619  0.64964  0.65335  1.0000
  H   H1845     1.0  0.19771  0.58540  0.50278  1.0000
  H   H1846     1.0  0.00393  0.60218  0.55364  1.0000
  C   C1828     1.0  0.03387  0.70359  0.60376  1.0000
  N   N157      1.0  0.24513  0.73024  0.60550  1.0000
  C   C1829     1.0  0.24339  0.71913  0.61786  1.0000
  C   C1830     1.0  0.25178  0.74125  0.60511  1.0000
  C   C1831     1.0  0.03318  0.60445  0.72802  1.0000
  C   C1832     1.0  0.06318  0.63658  0.66139  1.0000
  C   C1833     1.0  0.25550  0.72979  0.62983  1.0000
  C   C1834     1.0  0.24004  0.73002  0.59262  1.0000
  H   H1847     1.0  0.09188  0.76479  0.62651  1.0000
  H   H1848     1.0  0.25331  0.75006  0.59532  1.0000
  Fe  Fe307     1.0  0.18434  0.59190  0.58526  1.0000
  C   C1835     1.0  0.35520  0.76924  0.54761  1.0000
  C   C1836     1.0  0.04379  0.59347  0.74912  1.0000
  H   H1849     1.0  0.24123  0.74004  0.58366  1.0000
  H   H1850     1.0  0.24676  0.72014  0.58816  1.0000
  H   H1851     1.0  0.22803  0.72946  0.59590  1.0000
  C   C1837     1.0  0.34594  0.62528  0.96467  1.0000
  H   H1852     1.0  0.05127  0.63568  0.66510  1.0000
  C   C1838     1.0  0.00923  0.59185  0.66750  1.0000
  C   C1839     1.0  0.15889  0.67564  0.65363  1.0000
  C   C1840     1.0  0.44357  0.72349  0.94801  1.0000
  C   C1841     1.0  0.00437  0.61085  0.61398  1.0000
  H   H1853     1.0  0.43444  0.60360  0.91713  1.0000
  C   C1842     1.0  0.46001  0.64562  0.92645  1.0000
  C   C1843     1.0  0.24392  0.67438  0.53580  1.0000
  H   H1854     1.0  0.23023  0.71918  0.54404  1.0000
  H   H1855     1.0  0.27360  0.72502  0.54265  1.0000
  H   H1856     1.0  0.03259  0.71507  0.59690  1.0000
  C   C1844     1.0  0.16720  0.60673  0.53622  1.0000
  C   C1845     1.0  0.16048  0.60846  0.49573  1.0000
  C   C1846     1.0  0.32521  0.65249  0.94363  1.0000
  C   C1847     1.0  0.26279  0.72944  0.53964  1.0000
  C   C1848     1.0  0.38265  0.77406  0.53018  1.0000
  H   H1857     1.0  0.11751  0.77491  0.67547  1.0000
  S   S619      1.0  0.48268  0.60355  0.89876  1.0000
  C   C1849     1.0  0.44839  0.59625  0.89772  1.0000
  H   H1858     1.0  0.43255  0.72753  0.95421  1.0000
  H   H1859     1.0  0.35063  0.66532  0.92307  1.0000
  C   C1850     1.0  0.49104  0.61644  0.90136  1.0000
  S   S620      1.0  0.16946  0.58723  0.57369  1.0000
  H   H1860     1.0  0.42233  0.68879  0.93558  1.0000
  C   C1851     1.0  0.43835  0.59453  0.91145  1.0000
  H   H1861     1.0  0.33130  0.69659  0.50413  1.0000
  C   C1852     1.0  0.13858  0.59095  0.66319  1.0000
  H   H1862     1.0  0.00378  0.68490  0.58715  1.0000
  C   C1853     1.0  0.24887  0.67832  0.49146  1.0000
  H   H1863     1.0  0.35064  0.76661  0.52796  1.0000
  C   C1854     1.0  0.35719  0.71957  0.52417  1.0000
  C   C1855     1.0  0.34010  0.63841  0.92595  1.0000
  C   C1856     1.0  0.01842  0.69324  0.59468  1.0000
  H   H1864     1.0  0.43943  0.63818  0.93691  1.0000
  H   H1865     1.0  0.25999  0.72939  0.63912  1.0000
  C   C1857     1.0  0.45280  0.77899  0.63082  1.0000
  C   C1858     1.0  0.20625  0.58411  0.53595  1.0000
  H   H1866     1.0  0.00713  0.59971  0.67469  1.0000
  C   C1859     1.0  0.23951  0.69005  0.48382  1.0000
  S   S621      1.0  0.00545  0.58701  0.58493  1.0000
  C   C1860     1.0  0.12675  0.77867  0.67663  1.0000
  H   H1867     1.0  0.15662  0.60551  0.53519  1.0000
  H   H1868     1.0  0.16281  0.76588  0.68027  1.0000
  H   H1869     1.0  0.34446  0.76744  0.55453  1.0000
  H   H1870     1.0  0.32402  0.66030  0.95029  1.0000
  H   H1871     1.0  0.35826  0.72135  0.48832  1.0000
  C   C1861     1.0  0.13004  0.58801  0.50359  1.0000
  H   H1872     1.0  0.15324  0.59963  0.64303  1.0000
  H   H1873     1.0  0.21611  0.58816  0.52836  1.0000
  C   C1862     1.0  0.48900  0.63085  0.89262  1.0000
  C   C1863     1.0  0.05324  0.77573  0.61597  1.0000
  H   H1874     1.0  0.11617  0.59150  0.68566  1.0000
  C   C1864     1.0  0.45380  0.58452  0.89050  1.0000
  C   C1865     1.0  0.10276  0.77774  0.58670  1.0000
  C   C1866     1.0  0.14036  0.76870  0.67779  1.0000
  H   H1875     1.0  0.38963  0.77080  0.56284  1.0000
  C   C1867     1.0  0.49268  0.71515  0.83306  1.0000
  H   H1876     1.0  0.00118  0.68515  0.65311  1.0000
  S   S622      1.0  0.42288  0.78262  0.49641  1.0000
  H   H1877     1.0  0.18314  0.78108  0.60260  1.0000
  H   H1878     1.0  0.41712  0.59004  0.93514  1.0000
  H   H1879     1.0  0.46200  0.58555  0.88010  1.0000
  H   H1880     1.0  0.48901  0.70479  0.81773  1.0000
  H   H1881     1.0  0.40856  0.72180  0.97312  1.0000
  N   N158      1.0  0.14733  0.60413  0.49465  1.0000
  H   H1882     1.0  0.09050  0.77830  0.58996  1.0000
  C   C1868     1.0  0.15216  0.77355  0.67940  1.0000
  H   H1883     1.0  0.44218  0.76146  0.47918  1.0000
  C   C1869     1.0  0.01873  0.59057  0.74996  1.0000
  H   H1884     1.0  0.44563  0.78023  0.80999  1.0000
  Fe  Fe308     1.0  0.19759  0.66821  0.48008  1.0000
  H   H1885     1.0  0.11457  0.59105  0.48985  1.0000
  C   C1870     1.0  0.48902  0.78285  0.73668  1.0000
  H   H1886     1.0  0.00845  0.59868  0.74726  1.0000
  C   C1871     1.0  0.12851  0.60699  0.48130  1.0000
  C   C1872     1.0  0.40070  0.71525  0.97404  1.0000
  H   H1887     1.0  0.02080  0.58505  0.66711  1.0000
  S   S623      1.0  0.34473  0.64013  0.97242  1.0000
  Fe  Fe309     1.0  0.36779  0.64114  0.97300  1.0000
  H   H1888     1.0  0.49492  0.65205  0.88686  1.0000
  H   H1889     1.0  0.37269  0.69156  0.97700  1.0000
  H   H1890     1.0  0.17886  0.58483  0.53331  1.0000
  H   H1891     1.0  0.32336  0.62297  0.97521  1.0000
  C   C1873     1.0  0.99559  0.70719  0.65719  1.0000
  C   C1874     1.0  0.45082  0.78310  0.84232  1.0000
  H   H1892     1.0  0.49437  0.77285  0.62115  1.0000
  H   H1893     1.0  0.45931  0.79773  0.26561  1.0000
  C   C1875     1.0  0.42435  0.81067  0.39249  1.0000
  H   H1894     1.0  0.04231  0.80891  0.42985  1.0000
  H   H1895     1.0  0.42211  0.97914  0.36989  1.0000
  H   H1896     1.0  0.48161  0.81935  0.33932  1.0000
  C   C1876     1.0  0.44531  0.81251  0.37106  1.0000
  H   H1897     1.0  0.28101  0.82967  0.38817  1.0000
  S   S624      1.0  0.36871  0.96977  0.39000  1.0000
  C   C1877     1.0  0.44309  0.97798  0.24472  1.0000
  H   H1898     1.0  0.36900  0.83961  0.34413  1.0000
  H   H1899     1.0  0.34302  0.96512  0.34321  1.0000
  H   H1900     1.0  0.40137  0.97392  0.34242  1.0000
  Fe  Fe310     1.0  0.39965  0.87584  0.29511  1.0000
  S   S625      1.0  0.41049  0.88727  0.30504  1.0000
  S   S626      1.0  0.37506  0.87745  0.30446  1.0000
  Fe  Fe311     1.0  0.42864  0.86459  0.27481  1.0000
  S   S627      1.0  0.44246  0.85068  0.25845  1.0000
  H   H1901     1.0  0.37762  0.85402  0.42471  1.0000
  Fe  Fe312     1.0  0.42249  0.89477  0.28178  1.0000
  Fe  Fe313     1.0  0.42857  0.86668  0.30550  1.0000
  S   S628      1.0  0.41681  0.85448  0.29744  1.0000
  S   S629      1.0  0.41028  0.88497  0.27153  1.0000
  Fe  Fe314     1.0  0.33819  0.86505  0.38521  1.0000
  S   S630      1.0  0.33161  0.86644  0.40895  1.0000
  S   S631      1.0  0.36241  0.86403  0.37409  1.0000
  Fe  Fe315     1.0  0.30711  0.86264  0.38515  1.0000
  H   H1902     1.0  0.20433  0.93197  0.40220  1.0000
  S   S632      1.0  0.29613  0.85778  0.36981  1.0000
  Fe  Fe316     1.0  0.31077  0.88185  0.40312  1.0000
  S   S633      1.0  0.30342  0.90255  0.41192  1.0000
  N   N159      1.0  0.34755  0.84850  0.33872  1.0000
  S   S634      1.0  0.31816  0.88193  0.37889  1.0000
  S   S635      1.0  0.32796  0.84568  0.38920  1.0000
  C   C1878     1.0  0.39414  0.90741  0.35396  1.0000
  H   H1903     1.0  0.43280  0.90072  0.31218  1.0000
  S   S636      1.0  0.42768  0.91730  0.27211  1.0000
  H   H1904     1.0  0.32257  0.87447  0.31225  1.0000
  C   C1879     1.0  0.23459  0.79818  0.45163  1.0000
  H   H1905     1.0  0.40383  0.91844  0.29830  1.0000
  Fe  Fe317     1.0  0.47151  0.83694  0.17732  1.0000
  S   S637      1.0  0.44974  0.83234  0.17730  1.0000
  C   C1880     1.0  0.38897  0.98134  0.44307  1.0000
  Fe  Fe318     1.0  0.46379  0.86942  0.16246  1.0000
  S   S638      1.0  0.44130  0.86808  0.16048  1.0000
  S   S639      1.0  0.47581  0.88795  0.15742  1.0000
  Fe  Fe319     1.0  0.43957  0.85427  0.18365  1.0000
  S   S640      1.0  0.41889  0.85848  0.20136  1.0000
  Fe  Fe320     1.0  0.45299  0.84616  0.15413  1.0000
  S   S641      1.0  0.44869  0.83995  0.13493  1.0000
  S   S642      1.0  0.46097  0.85740  0.18609  1.0000
  S   S643      1.0  0.47569  0.84901  0.15367  1.0000
  C   C1881     1.0  0.33056  0.88494  0.44160  1.0000
  S   S644      1.0  0.43764  0.85619  0.32603  1.0000
  H   H1906     1.0  0.33711  0.90556  0.43023  1.0000
  H   H1907     1.0  0.34924  0.86351  0.30229  1.0000
  H   H1908     1.0  0.44372  0.90257  0.32381  1.0000
  S   S645      1.0  0.47832  0.79666  0.38454  1.0000
  Fe  Fe321     1.0  0.21613  0.82895  0.43115  1.0000
  S   S646      1.0  0.20709  0.83417  0.41089  1.0000
  H   H1909     1.0  0.25948  0.82126  0.38957  1.0000
  Fe  Fe322     1.0  0.20347  0.86016  0.43607  1.0000
  S   S647      1.0  0.19288  0.86764  0.41638  1.0000
  S   S648      1.0  0.20137  0.87595  0.45029  1.0000
  Fe  Fe323     1.0  0.18613  0.84565  0.42402  1.0000
  S   S649      1.0  0.16341  0.84182  0.42517  1.0000
  Fe  Fe324     1.0  0.21488  0.85522  0.40527  1.0000
  S   S650      1.0  0.22650  0.86219  0.38168  1.0000
  S   S651      1.0  0.19467  0.83924  0.44486  1.0000
  S   S652      1.0  0.22595  0.84902  0.42439  1.0000
  S   S653      1.0  0.24716  0.95982  0.46592  1.0000
  H   H1910     1.0  0.40818  0.83559  0.19293  1.0000
  H   H1911     1.0  0.43201  0.97865  0.16141  1.0000
  C   C1882     1.0  0.36522  0.97025  0.46329  1.0000
  H   H1912     1.0  0.19333  0.86592  0.38546  1.0000
  H   H1913     1.0  0.04738  0.80411  0.41198  1.0000
  S   S654      1.0  0.44179  0.87527  0.28309  1.0000
  H   H1914     1.0  0.26590  0.97416  0.47357  1.0000
  H   H1915     1.0  0.40625  0.98265  0.39449  1.0000
  H   H1916     1.0  0.29244  0.83064  0.42775  1.0000
  N   N160      1.0  0.35831  0.87165  0.42665  1.0000
  C   C1883     1.0  0.43520  0.89694  0.32343  1.0000
  C   C1884     1.0  0.41139  0.84846  0.17057  1.0000
  Fe  Fe325     1.0  0.23292  0.98216  0.41882  1.0000
  Fe  Fe326     1.0  0.45242  0.96201  0.18281  1.0000
  H   H1917     1.0  0.35851  0.96906  0.44415  1.0000
  S   S655      1.0  0.44052  0.94813  0.17677  1.0000
  H   H1918     1.0  0.33739  0.81328  0.45535  1.0000
  C   C1885     1.0  0.27116  0.82537  0.43051  1.0000
  H   H1919     1.0  0.46772  0.81278  0.29176  1.0000
  H   H1920     1.0  0.33222  0.78734  0.47000  1.0000
  S   S656      1.0  0.46393  0.95430  0.20178  1.0000
  Fe  Fe327     1.0  0.43041  0.96492  0.31964  1.0000
  H   H1921     1.0  0.18532  0.93423  0.40051  1.0000
  S   S657      1.0  0.41314  0.95196  0.32262  1.0000
  C   C1886     1.0  0.39496  0.96716  0.35209  1.0000
  H   H1922     1.0  0.48084  0.83199  0.29312  1.0000
  H   H1923     1.0  0.45598  0.84853  0.29873  1.0000
  H   H1924     1.0  0.47716  0.80276  0.26021  1.0000
  S   S658      1.0  0.43644  0.96653  0.33985  1.0000
  S   S659      1.0  0.45421  0.96057  0.30693  1.0000
  Fe  Fe328     1.0  0.35159  0.95600  0.39998  1.0000
  C   C1887     1.0  0.49179  0.94563  0.35890  1.0000
  S   S660      1.0  0.35804  0.93328  0.39512  1.0000
  C   C1888     1.0  0.31893  0.79237  0.44843  1.0000
  S   S661      1.0  0.38657  0.79433  0.47763  1.0000
  C   C1889     1.0  0.40383  0.91712  0.34870  1.0000
  S   S662      1.0  0.41977  0.79353  0.45503  1.0000
  C   C1890     1.0  0.48766  0.81051  0.20278  1.0000
  S   S663      1.0  0.34580  0.96232  0.42191  1.0000
  C   C1891     1.0  0.45549  0.79327  0.40863  1.0000
  Fe  Fe329     1.0  0.23258  0.96406  0.44985  1.0000
  C   C1892     1.0  0.46280  0.79266  0.45184  1.0000
  Fe  Fe330     1.0  0.22422  0.95211  0.42770  1.0000
  H   H1925     1.0  0.19425  0.91779  0.41203  1.0000
  S   S664      1.0  0.22757  0.93295  0.41712  1.0000
  Fe  Fe331     1.0  0.39578  0.80109  0.45321  1.0000
  H   H1926     1.0  0.17334  0.93075  0.45759  1.0000
  H   H1927     1.0  0.45937  0.97403  0.11869  1.0000
  S   S665      1.0  0.24450  0.95925  0.42774  1.0000
  S   S666      1.0  0.21318  0.95462  0.45093  1.0000
  S   S667      1.0  0.47931  0.94969  0.33551  1.0000
  H   H1928     1.0  0.46624  0.86162  0.23054  1.0000
  H   H1929     1.0  0.45058  0.96304  0.14533  1.0000
  H   H1930     1.0  0.47721  0.94512  0.23621  1.0000
  C   C1893     1.0  0.25412  0.82324  0.40085  1.0000
  C   C1894     1.0  0.48280  0.82453  0.31584  1.0000
  C   C1895     1.0  0.47049  0.80079  0.29368  1.0000
  H   H1931     1.0  0.26811  0.82445  0.44239  1.0000
  C   C1896     1.0  0.48320  0.84766  0.21735  1.0000
  C   C1897     1.0  0.17294  0.80365  0.44754  1.0000
  C   C1898     1.0  0.46674  0.80264  0.26898  1.0000
  H   H1932     1.0  0.37026  0.86236  0.40815  1.0000
  S   S668      1.0  0.33315  0.97323  0.39095  1.0000
  H   H1933     1.0  0.32737  0.86268  0.45118  1.0000
  H   H1934     1.0  0.38346  0.91027  0.36145  1.0000
  C   C1899     1.0  0.34438  0.86070  0.31405  1.0000
  N   N161      1.0  0.42135  0.90021  0.33449  1.0000
  H   H1935     1.0  0.39223  0.97261  0.36152  1.0000
  C   C1900     1.0  0.40828  0.83609  0.18151  1.0000
  N   N162      1.0  0.40918  0.83735  0.15214  1.0000
  N   N163      1.0  0.43563  0.80378  0.38271  1.0000
  N   N164      1.0  0.43416  0.91906  0.22809  1.0000
  C   C1901     1.0  0.37673  0.97397  0.33633  1.0000
  C   C1902     1.0  0.33287  0.85433  0.34428  1.0000
  C   C1903     1.0  0.43547  0.97704  0.25949  1.0000
  C   C1904     1.0  0.47417  0.79251  0.30712  1.0000
  C   C1905     1.0  0.47564  0.83294  0.30440  1.0000
  H   H1936     1.0  0.47095  0.95979  0.27598  1.0000
  H   H1937     1.0  0.18274  0.91805  0.43675  1.0000
  C   C1906     1.0  0.47806  0.95747  0.26559  1.0000
  C   C1907     1.0  0.42690  0.98105  0.37796  1.0000
  C   C1908     1.0  0.29697  0.79032  0.44214  1.0000
  H   H1938     1.0  0.32825  0.85200  0.35609  1.0000
  C   C1909     1.0  0.41747  0.91331  0.33894  1.0000
  H   H1939     1.0  0.35389  0.84243  0.35950  1.0000
  H   H1940     1.0  0.31959  0.89019  0.44712  1.0000
  C   C1910     1.0  0.15064  0.85037  0.38908  1.0000
  C   C1911     1.0  0.26131  0.82337  0.42324  1.0000
  H   H1941     1.0  0.36135  0.89366  0.41648  1.0000
  H   H1942     1.0  0.45399  0.80502  0.40769  1.0000
  C   C1912     1.0  0.24769  0.78643  0.47624  1.0000
  H   H1943     1.0  0.44896  0.97993  0.36394  1.0000
  H   H1944     1.0  0.48360  0.88262  0.18580  1.0000
  H   H1945     1.0  0.43889  0.82033  0.36294  1.0000
  C   C1913     1.0  0.27826  0.82816  0.40012  1.0000
  C   C1914     1.0  0.20983  0.89114  0.44144  1.0000
  C   C1915     1.0  0.21714  0.89301  0.42653  1.0000
  C   C1916     1.0  0.22310  0.90560  0.41941  1.0000
  C   C1917     1.0  0.22161  0.91651  0.42706  1.0000
  C   C1918     1.0  0.21465  0.91448  0.44208  1.0000
  C   C1919     1.0  0.20879  0.90179  0.44925  1.0000
  H   H1946     1.0  0.21808  0.88483  0.42043  1.0000
  H   H1947     1.0  0.22857  0.90705  0.40781  1.0000
  C   C1920     1.0  0.37841  0.97775  0.43792  1.0000
  H   H1948     1.0  0.47722  0.79775  0.43030  1.0000
  C   C1921     1.0  0.35162  0.83064  0.42044  1.0000
  H   H1949     1.0  0.43578  0.94171  0.22396  1.0000
  H   H1950     1.0  0.44278  0.92962  0.23956  1.0000
  S   S669      1.0  0.29786  0.86397  0.40896  1.0000
  C   C1922     1.0  0.17695  0.93694  0.44646  1.0000
  C   C1923     1.0  0.46222  0.83563  0.33353  1.0000
  S   S670      1.0  0.32234  0.82885  0.43140  1.0000
  H   H1951     1.0  0.43261  0.88483  0.21561  1.0000
  C   C1924     1.0  0.36663  0.97198  0.44804  1.0000
  C   C1925     1.0  0.45496  0.84393  0.32209  1.0000
  C   C1926     1.0  0.15844  0.80580  0.40562  1.0000
  C   C1927     1.0  0.35710  0.83890  0.34880  1.0000
  C   C1928     1.0  0.14826  0.82298  0.42200  1.0000
  C   C1929     1.0  0.16208  0.82703  0.41857  1.0000
  C   C1930     1.0  0.17422  0.81994  0.40913  1.0000
  C   C1931     1.0  0.17234  0.80954  0.40252  1.0000
  Fe  Fe332     1.0  0.45984  0.96458  0.32629  1.0000
  C   C1932     1.0  0.32364  0.86369  0.33486  1.0000
  H   H1952     1.0  0.18487  0.82295  0.40634  1.0000
  H   H1953     1.0  0.18162  0.80460  0.39470  1.0000
  C   C1933     1.0  0.46588  0.90438  0.16334  1.0000
  C   C1934     1.0  0.47380  0.91395  0.16480  1.0000
  C   C1935     1.0  0.46615  0.92729  0.16922  1.0000
  C   C1936     1.0  0.45054  0.93126  0.17183  1.0000
  C   C1937     1.0  0.44263  0.92173  0.17030  1.0000
  C   C1938     1.0  0.45025  0.90819  0.16633  1.0000
  H   H1954     1.0  0.45504  0.80539  0.36501  1.0000
  H   H1955     1.0  0.47234  0.93462  0.17030  1.0000
  H   H1956     1.0  0.43055  0.92485  0.17212  1.0000
  H   H1957     1.0  0.44408  0.90092  0.16511  1.0000
  H   H1958     1.0  0.46690  0.88434  0.21024  1.0000
  C   C1939     1.0  0.43964  0.80530  0.12564  1.0000
  C   C1940     1.0  0.44457  0.81817  0.12427  1.0000
  C   C1941     1.0  0.44514  0.82240  0.13686  1.0000
  C   C1942     1.0  0.44130  0.81332  0.15080  1.0000
  C   C1943     1.0  0.43610  0.80062  0.15219  1.0000
  H   H1959     1.0  0.43881  0.80241  0.11589  1.0000
  H   H1960     1.0  0.44755  0.82512  0.11343  1.0000
  H   H1961     1.0  0.44166  0.81642  0.16057  1.0000
  H   H1962     1.0  0.41348  0.85762  0.17353  1.0000
  C   C1944     1.0  0.31831  0.91162  0.40659  1.0000
  C   C1945     1.0  0.31711  0.92385  0.41227  1.0000
  C   C1946     1.0  0.32911  0.93091  0.40838  1.0000
  C   C1947     1.0  0.34251  0.92543  0.39914  1.0000
  C   C1948     1.0  0.34374  0.91318  0.39348  1.0000
  C   C1949     1.0  0.33162  0.90637  0.39709  1.0000
  H   H1963     1.0  0.30708  0.92758  0.42000  1.0000
  H   H1964     1.0  0.32816  0.94028  0.41291  1.0000
  H   H1965     1.0  0.35406  0.90893  0.38629  1.0000
  H   H1966     1.0  0.33266  0.89701  0.39256  1.0000
  C   C1950     1.0  0.35865  0.95665  0.35754  1.0000
  C   C1951     1.0  0.27657  0.86019  0.37339  1.0000
  C   C1952     1.0  0.26719  0.86329  0.38670  1.0000
  C   C1953     1.0  0.25172  0.86397  0.38943  1.0000
  C   C1954     1.0  0.24565  0.86182  0.37873  1.0000
  C   C1955     1.0  0.25504  0.85902  0.36538  1.0000
  C   C1956     1.0  0.27043  0.85805  0.36279  1.0000
  H   H1967     1.0  0.27183  0.86504  0.39493  1.0000
  H   H1968     1.0  0.24449  0.86648  0.39965  1.0000
  H   H1969     1.0  0.25043  0.85740  0.35705  1.0000
  H   H1970     1.0  0.27760  0.85563  0.35249  1.0000
  C   C1957     1.0  0.33491  0.86955  0.44387  1.0000
  H   H1971     1.0  0.31207  0.86849  0.33939  1.0000
  C   C1958     1.0  0.06896  0.78959  0.38918  1.0000
  C   C1959     1.0  0.47291  0.81019  0.21042  1.0000
  C   C1960     1.0  0.37177  0.87504  0.32372  1.0000
  C   C1961     1.0  0.35736  0.87985  0.33182  1.0000
  C   C1962     1.0  0.35442  0.87673  0.34733  1.0000
  C   C1963     1.0  0.36594  0.86897  0.35473  1.0000
  C   C1964     1.0  0.38043  0.86455  0.34661  1.0000
  C   C1965     1.0  0.38333  0.86752  0.33114  1.0000
  H   H1972     1.0  0.34842  0.88579  0.32611  1.0000
  H   H1973     1.0  0.34325  0.88030  0.35351  1.0000
  H   H1974     1.0  0.38936  0.85846  0.35230  1.0000
  H   H1975     1.0  0.39445  0.86361  0.32499  1.0000
  C   C1966     1.0  0.42251  0.92806  0.28539  1.0000
  C   C1967     1.0  0.43066  0.93854  0.28402  1.0000
  C   C1968     1.0  0.42753  0.94629  0.29523  1.0000
  C   C1969     1.0  0.41612  0.94367  0.30773  1.0000
  C   C1970     1.0  0.40739  0.93383  0.30868  1.0000
  C   C1971     1.0  0.41065  0.92595  0.29757  1.0000
  H   H1976     1.0  0.43957  0.94045  0.27444  1.0000
  H   H1977     1.0  0.43396  0.95423  0.29417  1.0000
  H   H1978     1.0  0.39823  0.93212  0.31809  1.0000
  H   H1979     1.0  0.19117  0.95825  0.40698  1.0000
  C   C1972     1.0  0.43477  0.85165  0.24361  1.0000
  C   C1973     1.0  0.42067  0.86059  0.24210  1.0000
  C   C1974     1.0  0.41546  0.86223  0.22936  1.0000
  C   C1975     1.0  0.42440  0.85502  0.21811  1.0000
  C   C1976     1.0  0.43819  0.84564  0.21994  1.0000
  C   C1977     1.0  0.44335  0.84393  0.23267  1.0000
  H   H1980     1.0  0.41387  0.86637  0.25063  1.0000
  H   H1981     1.0  0.40471  0.86939  0.22803  1.0000
  H   H1982     1.0  0.44489  0.83964  0.21155  1.0000
  H   H1983     1.0  0.45407  0.83670  0.23395  1.0000
  H   H1984     1.0  0.41813  0.84382  0.12905  1.0000
  N   N165      1.0  0.47038  0.79387  0.28314  1.0000
  H   H1985     1.0  0.40232  0.95603  0.35464  1.0000
  Fe  Fe333     1.0  0.36130  0.97786  0.41094  1.0000
  H   H1986     1.0  0.46371  0.81716  0.20553  1.0000
  C   C1978     1.0  0.34033  0.89359  0.43201  1.0000
  H   H1987     1.0  0.19756  0.83177  0.36310  1.0000
  H   H1988     1.0  0.46147  0.94950  0.26054  1.0000
  C   C1979     1.0  0.36623  0.82918  0.42174  1.0000
  C   C1980     1.0  0.31988  0.78982  0.47421  1.0000
  C   C1981     1.0  0.14649  0.81225  0.41571  1.0000
  H   H1989     1.0  0.46083  0.80357  0.45400  1.0000
  H   H1990     1.0  0.41492  0.88026  0.33600  1.0000
  C   C1982     1.0  0.43582  0.89285  0.23299  1.0000
  H   H1991     1.0  0.42880  0.90977  0.19894  1.0000
  H   H1992     1.0  0.02428  0.79522  0.41809  1.0000
  H   H1993     1.0  0.40315  0.81467  0.18605  1.0000
  C   C1983     1.0  0.44627  0.97464  0.14075  1.0000
  H   H1994     1.0  0.36344  0.81026  0.45755  1.0000
  Fe  Fe334     1.0  0.44906  0.97437  0.20948  1.0000
  H   H1995     1.0  0.42296  0.93532  0.24076  1.0000
  S   S671      1.0  0.49165  0.82185  0.18516  1.0000
  C   C1984     1.0  0.29747  0.78855  0.46742  1.0000
  H   H1996     1.0  0.29877  0.83325  0.40045  1.0000
  H   H1997     1.0  0.36495  0.84690  0.31932  1.0000
  C   C1985     1.0  0.32949  0.86696  0.31965  1.0000
  H   H1998     1.0  0.23109  0.81943  0.45676  1.0000
  C   C1986     1.0  0.24303  0.97559  0.47328  1.0000
  C   C1987     1.0  0.40544  0.82441  0.17765  1.0000
  H   H1999     1.0  0.43258  0.79400  0.16307  1.0000
  C   C1988     1.0  0.41196  0.84885  0.15584  1.0000
  H   H2000     1.0  0.24881  0.81380  0.40728  1.0000
  C   C1989     1.0  0.31158  0.79242  0.43776  1.0000
  C   C1990     1.0  0.48147  0.94919  0.24326  1.0000
  H   H2001     1.0  0.39597  0.98205  0.46213  1.0000
  H   H2002     1.0  0.14460  0.85877  0.38099  1.0000
  H   H2003     1.0  0.43718  0.79101  0.42740  1.0000
  C   C1991     1.0  0.43624  0.90535  0.23735  1.0000
  C   C1992     1.0  0.34548  0.81746  0.44589  1.0000
  C   C1993     1.0  0.34111  0.82512  0.43260  1.0000
  C   C1994     1.0  0.48516  0.97575  0.35892  1.0000
  C   C1995     1.0  0.28477  0.82883  0.42231  1.0000
  C   C1996     1.0  0.02891  0.78645  0.42654  1.0000
  C   C1997     1.0  0.16482  0.79446  0.44579  1.0000
  C   C1998     1.0  0.25447  0.98038  0.47586  1.0000
  C   C1999     1.0  0.36299  0.97374  0.33397  1.0000
  H   H2004     1.0  0.15273  0.79697  0.44941  1.0000
  S   S672      1.0  0.15599  0.79451  0.39535  1.0000
  H   H2005     1.0  0.46081  0.81426  0.26956  1.0000
  C   C2000     1.0  0.35412  0.88676  0.42437  1.0000
  H   H2006     1.0  0.35218  0.85110  0.43805  1.0000
  C   C2001     1.0  0.34896  0.86305  0.43633  1.0000
  C   C2002     1.0  0.48207  0.79083  0.23019  1.0000
  H   H2007     1.0  0.20770  0.78671  0.43173  1.0000
  H   H2008     1.0  0.42264  0.82245  0.39167  1.0000
  C   C2003     1.0  0.43783  0.78890  0.38377  1.0000
  C   C2004     1.0  0.47420  0.87383  0.20852  1.0000
  H   H2009     1.0  0.42479  0.92107  0.33465  1.0000
  H   H2010     1.0  0.40073  0.92769  0.35188  1.0000
  C   C2005     1.0  0.44197  0.98158  0.37459  1.0000
  C   C2006     1.0  0.18231  0.92981  0.43461  1.0000
  C   C2007     1.0  0.18699  0.95223  0.41802  1.0000
  C   C2008     1.0  0.28976  0.78858  0.45703  1.0000
  C   C2009     1.0  0.18135  0.95976  0.42954  1.0000
  H   H2011     1.0  0.16722  0.81319  0.45238  1.0000
  H   H2012     1.0  0.20324  0.90033  0.46082  1.0000
  H   H2013     1.0  0.47428  0.79805  0.31543  1.0000
  H   H2014     1.0  0.45007  0.81879  0.37597  1.0000
  H   H2015     1.0  0.48284  0.83764  0.22597  1.0000
  C   C2010     1.0  0.23537  0.80762  0.45994  1.0000
  H   H2016     1.0  0.21353  0.92279  0.44809  1.0000
  H   H2017     1.0  0.38067  0.87179  0.41413  1.0000
  C   C2011     1.0  0.47264  0.95163  0.25692  1.0000
  H   H2018     1.0  0.45872  0.79969  0.22985  1.0000
  N   N166      1.0  0.27435  0.93308  0.41625  1.0000
  C   C2012     1.0  0.27161  0.92860  0.43134  1.0000
  C   C2013     1.0  0.28064  0.94504  0.40926  1.0000
  C   C2014     1.0  0.27519  0.93618  0.43985  1.0000
  C   C2015     1.0  0.28451  0.95276  0.41741  1.0000
  C   C2016     1.0  0.28171  0.94831  0.43280  1.0000
  C   C2017     1.0  0.26968  0.92572  0.40748  1.0000
  H   H2019     1.0  0.26627  0.91936  0.43689  1.0000
  H   H2020     1.0  0.28258  0.94875  0.39734  1.0000
  H   H2021     1.0  0.27250  0.93300  0.45183  1.0000
  H   H2022     1.0  0.28950  0.96222  0.41181  1.0000
  S   S673      1.0  0.38821  0.82181  0.43711  1.0000
  H   H2023     1.0  0.26755  0.91470  0.41385  1.0000
  H   H2024     1.0  0.25926  0.93264  0.40401  1.0000
  H   H2025     1.0  0.27863  0.92380  0.39755  1.0000
  H   H2026     1.0  0.44025  0.88487  0.32539  1.0000
  C   C2018     1.0  0.40920  0.83828  0.13671  1.0000
  H   H2027     1.0  0.39820  0.84459  0.13423  1.0000
  N   N167      1.0  0.31199  0.79009  0.46309  1.0000
  H   H2028     1.0  0.16629  0.86621  0.39495  1.0000
  C   C2019     1.0  0.17305  0.85881  0.38774  1.0000
  H   H2029     1.0  0.31735  0.79380  0.42623  1.0000
  H   H2030     1.0  0.41165  0.82708  0.13439  1.0000
  H   H2031     1.0  0.13568  0.80953  0.41805  1.0000
  C   C2020     1.0  0.19073  0.83949  0.36993  1.0000
  C   C2021     1.0  0.19721  0.84884  0.37366  1.0000
  H   H2032     1.0  0.34850  0.83617  0.41000  1.0000
  C   C2022     1.0  0.36020  0.81583  0.44714  1.0000
  H   H2033     1.0  0.43440  0.98159  0.28038  1.0000
  C   C2023     1.0  0.18833  0.85862  0.38254  1.0000
  H   H2034     1.0  0.47422  0.97891  0.34117  1.0000
  C   C2024     1.0  0.48026  0.97093  0.34900  1.0000
  C   C2025     1.0  0.17536  0.84012  0.37514  1.0000
  C   C2026     1.0  0.28837  0.83023  0.40701  1.0000
  C   C2027     1.0  0.40573  0.82531  0.16284  1.0000
  N   N168      1.0  0.16678  0.84960  0.38405  1.0000
  C   C2028     1.0  0.37045  0.82204  0.43517  1.0000
  N   N169      1.0  0.26494  0.82473  0.40825  1.0000
  C   C2029     1.0  0.43392  0.93207  0.23326  1.0000
  H   H2035     1.0  0.42974  0.93158  0.20707  1.0000
  Fe  Fe335     1.0  0.31964  0.84848  0.41249  1.0000
  H   H2036     1.0  0.20912  0.84851  0.36976  1.0000
  C   C2030     1.0  0.47606  0.82578  0.33044  1.0000
  H   H2037     1.0  0.37421  0.83371  0.41235  1.0000
  S   S674      1.0  0.21335  0.97489  0.41664  1.0000
  H   H2038     1.0  0.40363  0.81614  0.15990  1.0000
  H   H2039     1.0  0.45718  0.83686  0.34476  1.0000
  H   H2040     1.0  0.17040  0.83274  0.37228  1.0000
  S   S675      1.0  0.46868  0.97585  0.16816  1.0000
  H   H2041     1.0  0.14636  0.85333  0.40009  1.0000
  C   C2031     1.0  0.41506  0.80261  0.40386  1.0000
  C   C2032     1.0  0.43314  0.89442  0.21909  1.0000
  N   N170      1.0  0.18739  0.93745  0.42064  1.0000
  C   C2033     1.0  0.46161  0.84241  0.30757  1.0000
  H   H2042     1.0  0.41490  0.85830  0.14734  1.0000
  C   C2034     1.0  0.47385  0.86113  0.21986  1.0000
  C   C2035     1.0  0.41799  0.98312  0.39171  1.0000
  H   H2043     1.0  0.35161  0.94997  0.36604  1.0000
  C   C2036     1.0  0.19304  0.92999  0.40823  1.0000
  C   C2037     1.0  0.47204  0.78938  0.43861  1.0000
  C   C2038     1.0  0.48378  0.87281  0.19472  1.0000
  C   C2039     1.0  0.37242  0.86463  0.41796  1.0000
  H   H2044     1.0  0.43815  0.90401  0.24824  1.0000
  C   C2040     1.0  0.35326  0.85130  0.32378  1.0000
  H   H2045     1.0  0.43734  0.88205  0.24048  1.0000
  H   H2046     1.0  0.25067  0.82090  0.42966  1.0000
  H   H2047     1.0  0.28434  0.95439  0.43929  1.0000
  H   H2048     1.0  0.14804  0.83945  0.39045  1.0000
  C   C2041     1.0  0.43152  0.92072  0.21442  1.0000
  H   H2049     1.0  0.27677  0.98185  0.44074  1.0000
  C   C2042     1.0  0.44598  0.78532  0.41989  1.0000
  H   H2050     1.0  0.39070  0.88646  0.35334  1.0000
  H   H2051     1.0  0.13879  0.82843  0.42929  1.0000
  C   C2043     1.0  0.41193  0.89061  0.33960  1.0000
  C   C2044     1.0  0.19564  0.78888  0.43575  1.0000
  C   C2045     1.0  0.39821  0.89405  0.34942  1.0000
  C   C2046     1.0  0.43100  0.90843  0.20972  1.0000
  H   H2052     1.0  0.35615  0.82726  0.35090  1.0000
  S   S676      1.0  0.22775  0.80507  0.43543  1.0000
  C   C2047     1.0  0.47011  0.80034  0.22418  1.0000
  H   H2053     1.0  0.06023  0.79706  0.42396  1.0000
  N   N171      1.0  0.38115  0.96596  0.34912  1.0000
  C   C2048     1.0  0.37246  0.95713  0.35951  1.0000
  C   C2049     1.0  0.43498  0.79672  0.13965  1.0000
  C   C2050     1.0  0.35385  0.96513  0.34473  1.0000
  H   H2054     1.0  0.18094  0.97151  0.42742  1.0000
  H   H2055     1.0  0.37603  0.95062  0.36956  1.0000
  H   H2056     1.0  0.24524  0.83354  0.39982  1.0000
  H   H2057     1.0  0.48591  0.91109  0.16242  1.0000
  N   N172      1.0  0.49188  0.96081  0.26078  1.0000
  H   H2058     1.0  0.29128  0.78989  0.43405  1.0000
  H   H2059     1.0  0.38373  0.98077  0.32797  1.0000
  C   C2051     1.0  0.37559  0.97425  0.46838  1.0000
  S   S677      1.0  0.04309  0.78974  0.38203  1.0000
  C   C2052     1.0  0.44040  0.98232  0.26899  1.0000
  C   C2053     1.0  0.24200  0.80171  0.47226  1.0000
  H   H2060     1.0  0.40633  0.80804  0.41182  1.0000
  Fe  Fe336     1.0  0.32864  0.98095  0.41198  1.0000
  C   C2054     1.0  0.07955  0.78475  0.39811  1.0000
  N   N173      1.0  0.04138  0.78704  0.43052  1.0000
  C   C2055     1.0  0.48376  0.95587  0.34885  1.0000
  H   H2061     1.0  0.19489  0.80782  0.44376  1.0000
  H   H2062     1.0  0.27838  0.78699  0.46058  1.0000
  C   C2056     1.0  0.41733  0.78741  0.40512  1.0000
  Fe  Fe337     1.0  0.20345  0.97791  0.43993  1.0000
  H   H2063     1.0  0.06937  0.79947  0.38044  1.0000
  H   H2064     1.0  0.45106  0.97884  0.41543  1.0000
  S   S678      1.0  0.37971  0.98172  0.41877  1.0000
  C   C2057     1.0  0.49275  0.84709  0.20349  1.0000
  H   H2065     1.0  0.08791  0.79102  0.39639  1.0000
  C   C2058     1.0  0.38761  0.97952  0.45825  1.0000
  H   H2066     1.0  0.48845  0.97698  0.27319  1.0000
  Fe  Fe338     1.0  0.49364  0.78650  0.36577  1.0000
  H   H2067     1.0  0.35597  0.96605  0.47109  1.0000
  C   C2059     1.0  0.04812  0.79995  0.42379  1.0000
  C   C2060     1.0  0.17646  0.95202  0.44387  1.0000
  H   H2068     1.0  0.17240  0.95774  0.45293  1.0000
  S   S679      1.0  0.48413  0.78522  0.34752  1.0000
  Fe  Fe339     1.0  0.47875  0.96994  0.18819  1.0000
  C   C2061     1.0  0.18845  0.80077  0.44254  1.0000
  H   H2069     1.0  0.21940  0.97997  0.47438  1.0000
  S   S680      1.0  0.43624  0.97188  0.23298  1.0000
  N   N174      1.0  0.49287  0.85953  0.19236  1.0000
  H   H2070     1.0  0.35936  0.98045  0.32401  1.0000
  H   H2071     1.0  0.42570  0.97224  0.26361  1.0000
  H   H2072     1.0  0.42525  0.78585  0.04058  1.0000
  H   H2073     1.0  0.33033  0.79392  0.44492  1.0000
  C   C2062     1.0  0.49325  0.96547  0.36896  1.0000
  C   C2063     1.0  0.46681  0.78616  0.39852  1.0000
  H   H2074     1.0  0.31644  0.80072  0.47733  1.0000
  C   C2064     1.0  0.45114  0.98079  0.12581  1.0000
  H   H2075     1.0  0.49455  0.93397  0.35881  1.0000
  H   H2076     1.0  0.44878  0.78446  0.47249  1.0000
  S   S681      1.0  0.43632  0.98109  0.19161  1.0000
  S   S682      1.0  0.00227  0.78363  0.40211  1.0000
  C   C2065     1.0  0.43578  0.98355  0.14983  1.0000
  H   H2077     1.0  0.27690  0.82138  0.67076  1.0000
  Fe  Fe340     1.0  0.21192  0.86664  0.63569  1.0000
  S   S683      1.0  0.20615  0.89006  0.62292  1.0000
  Fe  Fe341     1.0  0.40123  0.84842  0.89703  1.0000
  S   S684      1.0  0.42046  0.85532  0.90020  1.0000
  S   S685      1.0  0.38812  0.83328  0.91502  1.0000
  Fe  Fe342     1.0  0.40429  0.86612  0.86487  1.0000
  S   S686      1.0  0.42375  0.87432  0.86571  1.0000
  S   S687      1.0  0.39543  0.87625  0.84411  1.0000
  Fe  Fe343     1.0  0.43143  0.85085  0.87760  1.0000
  S   S688      1.0  0.45440  0.83674  0.87186  1.0000
  Fe  Fe344     1.0  0.41064  0.87794  0.88809  1.0000
  S   S689      1.0  0.40425  0.89883  0.89674  1.0000
  S   S690      1.0  0.41279  0.84238  0.87526  1.0000
  S   S691      1.0  0.39051  0.87139  0.88644  1.0000
  Fe  Fe345     1.0  0.30957  0.84776  0.68202  1.0000
  S   S692      1.0  0.31912  0.86355  0.66203  1.0000
  H   H2078     1.0  0.44999  0.80122  0.72461  1.0000
  Fe  Fe346     1.0  0.32228  0.85713  0.70283  1.0000
  S   S693      1.0  0.33262  0.87384  0.68458  1.0000
  S   S694      1.0  0.32424  0.85163  0.72658  1.0000
  Fe  Fe347     1.0  0.31111  0.87947  0.67702  1.0000
  S   S695      1.0  0.29848  0.90284  0.67081  1.0000
  Fe  Fe348     1.0  0.33963  0.85622  0.67159  1.0000
  S   S696      1.0  0.30002  0.86423  0.69645  1.0000
  Fe  Fe349     1.0  0.39981  0.85167  0.77459  1.0000
  S   S697      1.0  0.42214  0.84927  0.75876  1.0000
  S   S698      1.0  0.40077  0.83874  0.79789  1.0000
  Fe  Fe350     1.0  0.38361  0.87167  0.75051  1.0000
  S   S699      1.0  0.40472  0.87120  0.73303  1.0000
  S   S700      1.0  0.36308  0.88583  0.74263  1.0000
  Fe  Fe351     1.0  0.40981  0.84699  0.74321  1.0000
  S   S701      1.0  0.41670  0.82968  0.72983  1.0000
  Fe  Fe352     1.0  0.41472  0.87367  0.75039  1.0000
  S   S702      1.0  0.43013  0.88902  0.74562  1.0000
  S   S703      1.0  0.38797  0.84718  0.75969  1.0000
  S   S704      1.0  0.39305  0.87639  0.76704  1.0000
  H   H2079     1.0  0.36765  0.87666  0.93168  1.0000
  C   C2066     1.0  0.38468  0.84978  0.94465  1.0000
  H   H2080     1.0  0.15605  0.82375  0.60844  1.0000
  S   S705      1.0  0.36323  0.85041  0.65882  1.0000
  H   H2081     1.0  0.36991  0.83706  0.73431  1.0000
  H   H2082     1.0  0.12971  0.81469  0.69101  1.0000
  Fe  Fe353     1.0  0.10593  0.79038  0.62460  1.0000
  C   C2067     1.0  0.24957  0.86527  0.59758  1.0000
  H   H2083     1.0  0.36732  0.90907  0.75460  1.0000
  N   N175      1.0  0.38838  0.86204  0.93453  1.0000
  C   C2068     1.0  0.16078  0.80550  0.64578  1.0000
  Fe  Fe354     1.0  0.47506  0.82119  0.66576  1.0000
  H   H2084     1.0  0.41520  0.83780  0.95994  1.0000
  S   S706      1.0  0.45881  0.84303  0.66693  1.0000
  C   C2069     1.0  0.37785  0.98094  0.83181  1.0000
  H   H2085     1.0  0.39663  0.80684  0.49992  1.0000
  S   S707      1.0  0.31310  0.98024  0.71604  1.0000
  C   C2070     1.0  0.39749  0.82095  0.92853  1.0000
  H   H2086     1.0  0.17718  0.82936  0.61435  1.0000
  H   H2087     1.0  0.42578  0.87457  0.82302  1.0000
  S   S708      1.0  0.48848  0.81317  0.64520  1.0000
  H   H2088     1.0  0.37522  0.86398  0.91935  1.0000
  Fe  Fe355     1.0  0.33050  0.95427  0.68884  1.0000
  S   S709      1.0  0.31470  0.94769  0.71035  1.0000
  S   S710      1.0  0.34226  0.93962  0.67295  1.0000
  H   H2089     1.0  0.37456  0.84643  0.94515  1.0000
  N   N176      1.0  0.19184  0.80848  0.61193  1.0000
  H   H2090     1.0  0.38306  0.87974  0.91626  1.0000
  Fe  Fe356     1.0  0.32775  0.95741  0.71989  1.0000
  S   S711      1.0  0.33477  0.94656  0.74167  1.0000
  Fe  Fe357     1.0  0.30161  0.97102  0.70444  1.0000
  H   H2091     1.0  0.49182  0.78468  0.75746  1.0000
  S   S712      1.0  0.34462  0.96192  0.69878  1.0000
  H   H2092     1.0  0.29180  0.78705  0.47900  1.0000
  H   H2093     1.0  0.29950  0.80657  0.70590  1.0000
  C   C2071     1.0  0.28887  0.98208  0.61371  1.0000
  H   H2094     1.0  0.42171  0.86031  0.94156  1.0000
  C   C2072     1.0  0.37271  0.84076  0.72237  1.0000
  Fe  Fe358     1.0  0.23251  0.96549  0.64216  1.0000
  S   S713      1.0  0.41966  0.79018  0.57342  1.0000
  C   C2073     1.0  0.33272  0.97879  0.50398  1.0000
  Fe  Fe359     1.0  0.20682  0.95052  0.65963  1.0000
  S   S714      1.0  0.20494  0.95851  0.67992  1.0000
  S   S715      1.0  0.19059  0.93625  0.66324  1.0000
  C   C2074     1.0  0.16318  0.98197  0.69499  1.0000
  C   C2075     1.0  0.27809  0.97480  0.61361  1.0000
  Fe  Fe360     1.0  0.22993  0.95212  0.67475  1.0000
  S   S716      1.0  0.24456  0.93828  0.69042  1.0000
  S   S717      1.0  0.20762  0.97262  0.64396  1.0000
  S   S718      1.0  0.23171  0.94251  0.65562  1.0000
  C   C2076     1.0  0.15427  0.83200  0.64351  1.0000
  H   H2095     1.0  0.16169  0.97493  0.70633  1.0000
  H   H2096     1.0  0.46394  0.81723  0.75474  1.0000
  S   S719      1.0  0.41990  0.79238  0.96621  1.0000
  H   H2097     1.0  0.23854  0.81753  0.62322  1.0000
  C   C2077     1.0  0.26776  0.96725  0.70239  1.0000
  C   C2078     1.0  0.45857  0.98159  0.73196  1.0000
  H   H2098     1.0  0.12722  0.82119  0.67215  1.0000
  C   C2079     1.0  0.41143  0.80246  0.95138  1.0000
  H   H2099     1.0  0.47648  0.84768  0.70723  1.0000
  C   C2080     1.0  0.39415  0.84103  0.95409  1.0000
  C   C2081     1.0  0.49210  0.78795  0.72129  1.0000
  C   C2082     1.0  0.41167  0.82190  0.92902  1.0000
  H   H2100     1.0  0.45905  0.78966  0.91772  1.0000
  Fe  Fe361     1.0  0.12773  0.80035  0.63583  1.0000
  S   S720      1.0  0.39100  0.96595  0.74622  1.0000
  H   H2101     1.0  0.34487  0.94700  0.76705  1.0000
  H   H2102     1.0  0.40438  0.87569  0.92545  1.0000
  C   C2083     1.0  0.43182  0.83312  0.63434  1.0000
  Fe  Fe362     1.0  0.39723  0.96395  0.76767  1.0000
  Fe  Fe363     1.0  0.39062  0.96913  0.79889  1.0000
  C   C2084     1.0  0.40140  0.86597  0.93351  1.0000
  H   H2103     1.0  0.39141  0.83105  0.96179  1.0000
  S   S721      1.0  0.39468  0.81970  0.54620  1.0000
  S   S722      1.0  0.13259  0.81984  0.64095  1.0000
  Fe  Fe364     1.0  0.48688  0.79301  0.68651  1.0000
  H   H2104     1.0  0.20397  0.78688  0.60902  1.0000
  S   S723      1.0  0.25006  0.96919  0.62125  1.0000
  C   C2085     1.0  0.27441  0.95228  0.70277  1.0000
  C   C2086     1.0  0.26689  0.94323  0.69979  1.0000
  C   C2087     1.0  0.25299  0.94924  0.69589  1.0000
  C   C2088     1.0  0.24632  0.96418  0.69559  1.0000
  H   H2105     1.0  0.10480  0.78566  0.59197  1.0000
  H   H2106     1.0  0.28524  0.94763  0.70553  1.0000
  H   H2107     1.0  0.27193  0.93161  0.70025  1.0000
  N   N177      1.0  0.13680  0.79815  0.67844  1.0000
  H   H2108     1.0  0.47713  0.83346  0.73348  1.0000
  H   H2109     1.0  0.38782  0.91848  0.73534  1.0000
  C   C2089     1.0  0.37989  0.85080  0.69193  1.0000
  H   H2110     1.0  0.36230  0.84115  0.69131  1.0000
  H   H2111     1.0  0.21408  0.81168  0.60611  1.0000
  C   C2090     1.0  0.43412  0.87439  0.81274  1.0000
  S   S724      1.0  0.42440  0.97815  0.89046  1.0000
  H   H2112     1.0  0.15801  0.79541  0.64581  1.0000
  C   C2091     1.0  0.27591  0.79877  0.60042  1.0000
  N   N178      1.0  0.15505  0.97818  0.68623  1.0000
  S   S725      1.0  0.41442  0.96020  0.80100  1.0000
  C   C2092     1.0  0.41731  0.98229  0.59042  1.0000
  C   C2093     1.0  0.41855  0.81281  0.94048  1.0000
  H   H2113     1.0  0.39192  0.79307  0.95910  1.0000
  C   C2094     1.0  0.27944  0.82725  0.71684  1.0000
  H   H2114     1.0  0.42936  0.81391  0.94098  1.0000
  C   C2095     1.0  0.42852  0.89653  0.76072  1.0000
  C   C2096     1.0  0.41997  0.89140  0.77463  1.0000
  C   C2097     1.0  0.41810  0.89807  0.78638  1.0000
  C   C2098     1.0  0.42498  0.90971  0.78432  1.0000
  C   C2099     1.0  0.43378  0.91468  0.77050  1.0000
  C   C2100     1.0  0.43560  0.90805  0.75873  1.0000
  H   H2115     1.0  0.41492  0.88218  0.77647  1.0000
  H   H2116     1.0  0.41121  0.89427  0.79703  1.0000
  H   H2117     1.0  0.43928  0.92358  0.76889  1.0000
  H   H2118     1.0  0.44236  0.91197  0.74802  1.0000
  C   C2101     1.0  0.42715  0.83466  0.71191  1.0000
  C   C2102     1.0  0.43363  0.84698  0.70757  1.0000
  C   C2103     1.0  0.44275  0.85009  0.69337  1.0000
  C   C2104     1.0  0.44548  0.84080  0.68363  1.0000
  C   C2105     1.0  0.43839  0.82895  0.68778  1.0000
  C   C2106     1.0  0.42934  0.82582  0.70191  1.0000
  H   H2119     1.0  0.43205  0.85380  0.71530  1.0000
  H   H2120     1.0  0.44819  0.85931  0.69017  1.0000
  H   H2121     1.0  0.43997  0.82208  0.68014  1.0000
  H   H2122     1.0  0.42423  0.81636  0.70520  1.0000
  C   C2107     1.0  0.33564  0.86071  0.73084  1.0000
  C   C2108     1.0  0.34326  0.87061  0.71986  1.0000
  C   C2109     1.0  0.35213  0.87787  0.72345  1.0000
  C   C2110     1.0  0.35341  0.87532  0.73808  1.0000
  C   C2111     1.0  0.34621  0.86508  0.74904  1.0000
  C   C2112     1.0  0.33731  0.85781  0.74542  1.0000
  H   H2123     1.0  0.34237  0.87273  0.70859  1.0000
  H   H2124     1.0  0.35797  0.88551  0.71489  1.0000
  H   H2125     1.0  0.34718  0.86306  0.76037  1.0000
  H   H2126     1.0  0.33157  0.85007  0.75398  1.0000
  C   C2113     1.0  0.31033  0.91409  0.66990  1.0000
  C   C2114     1.0  0.32563  0.91001  0.66394  1.0000
  C   C2115     1.0  0.33536  0.91831  0.66432  1.0000
  C   C2116     1.0  0.32980  0.93056  0.67084  1.0000
  C   C2117     1.0  0.31445  0.93483  0.67654  1.0000
  C   C2118     1.0  0.30470  0.92664  0.67596  1.0000
  H   H2127     1.0  0.33000  0.90040  0.65909  1.0000
  H   H2128     1.0  0.34724  0.91500  0.65991  1.0000
  H   H2129     1.0  0.31008  0.94434  0.68154  1.0000
  H   H2130     1.0  0.29287  0.92981  0.68049  1.0000
  S   S726      1.0  0.42201  0.91845  0.79884  1.0000
  C   C2119     1.0  0.41744  0.90975  0.89295  1.0000
  C   C2120     1.0  0.43276  0.90415  0.88829  1.0000
  H   H2131     1.0  0.43675  0.89287  0.88683  1.0000
  C   C2121     1.0  0.45669  0.83424  0.85397  1.0000
  C   C2122     1.0  0.44530  0.84133  0.84627  1.0000
  C   C2123     1.0  0.44649  0.83894  0.83236  1.0000
  C   C2124     1.0  0.45936  0.82998  0.82566  1.0000
  C   C2125     1.0  0.47091  0.82288  0.83323  1.0000
  C   C2126     1.0  0.46953  0.82495  0.84746  1.0000
  H   H2132     1.0  0.43551  0.84873  0.85096  1.0000
  H   H2133     1.0  0.43725  0.84386  0.82696  1.0000
  H   H2134     1.0  0.36693  0.95460  0.76917  1.0000
  S   S727      1.0  0.49431  0.81443  0.67700  1.0000
  C   C2127     1.0  0.39696  0.86545  0.83162  1.0000
  C   C2128     1.0  0.39301  0.87262  0.81804  1.0000
  C   C2129     1.0  0.39414  0.86449  0.80767  1.0000
  C   C2130     1.0  0.39907  0.84910  0.81087  1.0000
  C   C2131     1.0  0.40293  0.84188  0.82453  1.0000
  C   C2132     1.0  0.40205  0.85006  0.83484  1.0000
  H   H2135     1.0  0.38899  0.88451  0.81555  1.0000
  H   H2136     1.0  0.39091  0.87014  0.79735  1.0000
  H   H2137     1.0  0.40652  0.82996  0.82715  1.0000
  H   H2138     1.0  0.40506  0.84446  0.84534  1.0000
  H   H2139     1.0  0.37948  0.80955  0.93899  1.0000
  S   S728      1.0  0.38925  0.95042  0.79009  1.0000
  C   C2133     1.0  0.39374  0.97404  0.59929  1.0000
  H   H2140     1.0  0.46159  0.97278  0.72607  1.0000
  C   C2134     1.0  0.43419  0.86566  0.80333  1.0000
  H   H2141     1.0  0.38687  0.78937  0.55161  1.0000
  H   H2142     1.0  0.23907  0.88648  0.61604  1.0000
  C   C2135     1.0  0.20230  0.90270  0.63425  1.0000
  C   C2136     1.0  0.19295  0.90035  0.64831  1.0000
  C   C2137     1.0  0.18930  0.91082  0.65702  1.0000
  C   C2138     1.0  0.19549  0.92337  0.65201  1.0000
  C   C2139     1.0  0.20525  0.92551  0.63814  1.0000
  C   C2140     1.0  0.20842  0.91532  0.62915  1.0000
  H   H2143     1.0  0.18811  0.89069  0.65227  1.0000
  H   H2144     1.0  0.18173  0.90913  0.66773  1.0000
  H   H2145     1.0  0.21000  0.93522  0.63418  1.0000
  H   H2146     1.0  0.21560  0.91723  0.61826  1.0000
  C   C2141     1.0  0.25540  0.83600  0.67579  1.0000
  C   C2142     1.0  0.27080  0.83108  0.67514  1.0000
  H   H2147     1.0  0.24975  0.83015  0.67183  1.0000
  N   N179      1.0  0.44463  0.86541  0.79035  1.0000
  H   H2148     1.0  0.34181  0.81826  0.64351  1.0000
  C   C2143     1.0  0.45512  0.87380  0.78631  1.0000
  C   C2144     1.0  0.45533  0.88274  0.79541  1.0000
  C   C2145     1.0  0.44466  0.85622  0.78056  1.0000
  S   S729      1.0  0.33079  0.83899  0.69037  1.0000
  H   H2149     1.0  0.46330  0.87370  0.77595  1.0000
  H   H2150     1.0  0.40405  0.93776  0.72952  1.0000
  H   H2151     1.0  0.45531  0.84773  0.77947  1.0000
  H   H2152     1.0  0.43533  0.85030  0.78496  1.0000
  H   H2153     1.0  0.44344  0.86322  0.76947  1.0000
  N   N180      1.0  0.33966  0.91485  0.71677  1.0000
  C   C2146     1.0  0.33555  0.91136  0.70590  1.0000
  C   C2147     1.0  0.33153  0.91246  0.73101  1.0000
  C   C2148     1.0  0.32266  0.90587  0.70902  1.0000
  C   C2149     1.0  0.31867  0.90680  0.73457  1.0000
  C   C2150     1.0  0.31419  0.90356  0.72347  1.0000
  C   C2151     1.0  0.35334  0.92037  0.71333  1.0000
  H   H2154     1.0  0.34231  0.91273  0.69474  1.0000
  H   H2155     1.0  0.33504  0.91484  0.73971  1.0000
  H   H2156     1.0  0.31936  0.90331  0.70029  1.0000
  H   H2157     1.0  0.31230  0.90488  0.74589  1.0000
  H   H2158     1.0  0.30427  0.89914  0.72606  1.0000
  H   H2159     1.0  0.36287  0.91095  0.71553  1.0000
  H   H2160     1.0  0.35586  0.92638  0.70156  1.0000
  H   H2161     1.0  0.35209  0.92828  0.72025  1.0000
  H   H2162     1.0  0.42586  0.85906  0.80651  1.0000
  C   C2152     1.0  0.35316  0.95015  0.75723  1.0000
  H   H2163     1.0  0.41730  0.82979  0.92074  1.0000
  H   H2164     1.0  0.40342  0.86471  0.70190  1.0000
  H   H2165     1.0  0.38259  0.85464  0.67999  1.0000
  H   H2166     1.0  0.21460  0.87410  0.58141  1.0000
  H   H2167     1.0  0.46971  0.80681  0.62744  1.0000
  C   C2153     1.0  0.39046  0.81039  0.93931  1.0000
  C   C2154     1.0  0.37514  0.91341  0.75758  1.0000
  H   H2168     1.0  0.28541  0.81480  0.60420  1.0000
  S   S730      1.0  0.23251  0.97451  0.66105  1.0000
  C   C2155     1.0  0.27025  0.85100  0.68601  1.0000
  C   C2156     1.0  0.36839  0.84311  0.69828  1.0000
  H   H2169     1.0  0.38585  0.83960  0.63504  1.0000
  H   H2170     1.0  0.32487  0.79202  0.61180  1.0000
  C   C2157     1.0  0.36370  0.83834  0.64801  1.0000
  C   C2158     1.0  0.37629  0.83490  0.63687  1.0000
  H   H2171     1.0  0.15934  0.79207  0.68115  1.0000
  C   C2159     1.0  0.44488  0.78547  0.61945  1.0000
  C   C2160     1.0  0.13298  0.98259  0.67688  1.0000
  C   C2161     1.0  0.39601  0.81278  0.52010  1.0000
  C   C2162     1.0  0.38411  0.84851  0.71567  1.0000
  N   N181      1.0  0.42312  0.82764  0.62899  1.0000
  C   C2163     1.0  0.36195  0.95442  0.73069  1.0000
  H   H2172     1.0  0.43452  0.84381  0.62885  1.0000
  Fe  Fe365     1.0  0.39979  0.80833  0.56869  1.0000
  H   H2173     1.0  0.29293  0.84849  0.73719  1.0000
  H   H2174     1.0  0.14632  0.84249  0.64175  1.0000
  C   C2164     1.0  0.41240  0.92438  0.89484  1.0000
  H   H2175     1.0  0.38318  0.91907  0.78744  1.0000
  H   H2176     1.0  0.21946  0.89249  0.59179  1.0000
  Fe  Fe366     1.0  0.23845  0.84045  0.63446  1.0000
  C   C2165     1.0  0.27540  0.81074  0.60620  1.0000
  H   H2177     1.0  0.20771  0.80312  0.62533  1.0000
  C   C2166     1.0  0.38398  0.91906  0.77601  1.0000
  C   C2167     1.0  0.44499  0.78531  0.81892  1.0000
  N   N182      1.0  0.23987  0.87878  0.59730  1.0000
  S   S731      1.0  0.22882  0.82782  0.65664  1.0000
  C   C2168     1.0  0.24253  0.88958  0.60380  1.0000
  C   C2169     1.0  0.35137  0.82302  0.64150  1.0000
  C   C2170     1.0  0.36565  0.95442  0.75845  1.0000
  H   H2178     1.0  0.27591  0.85691  0.68987  1.0000
  C   C2171     1.0  0.37628  0.82573  0.62784  1.0000
  C   C2172     1.0  0.29873  0.83065  0.72581  1.0000
  C   C2173     1.0  0.43791  0.92770  0.88772  1.0000
  C   C2174     1.0  0.40847  0.97441  0.57387  1.0000
  Fe  Fe367     1.0  0.22243  0.84944  0.66363  1.0000
  H   H2179     1.0  0.34653  0.98170  0.66753  1.0000
  C   C2175     1.0  0.39974  0.86127  0.69366  1.0000
  C   C2176     1.0  0.28896  0.84250  0.73160  1.0000
  S   S732      1.0  0.48586  0.78749  0.81673  1.0000
  H   H2180     1.0  0.39999  0.97053  0.57144  1.0000
  Fe  Fe368     1.0  0.38428  0.80449  0.60170  1.0000
  H   H2181     1.0  0.17112  0.84158  0.64611  1.0000
  H   H2182     1.0  0.36082  0.95425  0.71998  1.0000
  C   C2177     1.0  0.35131  0.83228  0.65038  1.0000
  S   S733      1.0  0.21748  0.84667  0.62591  1.0000
  H   H2183     1.0  0.38250  0.96198  0.72200  1.0000
  N   N183      1.0  0.38753  0.85346  0.70063  1.0000
  C   C2178     1.0  0.40862  0.92981  0.73884  1.0000
  H   H2184     1.0  0.39612  0.87143  0.68544  1.0000
  H   H2185     1.0  0.40955  0.85390  0.68803  1.0000
  C   C2179     1.0  0.17844  0.81795  0.64862  1.0000
  H   H2186     1.0  0.44998  0.80117  0.75035  1.0000
  C   C2180     1.0  0.24728  0.84815  0.68196  1.0000
  C   C2181     1.0  0.36479  0.83808  0.71359  1.0000
  H   H2187     1.0  0.43847  0.94319  0.91636  1.0000
  S   S734      1.0  0.22800  0.85442  0.68265  1.0000
  C   C2182     1.0  0.24937  0.80071  0.61061  1.0000
  C   C2183     1.0  0.30442  0.81080  0.71263  1.0000
  C   C2184     1.0  0.20435  0.81163  0.61565  1.0000
  H   H2188     1.0  0.40057  0.92875  0.89855  1.0000
  C   C2185     1.0  0.16828  0.83152  0.64599  1.0000
  C   C2186     1.0  0.44617  0.79952  0.61077  1.0000
  C   C2187     1.0  0.39749  0.80102  0.95065  1.0000
  S   S735      1.0  0.36298  0.80916  0.61853  1.0000
  H   H2189     1.0  0.15973  0.95427  0.66468  1.0000
  H   H2190     1.0  0.41450  0.93576  0.74295  1.0000
  H   H2191     1.0  0.15912  0.79957  0.60228  1.0000
  C   C2188     1.0  0.44300  0.91304  0.88593  1.0000
  H   H2192     1.0  0.44575  0.96969  0.75145  1.0000
  C   C2189     1.0  0.44951  0.97988  0.74630  1.0000
  C   C2190     1.0  0.43070  0.96215  0.92642  1.0000
  H   H2193     1.0  0.39016  0.85055  0.72261  1.0000
  S   S736      1.0  0.29758  0.83206  0.67925  1.0000
  N   N184      1.0  0.29392  0.82323  0.71850  1.0000
  C   C2191     1.0  0.42064  0.97773  0.56247  1.0000
  S   S737      1.0  0.19977  0.85609  0.65799  1.0000
  H   H2194     1.0  0.23248  0.84962  0.58134  1.0000
  C   C2192     1.0  0.39527  0.92456  0.76484  1.0000
  N   N185      1.0  0.39653  0.92436  0.75043  1.0000
  H   H2195     1.0  0.36500  0.90918  0.78085  1.0000
  N   N186      1.0  0.31781  0.81198  0.61979  1.0000
  H   H2196     1.0  0.26596  0.94429  0.65875  1.0000
  C   C2193     1.0  0.35110  0.95052  0.74328  1.0000
  H   H2197     1.0  0.41694  0.92037  0.73475  1.0000
  H   H2198     1.0  0.46289  0.94937  0.90336  1.0000
  H   H2199     1.0  0.33933  0.80166  0.60876  1.0000
  C   C2194     1.0  0.43423  0.97474  0.92775  1.0000
  H   H2200     1.0  0.25487  0.84396  0.59196  1.0000
  H   H2201     1.0  0.30775  0.80160  0.72182  1.0000
  H   H2202     1.0  0.46350  0.88955  0.79209  1.0000
  C   C2195     1.0  0.40205  0.80457  0.50902  1.0000
  S   S738      1.0  0.31644  0.97675  0.68208  1.0000
  C   C2196     1.0  0.41124  0.85735  0.94264  1.0000
  C   C2197     1.0  0.28411  0.98185  0.66338  1.0000
  H   H2203     1.0  0.44462  0.89002  0.81577  1.0000
  C   C2198     1.0  0.45491  0.95655  0.91023  1.0000
  H   H2204     1.0  0.44475  0.82917  0.65079  1.0000
  C   C2199     1.0  0.40756  0.84480  0.95298  1.0000
  C   C2200     1.0  0.12518  0.79348  0.67685  1.0000
  C   C2201     1.0  0.44816  0.97796  0.92023  1.0000
  C   C2202     1.0  0.27422  0.84678  0.72983  1.0000
  H   H2205     1.0  0.42620  0.98208  0.93443  1.0000
  H   H2206     1.0  0.42148  0.79663  0.54167  1.0000
  H   H2207     1.0  0.33387  0.82476  0.61664  1.0000
  H   H2208     1.0  0.17533  0.98043  0.68975  1.0000
  H   H2209     1.0  0.26326  0.96683  0.66741  1.0000
  C   C2203     1.0  0.46288  0.80080  0.62523  1.0000
  H   H2210     1.0  0.46342  0.81743  0.70369  1.0000
  H   H2211     1.0  0.49283  0.79717  0.60359  1.0000
  S   S739      1.0  0.40294  0.78621  0.60891  1.0000
  C   C2204     1.0  0.32726  0.80325  0.60899  1.0000
  C   C2205     1.0  0.45528  0.80710  0.61363  1.0000
  Fe  Fe369     1.0  0.48104  0.79199  0.65716  1.0000
  H   H2212     1.0  0.49060  0.83156  0.70289  1.0000
  S   S740      1.0  0.43636  0.80831  0.59653  1.0000
  C   C2206     1.0  0.49422  0.78869  0.74559  1.0000
  N   N187      1.0  0.28566  0.96898  0.65741  1.0000
  C   C2207     1.0  0.27386  0.96234  0.66078  1.0000
  C   C2208     1.0  0.29916  0.96316  0.64924  1.0000
  C   C2209     1.0  0.27532  0.94961  0.65583  1.0000
  C   C2210     1.0  0.30101  0.95047  0.64402  1.0000
  C   C2211     1.0  0.28900  0.94366  0.64738  1.0000
  C   C2212     1.0  0.42210  0.79074  0.52153  1.0000
  C   C2213     1.0  0.37436  0.95864  0.73188  1.0000
  C   C2214     1.0  0.44194  0.80121  0.90552  1.0000
  S   S741      1.0  0.27686  0.97895  0.70593  1.0000
  H   H2213     1.0  0.31179  0.94574  0.63776  1.0000
  H   H2214     1.0  0.29039  0.93358  0.64378  1.0000
  H   H2215     1.0  0.44837  0.80914  0.89811  1.0000
  C   C2215     1.0  0.41981  0.81410  0.63584  1.0000
  H   H2216     1.0  0.23547  0.96884  0.69283  1.0000
  C   C2216     1.0  0.43760  0.80626  0.82968  1.0000
  C   C2217     1.0  0.15424  0.96316  0.67051  1.0000
  H   H2217     1.0  0.24843  0.86483  0.69221  1.0000
  H   H2218     1.0  0.31024  0.82755  0.72705  1.0000
  H   H2219     1.0  0.47842  0.81948  0.85334  1.0000
  H   H2220     1.0  0.47680  0.96898  0.89301  1.0000
  H   H2221     1.0  0.41372  0.94364  0.85937  1.0000
  Fe  Fe370     1.0  0.41996  0.97330  0.77779  1.0000
  H   H2222     1.0  0.45487  0.90857  0.88266  1.0000
  S   S742      1.0  0.08391  0.79691  0.61741  1.0000
  H   H2223     1.0  0.14548  0.81717  0.67564  1.0000
  H   H2224     1.0  0.29263  0.83569  0.64756  1.0000
  H   H2225     1.0  0.34164  0.83470  0.65906  1.0000
  C   C2218     1.0  0.44476  0.88298  0.80871  1.0000
  S   S743      1.0  0.37261  0.97871  0.81657  1.0000
  C   C2219     1.0  0.30371  0.80982  0.62666  1.0000
  H   H2226     1.0  0.18246  0.79443  0.65054  1.0000
  C   C2220     1.0  0.29441  0.81836  0.63669  1.0000
  C   C2221     1.0  0.31395  0.83133  0.63251  1.0000
  C   C2222     1.0  0.29964  0.82909  0.63970  1.0000
  H   H2227     1.0  0.32527  0.80896  0.59778  1.0000
  H   H2228     1.0  0.25801  0.84244  0.72077  1.0000
  C   C2223     1.0  0.39219  0.97459  0.83454  1.0000
  H   H2229     1.0  0.99679  0.83959  0.60907  1.0000
  H   H2230     1.0  0.28315  0.81676  0.64198  1.0000
  C   C2224     1.0  0.31768  0.98099  0.50380  1.0000
  H   H2231     1.0  0.43792  0.80492  0.79545  1.0000
  Fe  Fe371     1.0  0.41363  0.94264  0.79044  1.0000
  H   H2232     1.0  0.38584  0.82334  0.61902  1.0000
  C   C2225     1.0  0.38673  0.91878  0.74673  1.0000
  S   S744      1.0  0.23390  0.86138  0.64199  1.0000
  H   H2233     1.0  0.43238  0.81786  0.82923  1.0000
  S   S745      1.0  0.26150  0.83243  0.62163  1.0000
  C   C2226     1.0  0.22459  0.87157  0.58572  1.0000
  S   S746      1.0  0.12490  0.80194  0.61304  1.0000
  S   S747      1.0  0.45083  0.93859  0.88518  1.0000
  H   H2234     1.0  0.40304  0.92896  0.76779  1.0000
  C   C2227     1.0  0.37383  0.91350  0.77232  1.0000
  N   N188      1.0  0.23432  0.89816  0.67343  1.0000
  C   C2228     1.0  0.24108  0.90634  0.67799  1.0000
  C   C2229     1.0  0.24272  0.88798  0.66524  1.0000
  C   C2230     1.0  0.25665  0.90462  0.67411  1.0000
  C   C2231     1.0  0.25831  0.88594  0.66120  1.0000
  C   C2232     1.0  0.26528  0.89434  0.66567  1.0000
  C   C2233     1.0  0.21809  0.89962  0.67816  1.0000
  H   H2235     1.0  0.23447  0.91428  0.68468  1.0000
  H   H2236     1.0  0.23739  0.88114  0.66206  1.0000
  H   H2237     1.0  0.26200  0.91114  0.67773  1.0000
  H   H2238     1.0  0.26493  0.87765  0.65496  1.0000
  H   H2239     1.0  0.27737  0.89278  0.66271  1.0000
  H   H2240     1.0  0.21222  0.91135  0.67819  1.0000
  H   H2241     1.0  0.21369  0.89600  0.67056  1.0000
  H   H2242     1.0  0.21527  0.89263  0.68941  1.0000
  N   N189      1.0  0.47043  0.82694  0.71738  1.0000
  C   C2234     1.0  0.47082  0.82672  0.73150  1.0000
  C   C2235     1.0  0.46325  0.81775  0.71487  1.0000
  C   C2236     1.0  0.46340  0.81754  0.74358  1.0000
  C   C2237     1.0  0.45566  0.80848  0.72668  1.0000
  C   C2238     1.0  0.45568  0.80845  0.74112  1.0000
  C   C2239     1.0  0.16171  0.96677  0.67913  1.0000
  H   H2243     1.0  0.31433  0.97468  0.49808  1.0000
  N   N190      1.0  0.45817  0.96905  0.91139  1.0000
  H   H2244     1.0  0.27565  0.82153  0.71085  1.0000
  C   C2240     1.0  0.43192  0.80893  0.80572  1.0000
  C   C2241     1.0  0.44790  0.79018  0.91661  1.0000
  C   C2242     1.0  0.47841  0.83657  0.70491  1.0000
  H   H2245     1.0  0.43933  0.80425  0.66296  1.0000
  H   H2246     1.0  0.05525  0.79831  0.61219  1.0000
  N   N191      1.0  0.40893  0.92727  0.85149  1.0000
  C   C2243     1.0  0.41083  0.92220  0.83904  1.0000
  C   C2244     1.0  0.39778  0.92404  0.86353  1.0000
  C   C2245     1.0  0.40121  0.91394  0.83835  1.0000
  C   C2246     1.0  0.38804  0.91574  0.86326  1.0000
  C   C2247     1.0  0.38970  0.91079  0.85053  1.0000
  C   C2248     1.0  0.41942  0.93540  0.85237  1.0000
  H   H2247     1.0  0.41983  0.92447  0.82954  1.0000
  H   H2248     1.0  0.39643  0.92774  0.87352  1.0000
  H   H2249     1.0  0.40276  0.90982  0.82853  1.0000
  H   H2250     1.0  0.37941  0.91298  0.87294  1.0000
  H   H2251     1.0  0.38219  0.90435  0.85017  1.0000
  H   H2252     1.0  0.42865  0.92753  0.85734  1.0000
  H   H2253     1.0  0.42422  0.94159  0.84126  1.0000
  C   C2249     1.0  0.42257  0.93343  0.89193  1.0000
  H   H2254     1.0  0.35571  0.83235  0.71869  1.0000
  H   H2255     1.0  0.23591  0.90090  0.60013  1.0000
  H   H2256     1.0  0.29956  0.80149  0.62440  1.0000
  C   C2250     1.0  0.27830  0.83868  0.68005  1.0000
  H   H2257     1.0  0.40010  0.96743  0.82780  1.0000
  H   H2258     1.0  0.25453  0.89005  0.60061  1.0000
  S   S748      1.0  0.43253  0.97055  0.85707  1.0000
  C   C2251     1.0  0.26358  0.97790  0.62222  1.0000
  C   C2252     1.0  0.41919  0.79216  0.91395  1.0000
  C   C2253     1.0  0.22744  0.88196  0.59157  1.0000
  C   C2254     1.0  0.25468  0.85548  0.68734  1.0000
  C   C2255     1.0  0.24892  0.81247  0.61670  1.0000
  H   H2259     1.0  0.45632  0.81798  0.60694  1.0000
  S   S749      1.0  0.37322  0.97329  0.48729  1.0000
  Fe  Fe372     1.0  0.20718  0.83541  0.64882  1.0000
  C   C2256     1.0  0.36372  0.81995  0.63007  1.0000
  C   C2257     1.0  0.32285  0.82277  0.62236  1.0000
  H   H2260     1.0  0.41855  0.94470  0.89338  1.0000
  H   H2261     1.0  0.20131  0.82251  0.61881  1.0000
  S   S750      1.0  0.19602  0.81647  0.65208  1.0000
  H   H2262     1.0  0.41992  0.80859  0.80805  1.0000
  S   S751      1.0  0.46655  0.80057  0.67688  1.0000
  S   S752      1.0  0.39893  0.81954  0.58653  1.0000
  H   H2263     1.0  0.36688  0.97683  0.64594  1.0000
  H   H2264     1.0  0.48179  0.98250  0.76138  1.0000
  C   C2258     1.0  0.26195  0.81749  0.61447  1.0000
  H   H2265     1.0  0.41985  0.95962  0.93202  1.0000
  H   H2266     1.0  0.48092  0.81591  0.82812  1.0000
  H   H2267     1.0  0.38590  0.82134  0.51952  1.0000
  C   C2259     1.0  0.37611  0.95892  0.74570  1.0000
  H   H2268     1.0  0.26662  0.85612  0.73405  1.0000
  C   C2260     1.0  0.40290  0.80986  0.53201  1.0000
  S   S753      1.0  0.42164  0.95473  0.76733  1.0000
  H   H2269     1.0  0.34118  0.97069  0.49851  1.0000
  C   C2261     1.0  0.19352  0.79507  0.60876  1.0000
  H   H2270     1.0  0.24298  0.80899  0.47850  1.0000
  C   C2262     1.0  0.15048  0.81899  0.64338  1.0000
  S   S754      1.0  0.45773  0.97838  0.86877  1.0000
  C   C2263     1.0  0.43763  0.82490  0.64674  1.0000
  Fe  Fe373     1.0  0.44202  0.96296  0.87730  1.0000
  C   C2264     1.0  0.17463  0.80497  0.64852  1.0000
  H   H2271     1.0  0.25916  0.86252  0.60256  1.0000
  H   H2272     1.0  0.42260  0.81087  0.89588  1.0000
  H   H2273     1.0  0.42331  0.79460  0.65329  1.0000
  Fe  Fe374     1.0  0.47921  0.80918  0.80136  1.0000
  N   N192      1.0  0.40699  0.97664  0.58765  1.0000
  C   C2265     1.0  0.13469  0.81353  0.67943  1.0000
  H   H2274     1.0  0.43268  0.82068  0.80349  1.0000
  H   H2275     1.0  0.44385  0.80330  0.85032  1.0000
  C   C2266     1.0  0.41598  0.79883  0.53266  1.0000
  C   C2267     1.0  0.24715  0.85468  0.59166  1.0000
  H   H2276     1.0  0.41318  0.80961  0.63143  1.0000
  H   H2277     1.0  0.23934  0.79674  0.61243  1.0000
  C   C2268     1.0  0.37807  0.87108  0.92499  1.0000
  C   C2269     1.0  0.16667  0.81574  0.60821  1.0000
  C   C2270     1.0  0.43120  0.98353  0.56519  1.0000
  H   H2278     1.0  0.28101  0.96671  0.60687  1.0000
  Fe  Fe375     1.0  0.41059  0.78447  0.47894  1.0000
  C   C2271     1.0  0.42549  0.80556  0.64822  1.0000
  C   C2272     1.0  0.18181  0.79170  0.60517  1.0000
  H   H2279     1.0  0.48107  0.96674  0.91076  1.0000
  Fe  Fe376     1.0  0.20756  0.98005  0.66399  1.0000
  C   C2273     1.0  0.44112  0.95293  0.91767  1.0000
  S   S755      1.0  0.38306  0.79546  0.58333  1.0000
  H   H2280     1.0  0.40743  0.97270  0.84798  1.0000
  S   S756      1.0  0.47643  0.79909  0.78435  1.0000
  H   H2281     1.0  0.28632  0.79356  0.59409  1.0000
  C   C2274     1.0  0.43451  0.81098  0.65364  1.0000
  C   C2275     1.0  0.44398  0.79802  0.84171  1.0000
  C   C2276     1.0  0.15012  0.78837  0.67989  1.0000
  H   H2282     1.0  0.42740  0.83791  0.60618  1.0000
  C   C2277     1.0  0.41773  0.83628  0.61562  1.0000
  S   S757      1.0  0.10735  0.79080  0.64730  1.0000
  H   H2283     1.0  0.31816  0.83961  0.63481  1.0000
  H   H2284     1.0  0.31452  0.81446  0.70516  1.0000
  C   C2278     1.0  0.17866  0.81881  0.61160  1.0000
  C   C2279     1.0  0.41513  0.79353  0.50973  1.0000
  C   C2280     1.0  0.16831  0.80211  0.60494  1.0000
  S   S758      1.0  0.46038  0.82765  0.80801  1.0000
  C   C2281     1.0  0.23457  0.85786  0.58573  1.0000
  C   C2282     1.0  0.25365  0.97313  0.69895  1.0000
  H   H2285     1.0  0.39678  0.96928  0.61026  1.0000
  H   H2286     1.0  0.42148  0.97646  0.55142  1.0000
  H   H2287     1.0  0.41062  0.84719  0.61742  1.0000
  C   C2283     1.0  0.26939  0.83910  0.72243  1.0000
  H   H2288     1.0  0.30009  0.97955  0.60710  1.0000
  H   H2289     1.0  0.30860  0.96829  0.64679  1.0000
  Fe  Fe377     1.0  0.41788  0.80047  0.59238  1.0000
  H   H2290     1.0  0.40775  0.79316  0.91333  1.0000
  H   H2291     1.0  0.11464  0.80124  0.67562  1.0000
  H   H2292     1.0  0.38840  0.96617  0.59726  1.0000
  C   C2284     1.0  0.39635  0.97754  0.84611  1.0000
  C   C2285     1.0  0.42751  0.80214  0.90418  1.0000
  C   C2286     1.0  0.26288  0.79380  0.60255  1.0000
  N   N193      1.0  0.43850  0.79999  0.81831  1.0000
  H   H2293     1.0  0.17295  0.96050  0.67989  1.0000
  C   C2287     1.0  0.13982  0.97121  0.66931  1.0000
  H   H2294     1.0  0.41104  0.83049  0.61230  1.0000
  H   H2295     1.0  0.13403  0.96874  0.66241  1.0000
  C   C2288     1.0  0.47279  0.97248  0.90374  1.0000
  C   C2289     1.0  0.06048  0.78676  0.61553  1.0000
  C   C2290     1.0  0.46174  0.78668  0.63381  1.0000
  H   H2296     1.0  0.47450  0.83827  0.69460  1.0000
  H   H2297     1.0  0.28773  0.97811  0.67406  1.0000
  S   S759      1.0  0.39612  0.98360  0.77631  1.0000
  Fe  Fe378     1.0  0.51164  0.13236  0.14759  1.0000
  H   H2298     1.0  0.57954  0.00943  0.20960  1.0000
  S   S760      1.0  0.53385  0.13624  0.13349  1.0000
  C   C2291     1.0  0.50292  0.02463  0.29748  1.0000
  H   H2299     1.0  0.69439  0.01286  0.23483  1.0000
  Fe  Fe379     1.0  0.52708  0.02748  0.24393  1.0000
  H   H2300     1.0  0.88505  0.17135  0.45621  1.0000
  S   S761      1.0  0.54551  0.03971  0.23793  1.0000
  C   C2292     1.0  0.90613  0.17731  0.45264  1.0000
  C   C2293     1.0  0.75083  0.06747  0.47407  1.0000
  C   C2294     1.0  0.85227  0.03988  0.41611  1.0000
  S   S762      1.0  0.52140  0.02328  0.22472  1.0000
  S   S763      1.0  0.52816  0.00416  0.25697  1.0000
  C   C2295     1.0  0.59410  0.00806  0.23844  1.0000
  Fe  Fe380     1.0  0.50840  0.01877  0.38602  1.0000
  H   H2301     1.0  0.94077  0.08145  0.36234  1.0000
  S   S764      1.0  0.52310  0.02719  0.39507  1.0000
  H   H2302     1.0  0.69513  0.10784  0.99767  1.0000
  H   H2303     1.0  0.63221  0.00126  0.44105  1.0000
  S   S765      1.0  0.82651  0.09039  0.46747  1.0000
  H   H2304     1.0  0.83930  0.02327  0.47787  1.0000
  S   S766      1.0  0.51471  0.00819  0.36657  1.0000
  H   H2305     1.0  0.66721  0.99415  0.27760  1.0000
  C   C2296     1.0  0.78842  0.02741  0.44115  1.0000
  H   H2306     1.0  0.87050  0.04423  0.45388  1.0000
  H   H2307     1.0  0.52642  0.08979  0.22232  1.0000
  H   H2308     1.0  0.84615  0.10989  0.46206  1.0000
  C   C2297     1.0  0.52361  0.98719  0.31098  1.0000
  N   N194      1.0  0.52917  0.07527  0.20830  1.0000
  H   H2309     1.0  0.63502  0.00897  0.46241  1.0000
  Fe  Fe381     1.0  0.49713  0.99529  0.37944  1.0000
  H   H2310     1.0  0.94346  0.08851  0.40332  1.0000
  Fe  Fe382     1.0  0.97273  0.06519  0.42696  1.0000
  Fe  Fe383     1.0  0.70498  0.02138  0.44970  1.0000
  S   S767      1.0  0.69702  0.04473  0.43788  1.0000
  S   S768      1.0  0.71299  0.00318  0.43713  1.0000
  Fe  Fe384     1.0  0.71079  0.05052  0.44999  1.0000
  S   S769      1.0  0.72759  0.06483  0.43991  1.0000
  Fe  Fe385     1.0  0.67910  0.04564  0.45848  1.0000
  S   S770      1.0  0.65499  0.05657  0.45808  1.0000
  S   S771      1.0  0.72025  0.02709  0.46005  1.0000
  C   C2298     1.0  0.76532  0.99091  0.30507  1.0000
  Fe  Fe386     1.0  0.60752  0.00912  0.39624  1.0000
  S   S772      1.0  0.60166  0.03308  0.39700  1.0000
  S   S773      1.0  0.59134  0.99642  0.39512  1.0000
  Fe  Fe387     1.0  0.64094  0.00714  0.39262  1.0000
  S   S774      1.0  0.63771  0.03103  0.39282  1.0000
  N   N195      1.0  0.72369  0.00274  0.19777  1.0000
  Fe  Fe388     1.0  0.61833  0.02664  0.41149  1.0000
  S   S775      1.0  0.61249  0.03512  0.43230  1.0000
  Fe  Fe389     1.0  0.62163  0.03499  0.37831  1.0000
  S   S776      1.0  0.61938  0.05310  0.35801  1.0000
  S   S777      1.0  0.62255  0.00235  0.41242  1.0000
  S   S778      1.0  0.62651  0.01142  0.37652  1.0000
  S   S779      1.0  0.88890  0.98830  0.41434  1.0000
  H   H2311     1.0  0.95754  0.17927  0.40374  1.0000
  H   H2312     1.0  0.74916  0.03196  0.43462  1.0000
  C   C2299     1.0  0.50956  0.98416  0.21529  1.0000
  H   H2313     1.0  0.91836  0.07885  0.42544  1.0000
  C   C2300     1.0  0.84722  0.98739  0.37700  1.0000
  H   H2314     1.0  0.95928  0.16185  0.42646  1.0000
  H   H2315     1.0  0.96922  0.14555  0.41925  1.0000
  C   C2301     1.0  0.98118  0.14663  0.38218  1.0000
  S   S780      1.0  0.77103  0.01641  0.38955  1.0000
  H   H2316     1.0  0.75706  0.99618  0.29842  1.0000
  S   S781      1.0  0.80399  0.00425  0.35929  1.0000
  C   C2302     1.0  0.95220  0.17232  0.40077  1.0000
  S   S782      1.0  0.70128  0.01227  0.32549  1.0000
  C   C2303     1.0  0.73024  0.08797  0.99917  1.0000
  H   H2317     1.0  0.65896  0.98409  0.30345  1.0000
  S   S783      1.0  0.79995  0.06759  0.46490  1.0000
  S   S784      1.0  0.81841  0.02870  0.45904  1.0000
  H   H2318     1.0  0.73192  0.08504  0.01067  1.0000
  S   S785      1.0  0.67100  0.99384  0.16454  1.0000
  S   S786      1.0  0.91186  0.00263  0.38452  1.0000
  C   C2304     1.0  0.86184  0.04832  0.44754  1.0000
  H   H2319     1.0  0.56832  0.02714  0.36621  1.0000
  H   H2320     1.0  0.52214  0.17952  0.14734  1.0000
  S   S787      1.0  0.89453  0.02161  0.41007  1.0000
  S   S788      1.0  0.70902  0.00354  0.25924  1.0000
  H   H2321     1.0  0.71011  0.16978  0.04689  1.0000
  H   H2322     1.0  0.93720  0.06796  0.42549  1.0000
  H   H2323     1.0  0.97957  0.12646  0.39849  1.0000
  Fe  Fe390     1.0  0.91833  0.01298  0.39940  1.0000
  S   S789      1.0  0.93436  0.02851  0.39018  1.0000
  Fe  Fe391     1.0  0.88828  0.00933  0.39697  1.0000
  S   S790      1.0  0.86825  0.01986  0.38667  1.0000
  Fe  Fe392     1.0  0.88307  0.14262  0.47506  1.0000
  H   H2324     1.0  0.68135  0.00783  0.44220  1.0000
  C   C2305     1.0  0.66657  0.98402  0.27525  1.0000
  H   H2325     1.0  0.87192  0.03293  0.43347  1.0000
  S   S791      1.0  0.96468  0.04389  0.43308  1.0000
  H   H2326     1.0  0.65508  0.15721  0.12777  1.0000
  H   H2327     1.0  0.90030  0.00063  0.35801  1.0000
  H   H2328     1.0  0.58301  0.02668  0.32034  1.0000
  H   H2329     1.0  0.72347  0.09949  0.99712  1.0000
  Fe  Fe393     1.0  0.97110  0.09071  0.44041  1.0000
  S   S792      1.0  0.96057  0.10102  0.46008  1.0000
  S   S793      1.0  0.95621  0.08667  0.42840  1.0000
  C   C2306     1.0  0.83954  0.10944  0.47323  1.0000
  H   H2330     1.0  0.49569  0.11321  0.12261  1.0000
  H   H2331     1.0  0.50927  0.04141  0.30370  1.0000
  C   C2307     1.0  0.67516  0.15976  0.04757  1.0000
  H   H2332     1.0  0.74138  0.08766  0.99147  1.0000
  H   H2333     1.0  0.72318  0.00926  0.37631  1.0000
  H   H2334     1.0  0.68185  0.09683  0.98643  1.0000
  C   C2308     1.0  0.63719  0.00143  0.22127  1.0000
  C   C2309     1.0  0.56964  0.00344  0.24710  1.0000
  S   S794      1.0  0.68610  0.02182  0.46976  1.0000
  C   C2310     1.0  0.65548  0.99986  0.42996  1.0000
  H   H2335     1.0  0.71357  0.07054  0.01985  1.0000
  Fe  Fe394     1.0  0.60987  0.13224  0.19727  1.0000
  S   S795      1.0  0.61603  0.11745  0.18135  1.0000
  S   S796      1.0  0.60900  0.12310  0.22163  1.0000
  Fe  Fe395     1.0  0.60175  0.16004  0.17360  1.0000
  S   S797      1.0  0.60640  0.14718  0.15612  1.0000
  H   H2336     1.0  0.50748  0.02821  0.28582  1.0000
  Fe  Fe396     1.0  0.59500  0.13081  0.17409  1.0000
  S   S798      1.0  0.57922  0.11674  0.17571  1.0000
  Fe  Fe397     1.0  0.62689  0.13509  0.16516  1.0000
  S   S799      1.0  0.64992  0.13059  0.15065  1.0000
  S   S800      1.0  0.58824  0.14490  0.19075  1.0000
  S   S801      1.0  0.62283  0.14873  0.18187  1.0000
  Fe  Fe398     1.0  0.59962  0.03298  0.28117  1.0000
  S   S802      1.0  0.61576  0.04671  0.27978  1.0000
  H   H2337     1.0  0.54295  0.07468  0.22234  1.0000
  Fe  Fe399     1.0  0.49763  0.03006  0.23648  1.0000
  S   S803      1.0  0.64212  0.01962  0.26713  1.0000
  Fe  Fe400     1.0  0.62984  0.02492  0.28907  1.0000
  S   S804      1.0  0.64385  0.01947  0.30579  1.0000
  Fe  Fe401     1.0  0.62672  0.04033  0.25794  1.0000
  S   S805      1.0  0.63658  0.05436  0.23657  1.0000
  S   S806      1.0  0.60945  0.02845  0.25849  1.0000
  Fe  Fe402     1.0  0.69529  0.09821  0.05212  1.0000
  S   S807      1.0  0.71392  0.08539  0.06367  1.0000
  S   S808      1.0  0.69862  0.10272  0.02725  1.0000
  Fe  Fe403     1.0  0.67478  0.10635  0.08037  1.0000
  S   S809      1.0  0.69155  0.09419  0.09438  1.0000
  S   S810      1.0  0.65159  0.11805  0.08949  1.0000
  Fe  Fe404     1.0  0.70777  0.10438  0.07502  1.0000
  S   S811      1.0  0.72495  0.11577  0.07606  1.0000
  Fe  Fe405     1.0  0.69597  0.07640  0.08192  1.0000
  S   S812      1.0  0.69059  0.11787  0.06207  1.0000
  S   S813      1.0  0.67777  0.08789  0.06935  1.0000
  H   H2338     1.0  0.75126  0.13125  0.04938  1.0000
  C   C2311     1.0  0.61760  0.10422  0.22618  1.0000
  C   C2312     1.0  0.61371  0.09593  0.24060  1.0000
  C   C2313     1.0  0.61971  0.08061  0.24408  1.0000
  C   C2314     1.0  0.62976  0.07363  0.23315  1.0000
  C   C2315     1.0  0.63410  0.08203  0.21893  1.0000
  C   C2316     1.0  0.62800  0.09727  0.21544  1.0000
  H   H2339     1.0  0.60579  0.10132  0.24899  1.0000
  H   H2340     1.0  0.61638  0.07423  0.25511  1.0000
  H   H2341     1.0  0.64208  0.07672  0.21051  1.0000
  H   H2342     1.0  0.63153  0.10367  0.20448  1.0000
  C   C2317     1.0  0.65008  0.12758  0.13354  1.0000
  C   C2318     1.0  0.63701  0.12660  0.13036  1.0000
  C   C2319     1.0  0.63740  0.12413  0.11661  1.0000
  C   C2320     1.0  0.65089  0.12244  0.10611  1.0000
  C   C2321     1.0  0.66394  0.12345  0.10927  1.0000
  C   C2322     1.0  0.66354  0.12601  0.12297  1.0000
  H   H2343     1.0  0.62665  0.12749  0.13855  1.0000
  H   H2344     1.0  0.62730  0.12321  0.11424  1.0000
  H   H2345     1.0  0.67436  0.12233  0.10115  1.0000
  H   H2346     1.0  0.67372  0.12660  0.12540  1.0000
  C   C2323     1.0  0.70815  0.16110  0.08839  1.0000
  C   C2324     1.0  0.72345  0.15480  0.08495  1.0000
  C   C2325     1.0  0.72843  0.14084  0.08137  1.0000
  C   C2326     1.0  0.71818  0.13312  0.08097  1.0000
  C   C2327     1.0  0.70284  0.13942  0.08430  1.0000
  C   C2328     1.0  0.69783  0.15333  0.08812  1.0000
  H   H2347     1.0  0.73148  0.16045  0.08549  1.0000
  H   H2348     1.0  0.74029  0.13597  0.07898  1.0000
  H   H2349     1.0  0.69485  0.13353  0.08406  1.0000
  H   H2350     1.0  0.68597  0.15809  0.09082  1.0000
  C   C2329     1.0  0.94360  0.03172  0.40211  1.0000
  C   C2330     1.0  0.94011  0.02611  0.41737  1.0000
  C   C2331     1.0  0.94688  0.02971  0.42671  1.0000
  C   C2332     1.0  0.95688  0.03922  0.42091  1.0000
  C   C2333     1.0  0.96041  0.04481  0.40564  1.0000
  C   C2334     1.0  0.95397  0.04086  0.39626  1.0000
  H   H2351     1.0  0.93216  0.01905  0.42200  1.0000
  H   H2352     1.0  0.94417  0.02529  0.43851  1.0000
  H   H2353     1.0  0.96818  0.05206  0.40104  1.0000
  H   H2354     1.0  0.95679  0.04515  0.38445  1.0000
  C   C2335     1.0  0.83711  0.01907  0.45791  1.0000
  C   C2336     1.0  0.84444  0.01239  0.44593  1.0000
  C   C2337     1.0  0.85978  0.00599  0.44391  1.0000
  C   C2338     1.0  0.86780  0.00595  0.45403  1.0000
  C   C2339     1.0  0.86030  0.01189  0.46648  1.0000
  C   C2340     1.0  0.84498  0.01854  0.46836  1.0000
  H   H2355     1.0  0.83836  0.01261  0.43792  1.0000
  H   H2356     1.0  0.65978  0.01230  0.46291  1.0000
  H   H2357     1.0  0.79948  0.02626  0.44287  1.0000
  C   C2341     1.0  0.97684  0.13303  0.38822  1.0000
  C   C2342     1.0  0.73816  0.99576  0.41591  1.0000
  H   H2358     1.0  0.87797  0.00279  0.34847  1.0000
  H   H2359     1.0  0.73380  0.00885  0.22613  1.0000
  C   C2343     1.0  0.68175  0.99961  0.41781  1.0000
  H   H2360     1.0  0.69833  0.05532  0.99019  1.0000
  C   C2344     1.0  0.70561  0.06142  0.00642  1.0000
  H   H2361     1.0  0.76818  0.01150  0.30720  1.0000
  H   H2362     1.0  0.84116  0.03820  0.41629  1.0000
  S   S814      1.0  0.88731  0.99966  0.45058  1.0000
  C   C2345     1.0  0.49585  0.01270  0.30249  1.0000
  C   C2346     1.0  0.68317  0.15258  0.13021  1.0000
  C   C2347     1.0  0.84728  0.01252  0.37714  1.0000
  C   C2348     1.0  0.85981  0.00728  0.38356  1.0000
  S   S815      1.0  0.69199  0.05406  0.46952  1.0000
  C   C2349     1.0  0.58035  0.00818  0.22090  1.0000
  H   H2363     1.0  0.83157  0.00674  0.36855  1.0000
  H   H2364     1.0  0.84261  0.02429  0.37443  1.0000
  H   H2365     1.0  0.57413  0.99906  0.27337  1.0000
  H   H2366     1.0  0.95012  0.09406  0.37609  1.0000
  H   H2367     1.0  0.87554  0.98792  0.39170  1.0000
  S   S816      1.0  0.69402  0.02484  0.16019  1.0000
  C   C2350     1.0  0.67127  0.01257  0.36438  1.0000
  H   H2368     1.0  0.69252  0.15346  0.13444  1.0000
  S   S817      1.0  0.50466  0.11069  0.15815  1.0000
  S   S818      1.0  0.67402  0.00193  0.19475  1.0000
  C   C2351     1.0  0.62698  0.04491  0.34267  1.0000
  C   C2352     1.0  0.62048  0.04988  0.33031  1.0000
  C   C2353     1.0  0.62569  0.04224  0.31877  1.0000
  C   C2354     1.0  0.63747  0.02972  0.31958  1.0000
  C   C2355     1.0  0.64430  0.02515  0.33167  1.0000
  C   C2356     1.0  0.63908  0.03274  0.34315  1.0000
  H   H2369     1.0  0.61111  0.05932  0.32990  1.0000
  H   H2370     1.0  0.62042  0.04589  0.30943  1.0000
  H   H2371     1.0  0.65350  0.01554  0.33233  1.0000
  H   H2372     1.0  0.64438  0.02907  0.35247  1.0000
  C   C2357     1.0  0.72884  0.00673  0.42335  1.0000
  C   C2358     1.0  0.72806  0.98763  0.20045  1.0000
  Fe  Fe406     1.0  0.78540  0.99821  0.37834  1.0000
  C   C2359     1.0  0.75466  0.01247  0.40213  1.0000
  C   C2360     1.0  0.74504  0.02354  0.40916  1.0000
  C   C2361     1.0  0.73233  0.02061  0.41989  1.0000
  C   C2362     1.0  0.77771  0.03351  0.46542  1.0000
  H   H2373     1.0  0.53229  0.99956  0.33654  1.0000
  H   H2374     1.0  0.74753  0.03439  0.40648  1.0000
  H   H2375     1.0  0.72526  0.02914  0.42551  1.0000
  C   C2363     1.0  0.89710  0.99074  0.35787  1.0000
  C   C2364     1.0  0.58545  0.02495  0.33111  1.0000
  S   S819      1.0  0.63488  0.99396  0.19689  1.0000
  C   C2365     1.0  0.73707  0.06500  0.45299  1.0000
  C   C2366     1.0  0.74965  0.07126  0.44847  1.0000
  C   C2367     1.0  0.75666  0.07232  0.45901  1.0000
  H   H2376     1.0  0.82927  0.07381  0.44548  1.0000
  C   C2368     1.0  0.59330  0.00969  0.22380  1.0000
  H   H2377     1.0  0.75377  0.07555  0.43683  1.0000
  H   H2378     1.0  0.76606  0.07762  0.45551  1.0000
  C   C2369     1.0  0.64414  0.04980  0.45050  1.0000
  C   C2370     1.0  0.64995  0.04382  0.43783  1.0000
  C   C2371     1.0  0.64042  0.03933  0.43185  1.0000
  C   C2372     1.0  0.62522  0.04054  0.43880  1.0000
  C   C2373     1.0  0.61959  0.04649  0.45139  1.0000
  C   C2374     1.0  0.62892  0.05125  0.45708  1.0000
  H   H2379     1.0  0.66168  0.04290  0.43254  1.0000
  H   H2380     1.0  0.64484  0.03486  0.42202  1.0000
  H   H2381     1.0  0.60787  0.04754  0.45678  1.0000
  H   H2382     1.0  0.60273  0.01198  0.21480  1.0000
  H   H2383     1.0  0.86642  0.01177  0.47442  1.0000
  H   H2384     1.0  0.62433  0.05600  0.46675  1.0000
  H   H2385     1.0  0.52371  0.05433  0.21889  1.0000
  C   C2375     1.0  0.69825  0.04621  0.13479  1.0000
  H   H2386     1.0  0.50633  0.01591  0.42547  1.0000
  H   H2387     1.0  0.51367  0.16376  0.13668  1.0000
  N   N196      1.0  0.58245  0.00476  0.24987  1.0000
  H   H2388     1.0  0.92297  0.05918  0.42596  1.0000
  Fe  Fe407     1.0  0.62377  0.00836  0.26988  1.0000
  Fe  Fe408     1.0  0.97146  0.09649  0.40799  1.0000
  C   C2376     1.0  0.65554  0.13025  0.04997  1.0000
  S   S820      1.0  0.77579  0.98782  0.36623  1.0000
  C   C2377     1.0  0.58385  0.00269  0.26510  1.0000
  C   C2378     1.0  0.52554  0.06244  0.20860  1.0000
  C   C2379     1.0  0.95799  0.15275  0.42227  1.0000
  Fe  Fe409     1.0  0.50380  0.01216  0.26621  1.0000
  C   C2380     1.0  0.69671  0.04444  0.11067  1.0000
  C   C2381     1.0  0.83951  0.05790  0.43162  1.0000
  H   H2389     1.0  0.70069  0.06354  0.11499  1.0000
  H   H2390     1.0  0.69983  0.05250  0.14169  1.0000
  C   C2382     1.0  0.52553  0.07046  0.18258  1.0000
  S   S821      1.0  0.61269  0.01185  0.29261  1.0000
  H   H2391     1.0  0.68803  0.14840  0.11989  1.0000
  S   S822      1.0  0.70229  0.15328  0.98645  1.0000
  Fe  Fe410     1.0  0.79527  0.99239  0.34771  1.0000
  H   H2392     1.0  0.61953  0.07268  0.19869  1.0000
  H   H2393     1.0  0.67784  0.08307  0.04061  1.0000
  H   H2394     1.0  0.64200  0.01034  0.21364  1.0000
  N   N197      1.0  0.72270  0.09709  0.47646  1.0000
  Fe  Fe411     1.0  0.65964  0.99090  0.18854  1.0000
  C   C2383     1.0  0.67198  0.13458  0.02592  1.0000
  C   C2384     1.0  0.60369  0.01860  0.34616  1.0000
  H   H2395     1.0  0.75859  0.98999  0.39994  1.0000
  N   N198      1.0  0.85134  0.04656  0.42833  1.0000
  Fe  Fe412     1.0  0.68666  0.00322  0.17107  1.0000
  C   C2385     1.0  0.94010  0.16858  0.38370  1.0000
  C   C2386     1.0  0.91497  0.13046  0.45429  1.0000
  C   C2387     1.0  0.91822  0.12491  0.46832  1.0000
  C   C2388     1.0  0.93238  0.11631  0.46995  1.0000
  C   C2389     1.0  0.94330  0.11283  0.45761  1.0000
  C   C2390     1.0  0.94015  0.11848  0.44350  1.0000
  C   C2391     1.0  0.92598  0.12733  0.44184  1.0000
  H   H2396     1.0  0.71831  0.00595  0.35347  1.0000
  H   H2397     1.0  0.94862  0.11605  0.43388  1.0000
  C   C2392     1.0  0.56840  0.00507  0.23259  1.0000
  C   C2393     1.0  0.54215  0.01864  0.39449  1.0000
  C   C2394     1.0  0.55101  0.02556  0.39859  1.0000
  C   C2395     1.0  0.56614  0.01894  0.39867  1.0000
  C   C2396     1.0  0.57248  0.00523  0.39481  1.0000
  C   C2397     1.0  0.56366  0.99838  0.39055  1.0000
  C   C2398     1.0  0.54856  0.00510  0.39030  1.0000
  H   H2398     1.0  0.54610  0.03603  0.40188  1.0000
  H   H2399     1.0  0.57276  0.02425  0.40209  1.0000
  H   H2400     1.0  0.95873  0.13358  0.36230  1.0000
  C   C2399     1.0  0.49836  0.02729  0.32278  1.0000
  C   C2400     1.0  0.55289  0.03961  0.25268  1.0000
  C   C2401     1.0  0.56544  0.04564  0.24964  1.0000
  C   C2402     1.0  0.57185  0.04534  0.26115  1.0000
  C   C2403     1.0  0.56574  0.03903  0.27575  1.0000
  C   C2404     1.0  0.55299  0.03325  0.27885  1.0000
  C   C2405     1.0  0.54661  0.03344  0.26729  1.0000
  H   H2401     1.0  0.57026  0.05048  0.23836  1.0000
  H   H2402     1.0  0.58145  0.05012  0.25876  1.0000
  H   H2403     1.0  0.54819  0.02844  0.29015  1.0000
  H   H2404     1.0  0.53682  0.02890  0.26970  1.0000
  S   S823      1.0  0.66335  0.07499  0.99921  1.0000
  C   C2406     1.0  0.70548  0.06131  0.99204  1.0000
  C   C2407     1.0  0.68739  0.09621  0.01992  1.0000
  C   C2408     1.0  0.67845  0.08638  0.02884  1.0000
  H   H2405     1.0  0.69852  0.05556  0.01577  1.0000
  H   H2406     1.0  0.69264  0.99700  0.42114  1.0000
  H   H2407     1.0  0.49662  0.16980  0.11484  1.0000
  Fe  Fe413     1.0  0.71029  0.99477  0.31211  1.0000
  H   H2408     1.0  0.64778  0.12408  0.05813  1.0000
  C   C2409     1.0  0.89056  0.17977  0.45625  1.0000
  H   H2409     1.0  0.63911  0.00710  0.24060  1.0000
  S   S824      1.0  0.69628  0.98853  0.30065  1.0000
  C   C2410     1.0  0.54657  0.13125  0.14507  1.0000
  C   C2411     1.0  0.55971  0.13664  0.14059  1.0000
  C   C2412     1.0  0.56972  0.13263  0.15007  1.0000
  C   C2413     1.0  0.56669  0.12297  0.16385  1.0000
  C   C2414     1.0  0.55360  0.11761  0.16822  1.0000
  C   C2415     1.0  0.54346  0.12189  0.15896  1.0000
  H   H2410     1.0  0.56214  0.14388  0.12983  1.0000
  H   H2411     1.0  0.57991  0.13669  0.14660  1.0000
  H   H2412     1.0  0.55127  0.11020  0.17887  1.0000
  H   H2413     1.0  0.53330  0.11780  0.16251  1.0000
  C   C2416     1.0  0.69084  0.00646  0.34332  1.0000
  H   H2414     1.0  0.92341  0.13150  0.43100  1.0000
  H   H2415     1.0  0.62602  0.17401  0.16109  1.0000
  C   C2417     1.0  0.83860  0.06476  0.44292  1.0000
  C   C2418     1.0  0.94487  0.14961  0.40528  1.0000
  C   C2419     1.0  0.78217  0.99283  0.31888  1.0000
  H   H2416     1.0  0.95091  0.14616  0.43146  1.0000
  H   H2417     1.0  0.98747  0.15019  0.38771  1.0000
  H   H2418     1.0  0.59412  0.99419  0.26717  1.0000
  C   C2420     1.0  0.61115  0.06729  0.20749  1.0000
  H   H2419     1.0  0.83064  0.06164  0.42556  1.0000
  C   C2421     1.0  0.71877  0.17399  0.03809  1.0000
  C   C2422     1.0  0.57728  0.02531  0.35665  1.0000
  C   C2423     1.0  0.86577  0.99206  0.38701  1.0000
  H   H2420     1.0  0.53119  0.09166  0.17211  1.0000
  H   H2421     1.0  0.92466  0.06349  0.37635  1.0000
  H   H2422     1.0  0.55109  0.02629  0.35147  1.0000
  C   C2424     1.0  0.67438  0.99786  0.37217  1.0000
  S   S825      1.0  0.96150  0.11218  0.38930  1.0000
  C   C2425     1.0  0.77293  0.02692  0.42548  1.0000
  H   H2423     1.0  0.78134  0.04410  0.46291  1.0000
  H   H2424     1.0  0.67708  0.13178  0.01522  1.0000
  C   C2426     1.0  0.77158  0.99958  0.31010  1.0000
  H   H2425     1.0  0.70914  0.12539  0.03130  1.0000
  H   H2426     1.0  0.50337  0.99301  0.22091  1.0000
  S   S826      1.0  0.62667  0.98614  0.26539  1.0000
  H   H2427     1.0  0.75219  0.14914  0.03671  1.0000
  C   C2427     1.0  0.76027  0.03050  0.43640  1.0000
  C   C2428     1.0  0.86254  0.04191  0.43598  1.0000
  C   C2429     1.0  0.68822  0.10025  0.00465  1.0000
  C   C2430     1.0  0.93921  0.08306  0.39747  1.0000
  C   C2431     1.0  0.69393  0.99171  0.35106  1.0000
  C   C2432     1.0  0.69431  0.03005  0.11686  1.0000
  C   C2433     1.0  0.64467  0.00659  0.45358  1.0000
  S   S827      1.0  0.69647  0.05211  0.09184  1.0000
  C   C2434     1.0  0.78710  0.02530  0.42785  1.0000
  Fe  Fe414     1.0  0.89701  0.99997  0.42650  1.0000
  C   C2435     1.0  0.52971  0.08329  0.18228  1.0000
  N   N199      1.0  0.93050  0.07305  0.40507  1.0000
  H   H2428     1.0  0.77179  0.02543  0.41516  1.0000
  S   S828      1.0  0.99192  0.17247  0.39901  1.0000
  C   C2436     1.0  0.60039  0.02054  0.33246  1.0000
  H   H2429     1.0  0.60549  0.06197  0.20248  1.0000
  S   S829      1.0  0.98662  0.06834  0.44079  1.0000
  N   N200      1.0  0.67279  0.16693  0.12714  1.0000
  C   C2437     1.0  0.92699  0.06965  0.42128  1.0000
  S   S830      1.0  0.50331  0.03601  0.25483  1.0000
  S   S831      1.0  0.98158  0.17314  0.36167  1.0000
  H   H2430     1.0  0.67730  0.14441  0.13873  1.0000
  H   H2431     1.0  0.60415  0.00930  0.24064  1.0000
  H   H2432     1.0  0.73190  0.17888  0.00093  1.0000
  C   C2438     1.0  0.84097  0.00259  0.37388  1.0000
  C   C2439     1.0  0.67193  0.08397  0.00707  1.0000
  C   C2440     1.0  0.69553  0.03194  0.14102  1.0000
  H   H2433     1.0  0.49627  0.08714  0.22885  1.0000
  C   C2441     1.0  0.67962  0.01690  0.35007  1.0000
  C   C2442     1.0  0.76202  0.03233  0.44963  1.0000
  C   C2443     1.0  0.69570  0.99304  0.22792  1.0000
  C   C2444     1.0  0.69872  0.05250  0.11967  1.0000
  C   C2445     1.0  0.75117  0.99860  0.40535  1.0000
  N   N201      1.0  0.60008  0.07826  0.21510  1.0000
  C   C2446     1.0  0.59454  0.09184  0.20702  1.0000
  C   C2447     1.0  0.59503  0.07476  0.23011  1.0000
  C   C2448     1.0  0.58428  0.10263  0.21404  1.0000
  C   C2449     1.0  0.58465  0.08525  0.23749  1.0000
  C   C2450     1.0  0.57944  0.09935  0.22938  1.0000
  H   H2434     1.0  0.59819  0.09449  0.19508  1.0000
  H   H2435     1.0  0.59942  0.06399  0.23653  1.0000
  H   H2436     1.0  0.58029  0.11354  0.20758  1.0000
  H   H2437     1.0  0.58104  0.08261  0.24944  1.0000
  H   H2438     1.0  0.57181  0.10779  0.23496  1.0000
  C   C2451     1.0  0.84980  0.05985  0.45099  1.0000
  C   C2452     1.0  0.71417  0.06991  0.00865  1.0000
  H   H2439     1.0  0.93451  0.14724  0.38912  1.0000
  N   N202      1.0  0.72249  0.07795  0.99684  1.0000
  C   C2453     1.0  0.62958  0.98791  0.24637  1.0000
  H   H2440     1.0  0.58461  0.01325  0.26699  1.0000
  H   H2441     1.0  0.69165  0.01280  0.13668  1.0000
  C   C2454     1.0  0.53094  0.07793  0.22187  1.0000
  H   H2442     1.0  0.53406  0.09584  0.19515  1.0000
  H   H2443     1.0  0.51994  0.05001  0.19628  1.0000
  C   C2455     1.0  0.50866  0.16936  0.10974  1.0000
  C   C2456     1.0  0.66175  0.12680  0.03612  1.0000
  C   C2457     1.0  0.97740  0.15553  0.36900  1.0000
  N   N203      1.0  0.66994  0.14887  0.04344  1.0000
  C   C2458     1.0  0.65977  0.14140  0.05347  1.0000
  C   C2459     1.0  0.67604  0.14559  0.02981  1.0000
  C   C2460     1.0  0.68063  0.09406  0.99823  1.0000
  H   H2444     1.0  0.86000  0.02880  0.41686  1.0000
  C   C2461     1.0  0.71982  0.17352  0.02349  1.0000
  S   S832      1.0  0.49893  0.03729  0.33514  1.0000
  H   H2445     1.0  0.65520  0.14366  0.06445  1.0000
  H   H2446     1.0  0.73565  0.14680  0.05051  1.0000
  C   C2462     1.0  0.52347  0.05991  0.19581  1.0000
  C   C2463     1.0  0.71421  0.06933  0.98008  1.0000
  C   C2464     1.0  0.67069  0.00602  0.44204  1.0000
  C   C2465     1.0  0.69794  0.00092  0.23705  1.0000
  H   H2447     1.0  0.99378  0.03205  0.44232  1.0000
  H   H2448     1.0  0.86538  0.00138  0.43435  1.0000
  S   S833      1.0  0.92137  0.99202  0.41689  1.0000
  N   N204      1.0  0.67169  0.03726  0.28931  1.0000
  C   C2466     1.0  0.68026  0.03019  0.27831  1.0000
  C   C2467     1.0  0.65936  0.04827  0.28692  1.0000
  C   C2468     1.0  0.67664  0.03415  0.26443  1.0000
  C   C2469     1.0  0.65541  0.05250  0.27316  1.0000
  C   C2470     1.0  0.66416  0.04541  0.26185  1.0000
  C   C2471     1.0  0.67579  0.03275  0.30373  1.0000
  H   H2449     1.0  0.68995  0.02138  0.28027  1.0000
  H   H2450     1.0  0.65234  0.05362  0.29575  1.0000
  H   H2451     1.0  0.68347  0.02847  0.25577  1.0000
  H   H2452     1.0  0.64556  0.06112  0.27130  1.0000
  H   H2453     1.0  0.66118  0.04854  0.25115  1.0000
  H   H2454     1.0  0.67517  0.02100  0.30878  1.0000
  H   H2455     1.0  0.68738  0.03386  0.30246  1.0000
  H   H2456     1.0  0.66822  0.03947  0.31164  1.0000
  H   H2457     1.0  0.52367  0.06881  0.17263  1.0000
  C   C2472     1.0  0.63560  0.99956  0.23651  1.0000
  H   H2458     1.0  0.72175  0.02228  0.20502  1.0000
  C   C2473     1.0  0.65854  0.00848  0.45385  1.0000
  H   H2459     1.0  0.94480  0.13838  0.41159  1.0000
  C   C2474     1.0  0.51593  0.17429  0.12993  1.0000
  H   H2460     1.0  0.66251  0.02067  0.36943  1.0000
  S   S834      1.0  0.57473  0.03736  0.28991  1.0000
  C   C2475     1.0  0.73120  0.17881  0.01226  1.0000
  H   H2461     1.0  0.72439  0.12334  0.00618  1.0000
  C   C2476     1.0  0.59209  0.02109  0.35832  1.0000
  H   H2462     1.0  0.67721  0.02833  0.34415  1.0000
  H   H2463     1.0  0.79698  0.02249  0.41941  1.0000
  H   H2464     1.0  0.70354  0.01155  0.19008  1.0000
  N   N205      1.0  0.75227  0.02156  0.35121  1.0000
  C   C2477     1.0  0.74289  0.01788  0.36460  1.0000
  C   C2478     1.0  0.74976  0.01965  0.33865  1.0000
  C   C2479     1.0  0.73060  0.01212  0.36566  1.0000
  C   C2480     1.0  0.73758  0.01392  0.33930  1.0000
  C   C2481     1.0  0.72791  0.01022  0.35289  1.0000
  C   C2482     1.0  0.76465  0.02818  0.35034  1.0000
  H   H2465     1.0  0.74491  0.01942  0.37454  1.0000
  H   H2466     1.0  0.75721  0.02255  0.32805  1.0000
  H   H2467     1.0  0.51508  0.15771  0.11218  1.0000
  H   H2468     1.0  0.73558  0.01245  0.32931  1.0000
  H   H2469     1.0  0.55710  0.02927  0.33171  1.0000
  H   H2470     1.0  0.77108  0.02155  0.35888  1.0000
  H   H2471     1.0  0.77270  0.02853  0.33947  1.0000
  H   H2472     1.0  0.76025  0.03960  0.35219  1.0000
  H   H2473     1.0  0.69283  0.02373  0.10992  1.0000
  S   S835      1.0  0.72834  0.99884  0.29182  1.0000
  C   C2483     1.0  0.52867  0.99254  0.33184  1.0000
  C   C2484     1.0  0.73459  0.10540  0.47047  1.0000
  H   H2474     1.0  0.52468  0.07137  0.23188  1.0000
  C   C2485     1.0  0.71550  0.09494  0.46706  1.0000
  H   H2475     1.0  0.55820  0.00406  0.23044  1.0000
  H   H2476     1.0  0.60940  0.01875  0.32293  1.0000
  H   H2477     1.0  0.65886  0.11793  0.03337  1.0000
  N   N206      1.0  0.57412  0.02704  0.34320  1.0000
  C   C2486     1.0  0.72573  0.01036  0.20679  1.0000
  H   H2478     1.0  0.96669  0.15740  0.35147  1.0000
  Fe  Fe415     1.0  0.81042  0.04423  0.47452  1.0000
  S   S836      1.0  0.89722  0.14139  0.45238  1.0000
  H   H2479     1.0  0.85638  0.04704  0.40533  1.0000
  S   S837      1.0  0.70698  0.16616  0.01943  1.0000
  C   C2487     1.0  0.96859  0.12832  0.38119  1.0000
  H   H2480     1.0  0.72231  0.05425  0.47161  1.0000
  N   N207      1.0  0.66909  0.00159  0.43038  1.0000
  H   H2481     1.0  0.53261  0.00584  0.30967  1.0000
  H   H2482     1.0  0.71779  0.02207  0.18119  1.0000
  H   H2483     1.0  0.56026  0.00119  0.25610  1.0000
  N   N208      1.0  0.95122  0.15852  0.40932  1.0000
  H   H2484     1.0  0.84908  0.06496  0.45992  1.0000
  C   C2488     1.0  0.52891  0.99603  0.31675  1.0000
  C   C2489     1.0  0.69363  0.02384  0.13201  1.0000
  N   N209      1.0  0.60474  0.06866  0.40463  1.0000
  C   C2490     1.0  0.61123  0.06846  0.39010  1.0000
  C   C2491     1.0  0.61277  0.06999  0.41373  1.0000
  C   C2492     1.0  0.62614  0.06962  0.38435  1.0000
  C   C2493     1.0  0.62772  0.07110  0.40838  1.0000
  C   C2494     1.0  0.63444  0.07088  0.39359  1.0000
  C   C2495     1.0  0.58929  0.06689  0.41076  1.0000
  H   H2485     1.0  0.60500  0.06718  0.38288  1.0000
  H   H2486     1.0  0.60776  0.06969  0.42536  1.0000
  H   H2487     1.0  0.63128  0.06918  0.37288  1.0000
  H   H2488     1.0  0.63413  0.07176  0.41578  1.0000
  H   H2489     1.0  0.64610  0.07147  0.38935  1.0000
  H   H2490     1.0  0.58924  0.05590  0.41849  1.0000
  H   H2491     1.0  0.58277  0.07565  0.41690  1.0000
  H   H2492     1.0  0.58351  0.06754  0.40200  1.0000
  Fe  Fe416     1.0  0.52022  0.00073  0.23869  1.0000
  C   C2496     1.0  0.71577  0.01070  0.18585  1.0000
  H   H2493     1.0  0.66753  0.16353  0.05747  1.0000
  C   C2497     1.0  0.67070  0.08032  0.02243  1.0000
  H   H2494     1.0  0.50310  0.10703  0.09783  1.0000
  H   H2495     1.0  0.55468  0.17986  0.16488  1.0000
  H   H2496     1.0  0.69038  0.99888  0.21875  1.0000
  C   C2498     1.0  0.73262  0.00286  0.21868  1.0000
  H   H2497     1.0  0.66907  0.99320  0.25177  1.0000
  N   N210      1.0  0.73917  0.13661  0.03254  1.0000
  C   C2499     1.0  0.72557  0.13280  0.03714  1.0000
  C   C2500     1.0  0.74773  0.13543  0.01876  1.0000
  C   C2501     1.0  0.72006  0.12804  0.02772  1.0000
  C   C2502     1.0  0.74262  0.13052  0.00912  1.0000
  C   C2503     1.0  0.72862  0.12692  0.01362  1.0000
  C   C2504     1.0  0.74494  0.14114  0.04274  1.0000
  H   H2498     1.0  0.71883  0.13364  0.04808  1.0000
  H   H2499     1.0  0.75855  0.13837  0.01514  1.0000
  C   C2505     1.0  0.63241  0.99188  0.21593  1.0000
  H   H2500     1.0  0.74934  0.12969  0.99814  1.0000
  H   H2501     1.0  0.68649  0.15482  0.04998  1.0000
  H   H2502     1.0  0.59456  0.01970  0.36899  1.0000
  C   C2506     1.0  0.96956  0.15061  0.36173  1.0000
  C   C2507     1.0  0.73730  0.98747  0.22136  1.0000
  N   N211      1.0  0.66205  0.07618  0.13220  1.0000
  C   C2508     1.0  0.66032  0.08013  0.11792  1.0000
  C   C2509     1.0  0.66225  0.06195  0.14014  1.0000
  C   C2510     1.0  0.65935  0.06961  0.11100  1.0000
  C   C2511     1.0  0.66107  0.05118  0.13363  1.0000
  C   C2512     1.0  0.65981  0.05503  0.11891  1.0000
  C   C2513     1.0  0.66340  0.08742  0.13899  1.0000
  H   H2503     1.0  0.65996  0.09143  0.11169  1.0000
  H   H2504     1.0  0.66381  0.05868  0.15141  1.0000
  H   H2505     1.0  0.65861  0.07267  0.09948  1.0000
  H   H2506     1.0  0.66182  0.03979  0.13978  1.0000
  H   H2507     1.0  0.65966  0.04665  0.11349  1.0000
  H   H2508     1.0  0.67161  0.09387  0.13137  1.0000
  H   H2509     1.0  0.65238  0.09516  0.14141  1.0000
  H   H2510     1.0  0.66741  0.08243  0.14943  1.0000
  H   H2511     1.0  0.66403  0.07248  0.02933  1.0000
  C   C2514     1.0  0.92490  0.06646  0.39761  1.0000
  C   C2515     1.0  0.93768  0.07928  0.37432  1.0000
  C   C2516     1.0  0.92853  0.06935  0.38215  1.0000
  C   C2517     1.0  0.93907  0.15456  0.39252  1.0000
  C   C2518     1.0  0.73189  0.05927  0.46801  1.0000
  C   C2519     1.0  0.94299  0.08628  0.38201  1.0000
  H   H2512     1.0  0.91815  0.05837  0.40356  1.0000
  S   S838      1.0  0.78925  0.00381  0.32580  1.0000
  H   H2513     1.0  0.75211  0.03498  0.45807  1.0000
  C   C2520     1.0  0.94671  0.17754  0.38782  1.0000
  Fe  Fe417     1.0  0.71532  0.99056  0.28091  1.0000
  S   S839      1.0  0.49809  0.10780  0.20109  1.0000
  N   N212      1.0  0.77597  0.03086  0.45184  1.0000
  H   H2514     1.0  0.55474  0.04405  0.34074  1.0000
  H   H2515     1.0  0.71951  0.00499  0.17649  1.0000
  H   H2516     1.0  0.68426  0.15134  0.02194  1.0000
  Fe  Fe418     1.0  0.71191  0.16696  0.99516  1.0000
  H   H2517     1.0  0.61523  0.01528  0.34735  1.0000
  H   H2518     1.0  0.52327  0.99030  0.29935  1.0000
  S   S840      1.0  0.73527  0.16107  0.98199  1.0000
  H   H2519     1.0  0.61752  0.05862  0.21518  1.0000
  C   C2521     1.0  0.55850  0.03190  0.34168  1.0000
  C   C2522     1.0  0.53148  0.08554  0.19532  1.0000
  C   C2523     1.0  0.70503  0.99340  0.24884  1.0000
  S   S841      1.0  0.98518  0.10212  0.42015  1.0000
  C   C2524     1.0  0.96506  0.13712  0.36785  1.0000
  H   H2520     1.0  0.54181  0.99963  0.38720  1.0000
  S   S842      1.0  0.50403  0.14101  0.16826  1.0000
  C   C2525     1.0  0.70384  0.08741  0.47256  1.0000
  H   H2521     1.0  0.69848  0.08534  0.46502  1.0000
  H   H2522     1.0  0.67594  0.16969  0.03836  1.0000
  H   H2523     1.0  0.91274  0.16691  0.44983  1.0000
  C   C2526     1.0  0.65870  0.16738  0.12597  1.0000
  H   H2524     1.0  0.72965  0.11746  0.46883  1.0000
  H   H2525     1.0  0.73554  0.98498  0.41860  1.0000
  S   S843      1.0  0.70173  0.17830  0.09369  1.0000
  S   S844      1.0  0.98670  0.07453  0.40533  1.0000
  H   H2526     1.0  0.50981  0.17304  0.09757  1.0000
  C   C2527     1.0  0.50403  0.03202  0.30761  1.0000
  H   H2527     1.0  0.50130  0.05014  0.10584  1.0000
  H   H2528     1.0  0.65413  0.99672  0.42053  1.0000
  C   C2528     1.0  0.64875  0.18095  0.12253  1.0000
  C   C2529     1.0  0.72893  0.17997  0.04140  1.0000
  C   C2530     1.0  0.72275  0.07756  0.98273  1.0000
  C   C2531     1.0  0.64308  0.00228  0.44156  1.0000
  S   S845      1.0  0.66400  0.99249  0.39016  1.0000
  H   H2529     1.0  0.68107  0.00988  0.40897  1.0000
  H   H2530     1.0  0.71902  0.09868  0.45519  1.0000
  H   H2531     1.0  0.93630  0.17229  0.37339  1.0000
  H   H2532     1.0  0.63750  0.18124  0.12191  1.0000
  H   H2533     1.0  0.78633  0.02442  0.47021  1.0000
  H   H2534     1.0  0.56851  0.98776  0.38757  1.0000
  H   H2535     1.0  0.68162  0.99033  0.41315  1.0000
  H   H2536     1.0  0.84956  0.12485  0.47751  1.0000
  C   C2532     1.0  0.68585  0.98746  0.36556  1.0000
  H   H2537     1.0  0.68869  0.17946  0.12531  1.0000
  C   C2533     1.0  0.67739  0.17977  0.12482  1.0000
  C   C2534     1.0  0.88462  0.99195  0.35241  1.0000
  H   H2538     1.0  0.76710  0.03422  0.47397  1.0000
  C   C2535     1.0  0.52063  0.18323  0.13607  1.0000
  H   H2539     1.0  0.72812  0.18016  0.05273  1.0000
  H   H2540     1.0  0.74144  0.10277  0.45977  1.0000
  N   N213      1.0  0.51405  0.17879  0.11569  1.0000
  Fe  Fe419     1.0  0.49533  0.02519  0.35899  1.0000
  Fe  Fe420     1.0  0.98864  0.18351  0.37603  1.0000
  S   S846      1.0  0.49586  0.00690  0.24885  1.0000
  Fe  Fe421     1.0  0.61746  0.06169  0.66709  1.0000
  S   S847      1.0  0.60201  0.04646  0.68015  1.0000
  S   S848      1.0  0.62633  0.06370  0.64245  1.0000
  Fe  Fe422     1.0  0.61514  0.07399  0.69341  1.0000
  S   S849      1.0  0.59946  0.06011  0.70870  1.0000
  S   S850      1.0  0.62508  0.08817  0.70118  1.0000
  Fe  Fe423     1.0  0.61457  0.04194  0.69796  1.0000
  S   S851      1.0  0.61842  0.01938  0.71284  1.0000
  Fe  Fe424     1.0  0.58795  0.06574  0.68986  1.0000
  S   S852      1.0  0.56265  0.07123  0.69590  1.0000
  S   S853      1.0  0.63139  0.05529  0.68407  1.0000
  S   S854      1.0  0.60229  0.08157  0.67543  1.0000
  Fe  Fe425     1.0  0.73063  0.07182  0.56478  1.0000
  S   S855      1.0  0.72865  0.05562  0.55317  1.0000
  S   S856      1.0  0.75016  0.08276  0.55391  1.0000
  Fe  Fe426     1.0  0.70471  0.06468  0.59040  1.0000
  S   S857      1.0  0.70059  0.04786  0.58088  1.0000
  S   S858      1.0  0.69362  0.06796  0.61360  1.0000
  Fe  Fe427     1.0  0.72553  0.04053  0.57546  1.0000
  S   S859      1.0  0.73805  0.01687  0.57839  1.0000
  Fe  Fe428     1.0  0.70400  0.06435  0.55919  1.0000
  H   H2541     1.0  0.57908  0.11796  0.84808  1.0000
  S   S860      1.0  0.72963  0.05589  0.58667  1.0000
  S   S861      1.0  0.70597  0.08210  0.56913  1.0000
  N   N214      1.0  0.96441  0.13265  0.63953  1.0000
  H   H2542     1.0  0.50448  0.03511  0.83044  1.0000
  H   H2543     1.0  0.71500  0.98638  0.68238  1.0000
  H   H2544     1.0  0.92132  0.13856  0.64905  1.0000
  H   H2545     1.0  0.54681  0.10569  0.79507  1.0000
  C   C2536     1.0  0.65180  0.07765  0.80495  1.0000
  H   H2546     1.0  0.52977  0.08194  0.84959  1.0000
  S   S862      1.0  0.74581  0.99847  0.64430  1.0000
  H   H2547     1.0  0.68444  0.13108  0.90895  1.0000
  H   H2548     1.0  0.69621  0.11423  0.91737  1.0000
  Fe  Fe429     1.0  0.81474  0.08089  0.58806  1.0000
  S   S863      1.0  0.83014  0.05860  0.58818  1.0000
  S   S864      1.0  0.78981  0.08346  0.59626  1.0000
  Fe  Fe430     1.0  0.84035  0.09689  0.57802  1.0000
  S   S865      1.0  0.85805  0.07604  0.57715  1.0000
  S   S866      1.0  0.84538  0.11961  0.57089  1.0000
  Fe  Fe431     1.0  0.84311  0.06978  0.56686  1.0000
  S   S867      1.0  0.85325  0.05906  0.54751  1.0000
  Fe  Fe432     1.0  0.84367  0.06666  0.59854  1.0000
  S   S868      1.0  0.85203  0.05058  0.61776  1.0000
  S   S869      1.0  0.82648  0.09149  0.56570  1.0000
  S   S870      1.0  0.82715  0.08812  0.60042  1.0000
  Fe  Fe433     1.0  0.85582  0.13709  0.49902  1.0000
  S   S871      1.0  0.90173  0.99371  0.64082  1.0000
  S   S872      1.0  0.90598  0.99948  0.59898  1.0000
  H   H2549     1.0  0.64574  0.07464  0.79833  1.0000
  C   C2537     1.0  0.68663  0.12365  0.91959  1.0000
  H   H2550     1.0  0.70347  0.00215  0.92017  1.0000
  C   C2538     1.0  0.71842  0.09209  0.49142  1.0000
  C   C2539     1.0  0.85799  0.99878  0.60003  1.0000
  Fe  Fe434     1.0  0.66690  0.08007  0.97433  1.0000
  Fe  Fe435     1.0  0.97522  0.05702  0.63276  1.0000
  S   S873      1.0  0.89201  0.15169  0.48887  1.0000
  S   S874      1.0  0.96681  0.04432  0.62151  1.0000
  Fe  Fe436     1.0  0.96964  0.07627  0.65470  1.0000
  C   C2540     1.0  0.54608  0.01333  0.70273  1.0000
  S   S875      1.0  0.95145  0.08494  0.67269  1.0000
  Fe  Fe437     1.0  0.98707  0.08511  0.62360  1.0000
  Fe  Fe438     1.0  0.50350  0.03810  0.68509  1.0000
  Fe  Fe439     1.0  0.67891  0.99939  0.84988  1.0000
  H   H2551     1.0  0.55583  0.12467  0.80097  1.0000
  S   S876      1.0  0.96405  0.08083  0.63255  1.0000
  S   S877      1.0  0.97890  0.05192  0.65580  1.0000
  C   C2541     1.0  0.87495  0.02973  0.65033  1.0000
  C   C2542     1.0  0.55023  0.13778  0.88163  1.0000
  C   C2543     1.0  0.69165  0.98761  0.91698  1.0000
  S   S878      1.0  0.51156  0.10736  0.79277  1.0000
  H   H2552     1.0  0.53142  0.09025  0.81486  1.0000
  S   S879      1.0  0.50250  0.06865  0.81489  1.0000
  H   H2553     1.0  0.49831  0.08925  0.94919  1.0000
  S   S880      1.0  0.67324  0.00288  0.74340  1.0000
  C   C2544     1.0  0.53746  0.06433  0.69382  1.0000
  C   C2545     1.0  0.87753  0.16421  0.53487  1.0000
  C   C2546     1.0  0.54679  0.02954  0.71796  1.0000
  Fe  Fe440     1.0  0.58762  0.08662  0.81248  1.0000
  S   S881      1.0  0.58867  0.10963  0.79941  1.0000
  S   S882      1.0  0.56965  0.08114  0.83252  1.0000
  Fe  Fe441     1.0  0.61772  0.07277  0.79515  1.0000
  S   S883      1.0  0.62151  0.09448  0.78025  1.0000
  S   S884      1.0  0.63420  0.05094  0.79526  1.0000
  Fe  Fe442     1.0  0.61278  0.10344  0.80099  1.0000
  S   S885      1.0  0.62593  0.11380  0.80980  1.0000
  Fe  Fe443     1.0  0.59713  0.09880  0.77983  1.0000
  S   S886      1.0  0.58597  0.10707  0.76042  1.0000
  S   S887      1.0  0.61088  0.08136  0.81580  1.0000
  S   S888      1.0  0.59431  0.07618  0.79295  1.0000
  Fe  Fe444     1.0  0.67636  0.00752  0.87902  1.0000
  S   S889      1.0  0.65536  0.99897  0.88985  1.0000
  S   S890      1.0  0.68885  0.01800  0.88867  1.0000
  S   S891      1.0  0.50650  0.15022  0.85025  1.0000
  C   C2547     1.0  0.56955  0.14838  0.88386  1.0000
  C   C2548     1.0  0.56954  0.01841  0.70356  1.0000
  Fe  Fe445     1.0  0.64864  0.00998  0.86811  1.0000
  S   S892      1.0  0.62652  0.02370  0.86358  1.0000
  S   S893      1.0  0.66853  0.02016  0.85827  1.0000
  Fe  Fe446     1.0  0.66783  0.06848  0.94738  1.0000
  S   S894      1.0  0.64946  0.08177  0.96205  1.0000
  S   S895      1.0  0.65915  0.05209  0.94083  1.0000
  Fe  Fe447     1.0  0.68998  0.08650  0.94649  1.0000
  S   S896      1.0  0.67303  0.10111  0.96034  1.0000
  S   S897      1.0  0.71324  0.09082  0.93834  1.0000
  C   C2549     1.0  0.96136  0.12037  0.50127  1.0000
  C   C2550     1.0  0.52847  0.09233  0.74047  1.0000
  Fe  Fe448     1.0  0.65764  0.10138  0.94665  1.0000
  S   S898      1.0  0.64268  0.12350  0.93995  1.0000
  S   S899      1.0  0.68470  0.06508  0.96111  1.0000
  S   S900      1.0  0.67509  0.08837  0.93133  1.0000
  H   H2554     1.0  0.55891  0.03800  0.66731  1.0000
  Fe  Fe449     1.0  0.90519  0.14898  0.58656  1.0000
  S   S901      1.0  0.92976  0.14626  0.57631  1.0000
  S   S902      1.0  0.89699  0.12765  0.59567  1.0000
  Fe  Fe450     1.0  0.92880  0.16409  0.58740  1.0000
  S   S903      1.0  0.94694  0.16452  0.59769  1.0000
  Fe  Fe451     1.0  0.92248  0.16487  0.55818  1.0000
  S   S904      1.0  0.90490  0.16524  0.59953  1.0000
  Fe  Fe452     1.0  0.97826  0.13872  0.69637  1.0000
  H   H2555     1.0  0.69723  0.15384  0.95253  1.0000
  H   H2556     1.0  0.89384  0.17541  0.49755  1.0000
  H   H2557     1.0  0.71410  0.06946  0.96882  1.0000
  S   S905      1.0  0.60044  0.17643  0.82696  1.0000
  C   C2551     1.0  0.57005  0.03433  0.71863  1.0000
  Fe  Fe453     1.0  0.98356  0.15956  0.66658  1.0000
  C   C2552     1.0  0.69948  0.08218  0.48778  1.0000
  H   H2558     1.0  0.91552  0.14173  0.55412  1.0000
  S   S906      1.0  0.96578  0.16132  0.68717  1.0000
  Fe  Fe454     1.0  0.86844  0.16377  0.49568  1.0000
  C   C2553     1.0  0.91585  0.14165  0.54287  1.0000
  S   S907      1.0  0.61344  0.15496  0.86344  1.0000
  C   C2554     1.0  0.87409  0.08677  0.52175  1.0000
  H   H2559     1.0  0.97001  0.07160  0.59937  1.0000
  Fe  Fe455     1.0  0.62845  0.16607  0.86854  1.0000
  S   S908      1.0  0.65089  0.15214  0.87186  1.0000
  C   C2555     1.0  0.56073  0.05280  0.67949  1.0000
  C   C2556     1.0  0.83810  0.01792  0.59103  1.0000
  S   S909      1.0  0.68880  0.98736  0.86967  1.0000
  Fe  Fe456     1.0  0.59565  0.16581  0.88004  1.0000
  C   C2557     1.0  0.50717  0.05825  0.64705  1.0000
  S   S910      1.0  0.73757  0.12564  0.97002  1.0000
  N   N215      1.0  0.87998  0.17738  0.53774  1.0000
  Fe  Fe457     1.0  0.52257  0.05226  0.80648  1.0000
  C   C2558     1.0  0.75284  0.99467  0.61575  1.0000
  H   H2560     1.0  0.61432  0.05718  0.85918  1.0000
  S   S911      1.0  0.93393  0.99224  0.65774  1.0000
  C   C2559     1.0  0.52243  0.09127  0.84343  1.0000
  H   H2561     1.0  0.96155  0.13254  0.51687  1.0000
  C   C2560     1.0  0.89311  0.18188  0.53108  1.0000
  N   N216      1.0  0.88663  0.00586  0.67098  1.0000
  C   C2561     1.0  0.51108  0.05590  0.73167  1.0000
  H   H2562     1.0  0.59722  0.12195  0.84401  1.0000
  S   S912      1.0  0.96486  0.12201  0.71025  1.0000
  H   H2563     1.0  0.54060  0.13289  0.88674  1.0000
  C   C2562     1.0  0.60954  0.06896  0.85603  1.0000
  H   H2564     1.0  0.83717  0.10125  0.52909  1.0000
  C   C2563     1.0  0.82224  0.10866  0.50192  1.0000
  H   H2565     1.0  0.65685  0.09812  0.62246  1.0000
  H   H2566     1.0  0.79815  0.11239  0.59122  1.0000
  H   H2567     1.0  0.63052  0.06890  0.74732  1.0000
  N   N217      1.0  0.76709  0.04117  0.54734  1.0000
  S   S913      1.0  0.68998  0.06832  0.54247  1.0000
  C   C2564     1.0  0.64216  0.01987  0.77065  1.0000
  S   S914      1.0  0.99503  0.13628  0.67524  1.0000
  H   H2568     1.0  0.80485  0.02440  0.63192  1.0000
  H   H2569     1.0  0.71540  0.04363  0.53778  1.0000
  N   N218      1.0  0.80216  0.12398  0.56859  1.0000
  C   C2565     1.0  0.61240  0.09422  0.84642  1.0000
  S   S915      1.0  0.80362  0.04084  0.52931  1.0000
  N   N219      1.0  0.71203  0.98521  0.70543  1.0000
  C   C2566     1.0  0.70355  0.01460  0.56669  1.0000
  C   C2567     1.0  0.65084  0.99220  0.82032  1.0000
  C   C2568     1.0  0.84879  0.02409  0.57959  1.0000
  C   C2569     1.0  0.65300  0.09082  0.66460  1.0000
  H   H2570     1.0  0.78593  0.11392  0.54702  1.0000
  H   H2571     1.0  0.90599  0.01506  0.66466  1.0000
  C   C2570     1.0  0.95717  0.12412  0.51504  1.0000
  C   C2571     1.0  0.52962  0.05675  0.68918  1.0000
  H   H2572     1.0  0.85555  0.08972  0.50083  1.0000
  C   C2572     1.0  0.64600  0.13151  0.92099  1.0000
  C   C2573     1.0  0.65423  0.12303  0.91058  1.0000
  C   C2574     1.0  0.65636  0.12957  0.89544  1.0000
  C   C2575     1.0  0.65001  0.14455  0.89071  1.0000
  C   C2576     1.0  0.64207  0.15310  0.90112  1.0000
  C   C2577     1.0  0.64000  0.14657  0.91625  1.0000
  H   H2573     1.0  0.65856  0.11135  0.91410  1.0000
  H   H2574     1.0  0.66245  0.12293  0.88738  1.0000
  H   H2575     1.0  0.63765  0.16479  0.89751  1.0000
  H   H2576     1.0  0.63371  0.15319  0.92427  1.0000
  C   C2578     1.0  0.71938  0.10088  0.94734  1.0000
  C   C2579     1.0  0.73450  0.10144  0.94344  1.0000
  C   C2580     1.0  0.73995  0.10912  0.95042  1.0000
  C   C2581     1.0  0.73023  0.11673  0.96102  1.0000
  C   C2582     1.0  0.71506  0.11635  0.96489  1.0000
  C   C2583     1.0  0.70968  0.10829  0.95818  1.0000
  H   H2577     1.0  0.74212  0.09572  0.93514  1.0000
  H   H2578     1.0  0.75173  0.10924  0.94749  1.0000
  H   H2579     1.0  0.54964  0.12759  0.82698  1.0000
  H   H2580     1.0  0.69806  0.10798  0.96138  1.0000
  C   C2584     1.0  0.67989  0.02901  0.90189  1.0000
  C   C2585     1.0  0.66487  0.02974  0.90906  1.0000
  C   C2586     1.0  0.65858  0.03721  0.92073  1.0000
  C   C2587     1.0  0.66716  0.04421  0.92515  1.0000
  C   C2588     1.0  0.68202  0.04392  0.91764  1.0000
  C   C2589     1.0  0.68838  0.03625  0.90612  1.0000
  H   H2581     1.0  0.65825  0.02415  0.90595  1.0000
  H   H2582     1.0  0.64708  0.03735  0.92652  1.0000
  H   H2583     1.0  0.68875  0.04921  0.92098  1.0000
  H   H2584     1.0  0.70003  0.03570  0.90064  1.0000
  C   C2590     1.0  0.61843  0.13127  0.81432  1.0000
  C   C2591     1.0  0.62565  0.13571  0.82260  1.0000
  C   C2592     1.0  0.62009  0.14949  0.82652  1.0000
  C   C2593     1.0  0.60732  0.15904  0.82209  1.0000
  C   C2594     1.0  0.60009  0.15465  0.81374  1.0000
  C   C2595     1.0  0.60556  0.14072  0.80996  1.0000
  H   H2585     1.0  0.63569  0.12854  0.82588  1.0000
  H   H2586     1.0  0.62598  0.15290  0.83261  1.0000
  H   H2587     1.0  0.59031  0.16203  0.81013  1.0000
  H   H2588     1.0  0.60001  0.13743  0.80345  1.0000
  C   C2596     1.0  0.56103  0.06843  0.83013  1.0000
  C   C2597     1.0  0.56020  0.06830  0.81596  1.0000
  C   C2598     1.0  0.55271  0.05868  0.81404  1.0000
  C   C2599     1.0  0.54594  0.04917  0.82626  1.0000
  C   C2600     1.0  0.54697  0.04906  0.84047  1.0000
  C   C2601     1.0  0.55445  0.05878  0.84242  1.0000
  H   H2589     1.0  0.56482  0.07600  0.80649  1.0000
  H   H2590     1.0  0.55234  0.05849  0.80304  1.0000
  H   H2591     1.0  0.63110  0.09556  0.62744  1.0000
  H   H2592     1.0  0.55511  0.05881  0.85341  1.0000
  C   C2602     1.0  0.63140  0.04127  0.81380  1.0000
  C   C2603     1.0  0.64338  0.03130  0.81934  1.0000
  C   C2604     1.0  0.64182  0.02560  0.83461  1.0000
  C   C2605     1.0  0.62816  0.02955  0.84435  1.0000
  C   C2606     1.0  0.61588  0.03866  0.83866  1.0000
  C   C2607     1.0  0.61751  0.04451  0.82341  1.0000
  H   H2593     1.0  0.65402  0.02838  0.81194  1.0000
  H   H2594     1.0  0.65132  0.01842  0.83880  1.0000
  H   H2595     1.0  0.60517  0.04144  0.84605  1.0000
  H   H2596     1.0  0.60799  0.05167  0.81913  1.0000
  H   H2597     1.0  0.67675  0.11882  0.92546  1.0000
  H   H2598     1.0  0.99291  0.02020  0.61408  1.0000
  H   H2599     1.0  0.70350  0.08052  0.50917  1.0000
  S   S916      1.0  0.99341  0.10337  0.60458  1.0000
  C   C2608     1.0  0.89480  0.01629  0.66316  1.0000
  S   S917      1.0  0.49555  0.02684  0.70863  1.0000
  S   S918      1.0  0.79137  0.04149  0.49406  1.0000
  C   C2609     1.0  0.70247  0.03606  0.51179  1.0000
  C   C2610     1.0  0.69327  0.99803  0.92365  1.0000
  C   C2611     1.0  0.55452  0.03656  0.72329  1.0000
  C   C2612     1.0  0.87877  0.09375  0.53001  1.0000
  H   H2600     1.0  0.78923  0.00678  0.63436  1.0000
  H   H2601     1.0  0.77095  0.04971  0.56370  1.0000
  Fe  Fe458     1.0  0.49825  0.13543  0.89265  1.0000
  H   H2602     1.0  0.57624  0.09291  0.85329  1.0000
  H   H2603     1.0  0.95626  0.18136  0.73520  1.0000
  H   H2604     1.0  0.64071  0.00136  0.82010  1.0000
  C   C2613     1.0  0.98022  0.12019  0.60305  1.0000
  C   C2614     1.0  0.96502  0.12086  0.60940  1.0000
  C   C2615     1.0  0.95461  0.13441  0.60725  1.0000
  C   C2616     1.0  0.95956  0.14737  0.59942  1.0000
  C   C2617     1.0  0.97479  0.14673  0.59338  1.0000
  C   C2618     1.0  0.98507  0.13311  0.59497  1.0000
  H   H2605     1.0  0.96122  0.11093  0.61569  1.0000
  H   H2606     1.0  0.94283  0.13492  0.61199  1.0000
  H   H2607     1.0  0.97864  0.15668  0.58715  1.0000
  H   H2608     1.0  0.63417  0.98471  0.84713  1.0000
  C   C2619     1.0  0.95581  0.09476  0.68320  1.0000
  C   C2620     1.0  0.96972  0.09853  0.67965  1.0000
  C   C2621     1.0  0.97254  0.10703  0.68782  1.0000
  C   C2622     1.0  0.96158  0.11147  0.69978  1.0000
  C   C2623     1.0  0.94782  0.10738  0.70353  1.0000
  C   C2624     1.0  0.94488  0.09922  0.69515  1.0000
  H   H2609     1.0  0.97834  0.09491  0.67068  1.0000
  H   H2610     1.0  0.97592  0.99780  0.66331  1.0000
  H   H2611     1.0  0.93934  0.11069  0.71282  1.0000
  H   H2612     1.0  0.93413  0.09628  0.69799  1.0000
  C   C2625     1.0  0.94222  0.00728  0.64756  1.0000
  C   C2626     1.0  0.94628  0.01552  0.65511  1.0000
  C   C2627     1.0  0.95342  0.02724  0.64727  1.0000
  C   C2628     1.0  0.95669  0.03063  0.63181  1.0000
  C   C2629     1.0  0.95243  0.02254  0.62427  1.0000
  C   C2630     1.0  0.94514  0.01094  0.63212  1.0000
  H   H2613     1.0  0.94397  0.01278  0.66707  1.0000
  H   H2614     1.0  0.95661  0.03345  0.65318  1.0000
  H   H2615     1.0  0.95492  0.02511  0.61231  1.0000
  H   H2616     1.0  0.94204  0.00465  0.62621  1.0000
  C   C2631     1.0  0.85991  0.12160  0.57764  1.0000
  C   C2632     1.0  0.86704  0.10993  0.58746  1.0000
  C   C2633     1.0  0.87842  0.11189  0.59289  1.0000
  C   C2634     1.0  0.88277  0.12549  0.58850  1.0000
  C   C2635     1.0  0.87566  0.13711  0.57863  1.0000
  C   C2636     1.0  0.86428  0.13517  0.57322  1.0000
  H   H2617     1.0  0.86367  0.09945  0.59103  1.0000
  H   H2618     1.0  0.88373  0.10289  0.60062  1.0000
  C   C2637     1.0  0.76732  0.05414  0.53696  1.0000
  H   H2619     1.0  0.85872  0.14425  0.56573  1.0000
  C   C2638     1.0  0.83939  0.05416  0.54240  1.0000
  C   C2639     1.0  0.84295  0.04855  0.52967  1.0000
  H   H2620     1.0  0.86649  0.99222  0.64445  1.0000
  C   C2640     1.0  0.81386  0.05150  0.54706  1.0000
  C   C2641     1.0  0.82482  0.05576  0.55103  1.0000
  H   H2621     1.0  0.85424  0.04714  0.52305  1.0000
  H   H2622     1.0  0.80260  0.05269  0.55378  1.0000
  H   H2623     1.0  0.82194  0.06025  0.56076  1.0000
  C   C2642     1.0  0.86663  0.03644  0.61174  1.0000
  C   C2643     1.0  0.86775  0.02205  0.62036  1.0000
  C   C2644     1.0  0.87974  0.01073  0.61614  1.0000
  C   C2645     1.0  0.89075  0.01376  0.60345  1.0000
  C   C2646     1.0  0.88942  0.02804  0.59448  1.0000
  C   C2647     1.0  0.87731  0.03940  0.59864  1.0000
  H   H2624     1.0  0.85929  0.01965  0.63025  1.0000
  H   H2625     1.0  0.88051  0.99953  0.62254  1.0000
  H   H2626     1.0  0.89794  0.03039  0.58461  1.0000
  H   H2627     1.0  0.87661  0.05054  0.59203  1.0000
  H   H2628     1.0  0.51761  0.05843  0.69283  1.0000
  H   H2629     1.0  0.85553  0.02024  0.65690  1.0000
  S   S919      1.0  0.51164  0.15278  0.88196  1.0000
  C   C2648     1.0  0.55704  0.14211  0.89038  1.0000
  C   C2649     1.0  0.54409  0.10716  0.80631  1.0000
  H   H2630     1.0  0.91723  0.14077  0.50263  1.0000
  C   C2650     1.0  0.53536  0.09846  0.81758  1.0000
  H   H2631     1.0  0.92927  0.15817  0.50732  1.0000
  H   H2632     1.0  0.81240  0.09310  0.49771  1.0000
  C   C2651     1.0  0.87257  0.00735  0.66904  1.0000
  H   H2633     1.0  0.83464  0.04040  0.51560  1.0000
  N   N220      1.0  0.69090  0.02047  0.56113  1.0000
  C   C2652     1.0  0.73325  0.98690  0.71312  1.0000
  N   N221      1.0  0.54685  0.09230  0.75317  1.0000
  C   C2653     1.0  0.68946  0.04725  0.51178  1.0000
  H   H2634     1.0  0.62875  0.99432  0.73441  1.0000
  H   H2635     1.0  0.65749  0.99262  0.80880  1.0000
  C   C2654     1.0  0.73972  0.01089  0.59687  1.0000
  C   C2655     1.0  0.75102  0.99879  0.60108  1.0000
  Fe  Fe459     1.0  0.50983  0.08434  0.79374  1.0000
  C   C2656     1.0  0.74325  0.00258  0.62618  1.0000
  C   C2657     1.0  0.73181  0.01450  0.62199  1.0000
  C   C2658     1.0  0.73006  0.01866  0.60737  1.0000
  H   H2636     1.0  0.73850  0.98651  0.72188  1.0000
  H   H2637     1.0  0.51689  0.09493  0.73957  1.0000
  H   H2638     1.0  0.72434  0.02062  0.63004  1.0000
  H   H2639     1.0  0.72113  0.02784  0.60429  1.0000
  C   C2659     1.0  0.76130  0.08246  0.56576  1.0000
  C   C2660     1.0  0.75491  0.08310  0.58052  1.0000
  C   C2661     1.0  0.76377  0.08357  0.58970  1.0000
  C   C2662     1.0  0.77916  0.08285  0.58433  1.0000
  C   C2663     1.0  0.78564  0.08189  0.56963  1.0000
  C   C2664     1.0  0.77666  0.08191  0.56029  1.0000
  H   H2640     1.0  0.74303  0.08375  0.58473  1.0000
  H   H2641     1.0  0.75864  0.08459  0.60098  1.0000
  H   H2642     1.0  0.79750  0.08131  0.56539  1.0000
  H   H2643     1.0  0.78165  0.08139  0.54885  1.0000
  H   H2644     1.0  0.65442  0.01924  0.76702  1.0000
  H   H2645     1.0  0.65228  0.05748  0.65533  1.0000
  H   H2646     1.0  0.57268  0.05133  0.67556  1.0000
  C   C2665     1.0  0.63386  0.01500  0.72099  1.0000
  C   C2666     1.0  0.64343  0.02471  0.71754  1.0000
  C   C2667     1.0  0.65549  0.02106  0.72452  1.0000
  C   C2668     1.0  0.65796  0.00771  0.73494  1.0000
  C   C2669     1.0  0.64818  0.99820  0.73860  1.0000
  C   C2670     1.0  0.63624  0.00177  0.73155  1.0000
  H   H2647     1.0  0.64156  0.03503  0.70954  1.0000
  H   H2648     1.0  0.66295  0.02852  0.72175  1.0000
  H   H2649     1.0  0.92882  0.17649  0.72857  1.0000
  C   C2671     1.0  0.53963  0.08478  0.73066  1.0000
  C   C2672     1.0  0.61413  0.09388  0.71738  1.0000
  C   C2673     1.0  0.62115  0.09527  0.72772  1.0000
  C   C2674     1.0  0.61260  0.09909  0.74108  1.0000
  C   C2675     1.0  0.59698  0.10221  0.74382  1.0000
  C   C2676     1.0  0.58997  0.10146  0.73317  1.0000
  C   C2677     1.0  0.59851  0.09687  0.72017  1.0000
  H   H2650     1.0  0.63323  0.09314  0.72551  1.0000
  H   H2651     1.0  0.61809  0.09997  0.74908  1.0000
  H   H2652     1.0  0.57792  0.10449  0.73495  1.0000
  H   H2653     1.0  0.59302  0.09609  0.71210  1.0000
  C   C2678     1.0  0.64553  0.06293  0.63462  1.0000
  C   C2679     1.0  0.65039  0.06610  0.61916  1.0000
  C   C2680     1.0  0.66537  0.06688  0.61254  1.0000
  C   C2681     1.0  0.67554  0.06453  0.62138  1.0000
  C   C2682     1.0  0.67082  0.06080  0.63683  1.0000
  C   C2683     1.0  0.65585  0.06005  0.64343  1.0000
  H   H2654     1.0  0.64246  0.06829  0.61228  1.0000
  H   H2655     1.0  0.66890  0.06981  0.60063  1.0000
  H   H2656     1.0  0.67867  0.05888  0.64371  1.0000
  C   C2684     1.0  0.55975  0.17832  0.83467  1.0000
  H   H2657     1.0  0.64303  0.04818  0.76460  1.0000
  H   H2658     1.0  0.63824  0.02184  0.78206  1.0000
  H   H2659     1.0  0.56933  0.08173  0.74486  1.0000
  H   H2660     1.0  0.66780  0.03118  0.56638  1.0000
  H   H2661     1.0  0.89044  0.99615  0.69259  1.0000
  C   C2685     1.0  0.49543  0.02943  0.83603  1.0000
  H   H2662     1.0  0.65778  0.08636  0.79774  1.0000
  H   H2663     1.0  0.96093  0.15572  0.62950  1.0000
  C   C2686     1.0  0.74137  0.98856  0.69851  1.0000
  H   H2664     1.0  0.52201  0.05529  0.72442  1.0000
  H   H2665     1.0  0.50977  0.07543  0.91360  1.0000
  S   S920      1.0  0.99180  0.08272  0.64568  1.0000
  C   C2687     1.0  0.53680  0.11064  0.83519  1.0000
  C   C2688     1.0  0.57764  0.02509  0.70882  1.0000
  C   C2689     1.0  0.49962  0.12580  0.82830  1.0000
  H   H2666     1.0  0.76160  0.98537  0.61896  1.0000
  C   C2690     1.0  0.95785  0.12101  0.64717  1.0000
  N   N222      1.0  0.66240  0.06473  0.81121  1.0000
  C   C2691     1.0  0.66844  0.05315  0.80427  1.0000
  C   C2692     1.0  0.66671  0.06466  0.82362  1.0000
  C   C2693     1.0  0.67882  0.04090  0.80996  1.0000
  C   C2694     1.0  0.67703  0.05256  0.82963  1.0000
  C   C2695     1.0  0.68309  0.04063  0.82273  1.0000
  C   C2696     1.0  0.70676  0.08456  0.49730  1.0000
  H   H2667     1.0  0.66503  0.05318  0.79444  1.0000
  H   H2668     1.0  0.66214  0.07397  0.82894  1.0000
  H   H2669     1.0  0.68335  0.03152  0.80470  1.0000
  H   H2670     1.0  0.68027  0.05235  0.83962  1.0000
  H   H2671     1.0  0.69100  0.03109  0.82734  1.0000
  H   H2672     1.0  0.73402  0.05699  0.49020  1.0000
  H   H2673     1.0  0.95853  0.10700  0.48829  1.0000
  C   C2697     1.0  0.99274  0.18088  0.72197  1.0000
  H   H2674     1.0  0.86171  0.07142  0.51176  1.0000
  C   C2698     1.0  0.49766  0.01433  0.83685  1.0000
  C   C2699     1.0  0.84889  0.09905  0.52933  1.0000
  H   H2675     1.0  0.69145  0.99871  0.79653  1.0000
  C   C2700     1.0  0.96388  0.13935  0.73796  1.0000
  C   C2701     1.0  0.77242  0.03894  0.56080  1.0000
  C   C2702     1.0  0.68047  0.14706  0.94664  1.0000
  C   C2703     1.0  0.94092  0.10686  0.52373  1.0000
  H   H2676     1.0  0.57552  0.01140  0.69579  1.0000
  H   H2677     1.0  0.64962  0.98815  0.74703  1.0000
  H   H2678     1.0  0.94347  0.12026  0.53705  1.0000
  C   C2704     1.0  0.71408  0.00013  0.54802  1.0000
  H   H2679     1.0  0.64317  0.08240  0.81381  1.0000
  H   H2680     1.0  0.96608  0.12757  0.73842  1.0000
  C   C2705     1.0  0.85704  0.98709  0.64913  1.0000
  H   H2681     1.0  0.54124  0.09852  0.77395  1.0000
  H   H2682     1.0  0.56310  0.07508  0.72466  1.0000
  C   C2706     1.0  0.50021  0.08380  0.91720  1.0000
  H   H2683     1.0  0.65636  0.98483  0.93404  1.0000
  C   C2707     1.0  0.67886  0.03154  0.56774  1.0000
  C   C2708     1.0  0.73470  0.98848  0.68740  1.0000
  H   H2684     1.0  0.50043  0.03492  0.97453  1.0000
  H   H2685     1.0  0.86583  0.16606  0.53373  1.0000
  H   H2686     1.0  0.51223  0.10139  0.90911  1.0000
  Fe  Fe460     1.0  0.88558  0.13273  0.50686  1.0000
  C   C2709     1.0  0.68974  0.01665  0.54894  1.0000
  H   H2687     1.0  0.98334  0.10977  0.68513  1.0000
  H   H2688     1.0  0.55453  0.10763  0.75957  1.0000
  C   C2710     1.0  0.51293  0.04491  0.64231  1.0000
  H   H2689     1.0  0.88630  0.01870  0.56687  1.0000
  N   N223      1.0  0.95098  0.16419  0.72902  1.0000
  C   C2711     1.0  0.98808  0.00802  0.64221  1.0000
  C   C2712     1.0  0.70818  0.04477  0.53053  1.0000
  H   H2690     1.0  0.78449  0.03344  0.55901  1.0000
  C   C2713     1.0  0.87460  0.02497  0.56673  1.0000
  H   H2691     1.0  0.78506  0.11200  0.57333  1.0000
  C   C2714     1.0  0.66847  0.09322  0.63993  1.0000
  Fe  Fe461     1.0  0.60750  0.17631  0.84741  1.0000
  C   C2715     1.0  0.96880  0.15992  0.74393  1.0000
  H   H2692     1.0  0.98429  0.13123  0.64598  1.0000
  C   C2716     1.0  0.98449  0.00411  0.65766  1.0000
  C   C2717     1.0  0.50160  0.09844  0.91471  1.0000
  H   H2693     1.0  0.75296  0.98944  0.69586  1.0000
  C   C2718     1.0  0.68135  0.00375  0.93417  1.0000
  H   H2694     1.0  0.52357  0.10201  0.75927  1.0000
  H   H2695     1.0  0.84513  0.03401  0.57162  1.0000
  C   C2719     1.0  0.93818  0.09265  0.50767  1.0000
  C   C2720     1.0  0.82050  0.09999  0.49328  1.0000
  H   H2696     1.0  0.98896  0.00587  0.67773  1.0000
  H   H2697     1.0  0.70470  0.01784  0.57614  1.0000
  H   H2698     1.0  0.86177  0.98901  0.60809  1.0000
  C   C2721     1.0  0.83266  0.11770  0.49624  1.0000
  C   C2722     1.0  0.50172  0.11263  0.80948  1.0000
  H   H2699     1.0  0.51571  0.08674  0.83876  1.0000
  H   H2700     1.0  0.55258  0.14068  0.90217  1.0000
  S   S921      1.0  0.81716  0.99099  0.64009  1.0000
  C   C2723     1.0  0.86655  0.01926  0.65865  1.0000
  H   H2701     1.0  0.67553  0.06559  0.52136  1.0000
  C   C2724     1.0  0.69070  0.98819  0.80417  1.0000
  S   S922      1.0  0.52458  0.05671  0.75286  1.0000
  H   H2702     1.0  0.93247  0.10207  0.53240  1.0000
  C   C2725     1.0  0.86837  0.00519  0.58839  1.0000
  N   N224      1.0  0.68956  0.13195  0.92865  1.0000
  H   H2703     1.0  0.50312  0.13369  0.83182  1.0000
  S   S923      1.0  0.72025  0.16820  0.95347  1.0000
  C   C2726     1.0  0.55782  0.08479  0.74366  1.0000
  S   S924      1.0  0.77727  0.98641  0.66432  1.0000
  C   C2727     1.0  0.84460  0.99182  0.64265  1.0000
  C   C2728     1.0  0.50912  0.05702  0.74625  1.0000
  C   C2729     1.0  0.76238  0.03004  0.54499  1.0000
  C   C2730     1.0  0.76183  0.05662  0.52430  1.0000
  C   C2731     1.0  0.75694  0.03208  0.53235  1.0000
  C   C2732     1.0  0.75653  0.04554  0.52203  1.0000
  N   N225      1.0  0.59728  0.09904  0.84757  1.0000
  H   H2704     1.0  0.76260  0.01960  0.55304  1.0000
  H   H2705     1.0  0.76168  0.06712  0.51638  1.0000
  H   H2706     1.0  0.75293  0.02336  0.53067  1.0000
  H   H2707     1.0  0.75216  0.04739  0.51228  1.0000
  H   H2708     1.0  0.77181  0.06265  0.53842  1.0000
  C   C2733     1.0  0.83187  0.04474  0.52544  1.0000
  C   C2734     1.0  0.59092  0.11474  0.84221  1.0000
  H   H2709     1.0  0.61488  0.06411  0.73317  1.0000
  C   C2735     1.0  0.55306  0.06224  0.68915  1.0000
  H   H2710     1.0  0.81890  0.13677  0.56084  1.0000
  H   H2711     1.0  0.61964  0.10205  0.84189  1.0000
  H   H2712     1.0  0.90331  0.12458  0.54944  1.0000
  H   H2713     1.0  0.79350  0.13237  0.58809  1.0000
  H   H2714     1.0  0.84292  0.08139  0.51667  1.0000
  H   H2715     1.0  0.55065  0.01343  0.69077  1.0000
  H   H2716     1.0  0.51438  0.09795  0.85118  1.0000
  C   C2736     1.0  0.54557  0.11952  0.82419  1.0000
  Fe  Fe462     1.0  0.98160  0.16979  0.69432  1.0000
  C   C2737     1.0  0.71531  0.00434  0.56025  1.0000
  C   C2738     1.0  0.70121  0.00628  0.54233  1.0000
  H   H2717     1.0  0.72939  0.08388  0.97341  1.0000
  S   S925      1.0  0.83465  0.12849  0.50723  1.0000
  H   H2718     1.0  0.87238  0.02603  0.55574  1.0000
  H   H2719     1.0  0.58695  0.06613  0.86055  1.0000
  H   H2720     1.0  0.84451  0.00062  0.63283  1.0000
  H   H2721     1.0  0.97486  0.16428  0.74912  1.0000
  H   H2722     1.0  0.53408  0.01910  0.70376  1.0000
  C   C2739     1.0  0.80305  0.12664  0.53893  1.0000
  C   C2740     1.0  0.81230  0.13310  0.54289  1.0000
  H   H2723     1.0  0.49813  0.07289  0.88492  1.0000
  N   N226      1.0  0.93467  0.09243  0.60205  1.0000
  C   C2741     1.0  0.93773  0.10600  0.59488  1.0000
  C   C2742     1.0  0.94606  0.08013  0.60352  1.0000
  C   C2743     1.0  0.95252  0.10756  0.58912  1.0000
  C   C2744     1.0  0.96099  0.08131  0.59790  1.0000
  C   C2745     1.0  0.96421  0.09514  0.59078  1.0000
  C   C2746     1.0  0.91902  0.09123  0.60784  1.0000
  H   H2724     1.0  0.92867  0.11571  0.59373  1.0000
  H   H2725     1.0  0.94373  0.06933  0.60923  1.0000
  H   H2726     1.0  0.95494  0.11839  0.58372  1.0000
  H   H2727     1.0  0.82630  0.02304  0.59195  1.0000
  H   H2728     1.0  0.52305  0.03752  0.64534  1.0000
  H   H2729     1.0  0.91290  0.09958  0.61464  1.0000
  H   H2730     1.0  0.91340  0.09344  0.59854  1.0000
  H   H2731     1.0  0.91799  0.08013  0.61492  1.0000
  C   C2747     1.0  0.68574  0.05709  0.52124  1.0000
  H   H2732     1.0  0.50845  0.00828  0.83181  1.0000
  S   S926      1.0  0.86260  0.14552  0.51505  1.0000
  H   H2733     1.0  0.97576  0.09628  0.58680  1.0000
  H   H2734     1.0  0.97090  0.17490  0.60320  1.0000
  S   S927      1.0  0.82403  0.05038  0.48646  1.0000
  C   C2748     1.0  0.84147  0.11792  0.48196  1.0000
  H   H2735     1.0  0.54682  0.00172  0.70911  1.0000
  C   C2749     1.0  0.95578  0.14645  0.63549  1.0000
  C   C2750     1.0  0.50574  0.12331  0.81395  1.0000
  S   S928      1.0  0.57782  0.15419  0.89475  1.0000
  H   H2736     1.0  0.87984  0.15451  0.54405  1.0000
  H   H2737     1.0  0.93346  0.15967  0.63515  1.0000
  H   H2738     1.0  0.56017  0.08861  0.76888  1.0000
  C   C2751     1.0  0.88915  0.02829  0.65262  1.0000
  C   C2752     1.0  0.99178  0.00864  0.66573  1.0000
  H   H2739     1.0  0.72420  0.09365  0.49889  1.0000
  H   H2740     1.0  0.87050  0.03885  0.64200  1.0000
  H   H2741     1.0  0.93818  0.08276  0.51696  1.0000
  S   S929      1.0  0.51042  0.04354  0.79526  1.0000
  H   H2742     1.0  0.54690  0.16813  0.82688  1.0000
  N   N227      1.0  0.76889  0.03776  0.61642  1.0000
  C   C2753     1.0  0.77311  0.02325  0.62323  1.0000
  C   C2754     1.0  0.77722  0.04766  0.61525  1.0000
  C   C2755     1.0  0.78605  0.01827  0.62889  1.0000
  C   C2756     1.0  0.79035  0.04303  0.62064  1.0000
  C   C2757     1.0  0.79477  0.02821  0.62753  1.0000
  C   C2758     1.0  0.75504  0.04269  0.61093  1.0000
  H   H2743     1.0  0.76642  0.01543  0.62438  1.0000
  H   H2744     1.0  0.77376  0.05923  0.61019  1.0000
  H   H2745     1.0  0.79695  0.05096  0.61955  1.0000
  H   H2746     1.0  0.75430  0.03472  0.60492  1.0000
  H   H2747     1.0  0.74519  0.04343  0.62035  1.0000
  H   H2748     1.0  0.75441  0.05370  0.60315  1.0000
  N   N228      1.0  0.62231  0.11658  0.91065  1.0000
  C   C2759     1.0  0.63177  0.10538  0.90427  1.0000
  C   C2760     1.0  0.61797  0.11450  0.92571  1.0000
  C   C2761     1.0  0.63743  0.09179  0.91306  1.0000
  C   C2762     1.0  0.62341  0.10107  0.93481  1.0000
  C   C2763     1.0  0.63321  0.08967  0.92842  1.0000
  C   C2764     1.0  0.61638  0.13070  0.90129  1.0000
  H   H2749     1.0  0.63522  0.10703  0.89234  1.0000
  H   H2750     1.0  0.61063  0.12342  0.93079  1.0000
  H   H2751     1.0  0.64518  0.08297  0.90807  1.0000
  H   H2752     1.0  0.62038  0.09967  0.94674  1.0000
  H   H2753     1.0  0.63762  0.07925  0.93537  1.0000
  H   H2754     1.0  0.60571  0.13037  0.89900  1.0000
  H   H2755     1.0  0.61427  0.14005  0.90674  1.0000
  H   H2756     1.0  0.62451  0.13320  0.89064  1.0000
  H   H2757     1.0  0.53474  0.03127  0.72168  1.0000
  C   C2765     1.0  0.94018  0.14877  0.63874  1.0000
  C   C2766     1.0  0.67788  0.13902  0.93797  1.0000
  C   C2767     1.0  0.69505  0.05585  0.53068  1.0000
  S   S930      1.0  0.68947  0.00212  0.82567  1.0000
  C   C2768     1.0  0.83229  0.98520  0.64886  1.0000
  H   H2758     1.0  0.99100  0.18188  0.60970  1.0000
  H   H2759     1.0  0.50007  0.06322  0.94914  1.0000
  H   H2760     1.0  0.89586  0.03624  0.64607  1.0000
  N   N229      1.0  0.55429  0.02080  0.70805  1.0000
  H   H2761     1.0  0.67817  0.02964  0.57980  1.0000
  H   H2762     1.0  0.66648  0.13830  0.93888  1.0000
  H   H2763     1.0  0.93886  0.16989  0.71192  1.0000
  H   H2764     1.0  0.96918  0.12572  0.49231  1.0000
  H   H2765     1.0  0.70035  0.00350  0.53248  1.0000
  C   C2769     1.0  0.95524  0.10979  0.49906  1.0000
  H   H2766     1.0  0.57618  0.03980  0.72255  1.0000
  H   H2767     1.0  0.53420  0.11196  0.84648  1.0000
  H   H2768     1.0  0.55712  0.18063  0.87794  1.0000
  C   C2770     1.0  0.97167  0.14474  0.74481  1.0000
  C   C2771     1.0  0.54911  0.11782  0.80964  1.0000
  N   N230      1.0  0.53161  0.10045  0.83174  1.0000
  N   N231      1.0  0.64185  0.09658  0.64363  1.0000
  C   C2772     1.0  0.58819  0.08914  0.85274  1.0000
  S   S931      1.0  0.53088  0.06840  0.78610  1.0000
  H   H2769     1.0  0.64038  0.00894  0.77075  1.0000
  H   H2770     1.0  0.68200  0.04804  0.50482  1.0000
  H   H2771     1.0  0.81549  0.10830  0.51300  1.0000
  N   N232      1.0  0.63433  0.03198  0.76056  1.0000
  C   C2773     1.0  0.63609  0.04603  0.75860  1.0000
  C   C2774     1.0  0.62903  0.05780  0.74884  1.0000
  C   C2775     1.0  0.62539  0.02928  0.75317  1.0000
  C   C2776     1.0  0.61826  0.04078  0.74322  1.0000
  C   C2777     1.0  0.62017  0.05512  0.74100  1.0000
  H   H2772     1.0  0.62397  0.01816  0.75467  1.0000
  H   H2773     1.0  0.61158  0.03849  0.73703  1.0000
  H   H2774     1.0  0.87365  0.03626  0.56819  1.0000
  H   H2775     1.0  0.62949  0.09451  0.66602  1.0000
  C   C2778     1.0  0.64040  0.09411  0.65859  1.0000
  C   C2779     1.0  0.62854  0.10011  0.63748  1.0000
  H   H2776     1.0  0.65177  0.08858  0.67650  1.0000
  H   H2777     1.0  0.62429  0.11228  0.63465  1.0000
  H   H2778     1.0  0.59134  0.11693  0.83019  1.0000
  C   C2780     1.0  0.90902  0.13185  0.54023  1.0000
  H   H2779     1.0  0.87174  0.10945  0.54406  1.0000
  H   H2780     1.0  0.67125  0.15254  0.95419  1.0000
  C   C2781     1.0  0.65563  0.09638  0.63430  1.0000
  C   C2782     1.0  0.66713  0.09031  0.65518  1.0000
  H   H2781     1.0  0.67702  0.08750  0.65970  1.0000
  H   H2782     1.0  0.61954  0.09491  0.64543  1.0000
  C   C2783     1.0  0.53595  0.17276  0.84835  1.0000
  H   H2783     1.0  0.67943  0.09243  0.63249  1.0000
  H   H2784     1.0  0.87869  0.14767  0.57536  1.0000
  C   C2784     1.0  0.81737  0.04609  0.53421  1.0000
  H   H2785     1.0  0.81280  0.12225  0.58593  1.0000
  S   S932      1.0  0.70636  0.02239  0.50158  1.0000
  H   H2786     1.0  0.76598  0.03205  0.57033  1.0000
  H   H2787     1.0  0.84501  0.11444  0.54317  1.0000
  C   C2785     1.0  0.94228  0.12295  0.65075  1.0000
  S   S933      1.0  0.90052  0.11962  0.52249  1.0000
  C   C2786     1.0  0.86825  0.10374  0.53781  1.0000
  H   H2788     1.0  0.71829  0.14152  0.93507  1.0000
  C   C2787     1.0  0.85323  0.10649  0.53740  1.0000
  C   C2788     1.0  0.80159  0.12273  0.58422  1.0000
  C   C2789     1.0  0.89289  0.99318  0.68173  1.0000
  C   C2790     1.0  0.95344  0.14928  0.73015  1.0000
  C   C2791     1.0  0.81165  0.13172  0.55786  1.0000
  C   C2792     1.0  0.70686  0.14109  0.93575  1.0000
  S   S934      1.0  0.75713  0.07174  0.48741  1.0000
  H   H2789     1.0  0.81997  0.13910  0.53438  1.0000
  C   C2793     1.0  0.61874  0.07913  0.85076  1.0000
  H   H2790     1.0  0.63072  0.07530  0.84978  1.0000
  C   C2794     1.0  0.59417  0.07397  0.85695  1.0000
  C   C2795     1.0  0.69507  0.14796  0.94559  1.0000
  H   H2791     1.0  0.57316  0.14702  0.84811  1.0000
  C   C2796     1.0  0.90925  0.13173  0.52572  1.0000
  H   H2792     1.0  0.71315  0.12732  0.92001  1.0000
  N   N233      1.0  0.85928  0.08943  0.52155  1.0000
  H   H2793     1.0  0.88235  0.07924  0.51548  1.0000
  C   C2797     1.0  0.55288  0.04530  0.67476  1.0000
  H   H2794     1.0  0.68092  0.04280  0.56234  1.0000
  C   C2798     1.0  0.56868  0.14553  0.85991  1.0000
  H   H2795     1.0  0.58457  0.15539  0.86332  1.0000
  C   C2799     1.0  0.70388  0.13306  0.92730  1.0000
  C   C2800     1.0  0.79279  0.11790  0.56482  1.0000
  C   C2801     1.0  0.79320  0.11899  0.54995  1.0000
  H   H2796     1.0  0.80352  0.12765  0.52733  1.0000
  H   H2797     1.0  0.93718  0.11364  0.65689  1.0000
  C   C2802     1.0  0.98074  0.13042  0.63626  1.0000
  C   C2803     1.0  0.85467  0.08268  0.51220  1.0000
  Fe  Fe463     1.0  0.78199  0.06541  0.48549  1.0000
  S   S935      1.0  0.89802  0.16663  0.56761  1.0000
  S   S936      1.0  0.49626  0.07888  0.78133  1.0000
  S   S937      1.0  0.85978  0.15645  0.48014  1.0000
  H   H2798     1.0  0.69126  0.98743  0.69976  1.0000
  Fe  Fe464     1.0  0.70062  0.03014  0.47903  1.0000
  C   C2804     1.0  0.66800  0.99898  0.93792  1.0000
  S   S938      1.0  0.97584  0.16606  0.64524  1.0000
  S   S939      1.0  0.51079  0.12039  0.87721  1.0000
  H   H2799     1.0  0.54850  0.04379  0.73087  1.0000
  C   C2805     1.0  0.92364  0.15083  0.51651  1.0000
  C   C2806     1.0  0.55087  0.09699  0.76446  1.0000
  Fe  Fe465     1.0  0.69798  0.17382  0.96874  1.0000
  C   C2807     1.0  0.92315  0.15117  0.53102  1.0000
  H   H2800     1.0  0.93467  0.11207  0.48082  1.0000
  S   S940      1.0  0.61109  0.17489  0.88698  1.0000
  Fe  Fe466     1.0  0.51667  0.06132  0.77561  1.0000
  H   H2801     1.0  0.89050  0.09167  0.53016  1.0000
  H   H2802     1.0  0.72534  0.99982  0.56470  1.0000
  C   C2808     1.0  0.57523  0.15022  0.86858  1.0000
  Fe  Fe467     1.0  0.80388  0.04992  0.50521  1.0000
  C   C2809     1.0  0.66679  0.98846  0.93110  1.0000
  H   H2803     1.0  0.58974  0.02318  0.70526  1.0000
  H   H2804     1.0  0.53142  0.07181  0.70109  1.0000
  H   H2805     1.0  0.50037  0.05461  0.71527  1.0000
  S   S941      1.0  0.54715  0.13492  0.85522  1.0000
  C   C2810     1.0  0.93341  0.13692  0.64643  1.0000
  C   C2811     1.0  0.68991  0.98673  0.81921  1.0000
  H   H2806     1.0  0.90167  0.17590  0.52355  1.0000
  H   H2807     1.0  0.72316  0.99231  0.54279  1.0000
  H   H2808     1.0  0.72199  0.02632  0.52111  1.0000
  H   H2809     1.0  0.51403  0.12922  0.80655  1.0000
  Fe  Fe468     1.0  0.72521  0.14881  0.97207  1.0000
  H   H2810     1.0  0.92642  0.09805  0.50675  1.0000
  Fe  Fe469     1.0  0.52258  0.13878  0.86515  1.0000
  C   C2812     1.0  0.55605  0.13950  0.86639  1.0000
  C   C2813     1.0  0.82899  0.10053  0.47883  1.0000
  S   S942      1.0  0.53525  0.03834  0.82378  1.0000
  H   H2811     1.0  0.88493  0.16153  0.52438  1.0000
  C   C2814     1.0  0.53733  0.04714  0.67972  1.0000
  C   C2815     1.0  0.71191  0.03496  0.52106  1.0000
  H   H2812     1.0  0.54175  0.04170  0.84996  1.0000
  H   H2813     1.0  0.94751  0.14499  0.72478  1.0000
  C   C2816     1.0  0.53231  0.09613  0.75168  1.0000
  C   C2817     1.0  0.91663  0.14116  0.51386  1.0000
  C   C2818     1.0  0.84276  0.00521  0.60135  1.0000
  S   S943      1.0  0.65843  0.98999  0.85839  1.0000
  N   N234      1.0  0.86370  0.01782  0.57849  1.0000
  S   S944      1.0  0.52794  0.03689  0.67431  1.0000
  H   H2814     1.0  0.74242  0.10239  0.47803  1.0000
  H   H2815     1.0  0.94426  0.08874  0.49733  1.0000
  H   H2816     1.0  0.53680  0.08159  0.72201  1.0000
  H   H2817     1.0  0.96465  0.11010  0.65051  1.0000
  N   N235      1.0  0.94513  0.10320  0.51023  1.0000
  C   C2819     1.0  0.49883  0.05572  0.72644  1.0000
  H   H2818     1.0  0.70752  0.12206  0.97322  1.0000
  Fe  Fe470     1.0  0.90985  0.98418  0.62059  1.0000
  C   C2820     1.0  0.55440  0.08097  0.73224  1.0000
  Fe  Fe471     1.0  0.81214  0.07368  0.47840  1.0000
  C   C2821     1.0  0.73861  0.06073  0.47855  1.0000
  S   S945      1.0  0.99239  0.14723  0.70570  1.0000
  H   H2819     1.0  0.68006  0.02185  0.54404  1.0000
  H   H2820     1.0  0.51304  0.06101  0.65370  1.0000
  H   H2821     1.0  0.83461  0.00039  0.61039  1.0000
  S   S946      1.0  0.79301  0.07382  0.49820  1.0000
  C   C2822     1.0  0.71996  0.98669  0.69108  1.0000
  H   H2822     1.0  0.88019  0.00013  0.58750  1.0000
  H   H2823     1.0  0.65784  0.99411  0.82676  1.0000
  H   H2824     1.0  0.50958  0.03064  0.63046  1.0000
  S   S947      1.0  0.87840  0.12253  0.49260  1.0000
  H   H2825     1.0  0.68228  0.01226  0.93901  1.0000
  H   H2826     1.0  0.86605  0.99914  0.67529  1.0000
  S   S948      1.0  0.93110  0.16389  0.53434  1.0000
  C   C2823     1.0  0.94702  0.11720  0.52640  1.0000
  H   H2827     1.0  0.68973  0.98814  0.71841  1.0000
  H   H2828     1.0  0.98625  0.11943  0.63351  1.0000
  H   H2829     1.0  0.75848  0.99272  0.59299  1.0000
  C   C2824     1.0  0.95828  0.16954  0.73602  1.0000
  H   H2830     1.0  0.69056  0.07618  0.49215  1.0000
  C   C2825     1.0  0.93989  0.17442  0.72090  1.0000
  C   C2826     1.0  0.50538  0.04106  0.63398  1.0000
  H   H2831     1.0  0.65858  0.00365  0.94584  1.0000
  H   H2832     1.0  0.98221  0.00461  0.63604  1.0000
  C   C2827     1.0  0.71852  0.98516  0.71642  1.0000
  H   H2833     1.0  0.98472  0.13891  0.62658  1.0000
  C   C2828     1.0  0.53703  0.17818  0.85991  1.0000
  H   H2834     1.0  0.52640  0.16835  0.84932  1.0000
  H   H2835     1.0  0.52818  0.17788  0.86980  1.0000
  C   C2829     1.0  0.54743  0.17275  0.83570  1.0000
  H   H2836     1.0  0.56896  0.17805  0.82507  1.0000
  H   H2837     1.0  0.90522  0.98963  0.67791  1.0000
  H   H2838     1.0  0.74100  0.98950  0.67604  1.0000
  S   S949      1.0  0.67773  0.18084  0.95866  1.0000
  S   S950      1.0  0.92399  0.18259  0.56809  1.0000
  Fe  Fe472     1.0  0.90011  0.18267  0.57938  1.0000
  H   H2839     1.0  0.85922  0.18081  0.55334  1.0000
  Fe  Fe473     1.0  0.72791  0.18108  0.96493  1.0000
  H   H2840     1.0  0.98000  0.13717  0.75067  1.0000
  H   H2841     1.0  0.75490  0.18251  0.97472  1.0000
  H   H2842     1.0  0.90978  0.12698  0.47802  1.0000
  H   H2843     1.0  0.81716  0.30168  0.00925  1.0000
  C   C2830     1.0  0.86625  0.35648  0.38118  1.0000
  Fe  Fe474     1.0  0.89046  0.27152  0.98488  1.0000
  S   S951      1.0  0.87717  0.28587  0.00074  1.0000
  H   H2844     1.0  0.86558  0.36147  0.39019  1.0000
  C   C2831     1.0  0.95123  0.27775  0.08128  1.0000
  H   H2845     1.0  0.95278  0.30004  0.39732  1.0000
  Fe  Fe475     1.0  0.89923  0.28557  0.00469  1.0000
  S   S952      1.0  0.90135  0.27930  0.02846  1.0000
  H   H2846     1.0  0.97609  0.22945  0.35352  1.0000
  S   S953      1.0  0.91252  0.26974  0.99007  1.0000
  H   H2847     1.0  0.78419  0.22019  0.06684  1.0000
  H   H2848     1.0  0.78023  0.34166  0.16725  1.0000
  H   H2849     1.0  0.56583  0.30046  0.13636  1.0000
  S   S954      1.0  0.77478  0.26377  0.01325  1.0000
  C   C2832     1.0  0.94558  0.26551  0.12800  1.0000
  S   S955      1.0  0.75150  0.19486  0.03384  1.0000
  S   S956      1.0  0.91399  0.24961  0.45916  1.0000
  H   H2850     1.0  0.74379  0.23658  0.08681  1.0000
  C   C2833     1.0  0.88143  0.37379  0.31809  1.0000
  H   H2851     1.0  0.77551  0.36434  0.10967  1.0000
  C   C2834     1.0  0.75671  0.25085  0.08870  1.0000
  C   C2835     1.0  0.65336  0.19409  0.12017  1.0000
  S   S957      1.0  0.52015  0.24123  0.12254  1.0000
  H   H2852     1.0  0.81896  0.34630  0.26230  1.0000
  H   H2853     1.0  0.96675  0.22122  0.40707  1.0000
  Fe  Fe476     1.0  0.52308  0.26192  0.12672  1.0000
  S   S958      1.0  0.54680  0.26549  0.11811  1.0000
  H   H2854     1.0  0.75366  0.24538  0.01239  1.0000
  H   H2855     1.0  0.79216  0.23354  0.01957  1.0000
  H   H2856     1.0  0.61510  0.29409  0.10802  1.0000
  C   C2836     1.0  0.60430  0.29416  0.10637  1.0000
  Fe  Fe477     1.0  0.88318  0.35833  0.28840  1.0000
  S   S959      1.0  0.88517  0.34691  0.31169  1.0000
  Fe  Fe478     1.0  0.89738  0.35243  0.25802  1.0000
  S   S960      1.0  0.91471  0.33408  0.24901  1.0000
  S   S961      1.0  0.87685  0.34692  0.27453  1.0000
  Fe  Fe479     1.0  0.97355  0.32344  0.29920  1.0000
  S   S962      1.0  0.97299  0.31063  0.28335  1.0000
  S   S963      1.0  0.95471  0.34195  0.30566  1.0000
  S   S964      1.0  0.50301  0.27643  0.11780  1.0000
  S   S965      1.0  0.51031  0.21559  0.16053  1.0000
  C   C2837     1.0  0.97670  0.26884  0.38808  1.0000
  H   H2857     1.0  0.98018  0.28294  0.24530  1.0000
  Fe  Fe480     1.0  0.98038  0.29044  0.30030  1.0000
  S   S966      1.0  0.97112  0.26995  0.30954  1.0000
  C   C2838     1.0  0.87262  0.33466  0.37120  1.0000
  H   H2858     1.0  0.84317  0.28488  0.00204  1.0000
  H   H2859     1.0  0.79704  0.27429  0.04784  1.0000
  C   C2839     1.0  0.67354  0.33631  0.17396  1.0000
  H   H2860     1.0  0.98026  0.25706  0.39244  1.0000
  C   C2840     1.0  0.57659  0.29461  0.10219  1.0000
  C   C2841     1.0  0.59577  0.20771  0.19040  1.0000
  C   C2842     1.0  0.83985  0.36846  0.24639  1.0000
  C   C2843     1.0  0.97867  0.25978  0.32507  1.0000
  C   C2844     1.0  0.69879  0.27038  0.09338  1.0000
  C   C2845     1.0  0.90443  0.33738  0.45178  1.0000
  Fe  Fe481     1.0  0.82977  0.26417  0.08547  1.0000
  S   S967      1.0  0.79128  0.37061  0.21269  1.0000
  C   C2846     1.0  0.71275  0.24982  0.10853  1.0000
  S   S968      1.0  0.97307  0.20426  0.38210  1.0000
  Fe  Fe482     1.0  0.73978  0.33196  0.14247  1.0000
  S   S969      1.0  0.71907  0.32594  0.15833  1.0000
  S   S970      1.0  0.76129  0.31489  0.14206  1.0000
  Fe  Fe483     1.0  0.72461  0.36429  0.13313  1.0000
  S   S971      1.0  0.70265  0.36085  0.14804  1.0000
  C   C2847     1.0  0.95100  0.34274  0.35361  1.0000
  Fe  Fe484     1.0  0.71644  0.34735  0.16470  1.0000
  S   S972      1.0  0.70996  0.34996  0.18830  1.0000
  Fe  Fe485     1.0  0.70741  0.33975  0.14014  1.0000
  S   S973      1.0  0.69029  0.33379  0.13172  1.0000
  S   S974      1.0  0.73795  0.35220  0.15021  1.0000
  S   S975      1.0  0.72850  0.34435  0.12370  1.0000
  Fe  Fe486     1.0  0.64620  0.27044  0.14640  1.0000
  S   S976      1.0  0.62912  0.28506  0.13350  1.0000
  S   S977      1.0  0.66092  0.27739  0.15699  1.0000
  Fe  Fe487     1.0  0.64159  0.24224  0.14118  1.0000
  S   S978      1.0  0.62511  0.25456  0.12708  1.0000
  S   S979      1.0  0.64769  0.21738  0.14608  1.0000
  Fe  Fe488     1.0  0.64032  0.27031  0.11741  1.0000
  S   S980      1.0  0.64510  0.28072  0.09330  1.0000
  Fe  Fe489     1.0  0.61517  0.26791  0.14444  1.0000
  S   S981      1.0  0.59007  0.27219  0.15384  1.0000
  S   S982      1.0  0.65812  0.25661  0.12962  1.0000
  S   S983      1.0  0.63109  0.25468  0.15922  1.0000
  Fe  Fe490     1.0  0.82069  0.27731  0.05623  1.0000
  S   S984      1.0  0.82727  0.27651  0.03225  1.0000
  Fe  Fe491     1.0  0.81338  0.29592  0.07894  1.0000
  S   S985      1.0  0.80925  0.31896  0.08211  1.0000
  S   S986      1.0  0.83501  0.28349  0.06738  1.0000
  Fe  Fe492     1.0  0.90011  0.27050  0.46598  1.0000
  H   H2861     1.0  0.81899  0.32888  0.24776  1.0000
  H   H2862     1.0  0.94916  0.29004  0.07792  1.0000
  Fe  Fe493     1.0  0.80324  0.35847  0.17540  1.0000
  S   S987      1.0  0.80180  0.34202  0.19709  1.0000
  S   S988      1.0  0.80994  0.35109  0.15394  1.0000
  Fe  Fe494     1.0  0.78043  0.35772  0.20440  1.0000
  S   S989      1.0  0.75977  0.35107  0.21966  1.0000
  Fe  Fe495     1.0  0.81286  0.35635  0.20336  1.0000
  S   S990      1.0  0.83172  0.34518  0.21516  1.0000
  H   H2863     1.0  0.79656  0.36641  0.26708  1.0000
  H   H2864     1.0  0.85232  0.24322  0.99470  1.0000
  Fe  Fe496     1.0  0.89016  0.31899  0.11947  1.0000
  S   S991      1.0  0.90865  0.29894  0.12314  1.0000
  S   S992      1.0  0.88020  0.32856  0.13959  1.0000
  Fe  Fe497     1.0  0.89421  0.31862  0.08728  1.0000
  S   S993      1.0  0.91342  0.29895  0.08837  1.0000
  S   S994      1.0  0.88634  0.32796  0.06590  1.0000
  Fe  Fe498     1.0  0.89885  0.29011  0.10972  1.0000
  S   S995      1.0  0.89661  0.26652  0.11622  1.0000
  Fe  Fe499     1.0  0.92113  0.30998  0.10156  1.0000
  S   S996      1.0  0.94535  0.31109  0.09600  1.0000
  S   S997      1.0  0.87911  0.30908  0.10809  1.0000
  S   S998      1.0  0.90324  0.33069  0.09851  1.0000
  H   H2865     1.0  0.64680  0.18682  0.15390  1.0000
  H   H2866     1.0  0.92844  0.35485  0.35298  1.0000
  Fe  Fe500     1.0  0.96017  0.33058  0.17633  1.0000
  S   S999      1.0  0.96415  0.30620  0.17817  1.0000
  S   S1000     1.0  0.93713  0.34510  0.17981  1.0000
  Fe  Fe501     1.0  0.73988  0.20146  0.05529  1.0000
  H   H2867     1.0  0.59391  0.19653  0.19415  1.0000
  H   H2868     1.0  0.52601  0.20435  0.13259  1.0000
  H   H2869     1.0  0.99036  0.28803  0.34579  1.0000
  C   C2848     1.0  0.58957  0.29002  0.09194  1.0000
  S   S1001     1.0  0.97820  0.33484  0.15606  1.0000
  C   C2849     1.0  0.61792  0.21683  0.15064  1.0000
  C   C2850     1.0  0.95632  0.30819  0.10895  1.0000
  C   C2851     1.0  0.97149  0.30824  0.10340  1.0000
  C   C2852     1.0  0.98099  0.30573  0.11296  1.0000
  C   C2853     1.0  0.97541  0.30352  0.12824  1.0000
  C   C2854     1.0  0.96015  0.30349  0.13396  1.0000
  C   C2855     1.0  0.95060  0.30566  0.12430  1.0000
  H   H2870     1.0  0.97601  0.31011  0.09159  1.0000
  C   C2856     1.0  0.97975  0.23931  0.34667  1.0000
  H   H2871     1.0  0.95585  0.30147  0.14580  1.0000
  H   H2872     1.0  0.93891  0.30547  0.12869  1.0000
  C   C2857     1.0  0.82942  0.34450  0.14986  1.0000
  C   C2858     1.0  0.83760  0.34219  0.16058  1.0000
  C   C2859     1.0  0.85319  0.33738  0.15726  1.0000
  C   C2860     1.0  0.86068  0.33469  0.14327  1.0000
  C   C2861     1.0  0.85252  0.33675  0.13257  1.0000
  C   C2862     1.0  0.83687  0.34166  0.13587  1.0000
  H   H2873     1.0  0.83193  0.34405  0.17148  1.0000
  H   H2874     1.0  0.85945  0.33569  0.16560  1.0000
  H   H2875     1.0  0.85828  0.33488  0.12167  1.0000
  H   H2876     1.0  0.83058  0.34354  0.12753  1.0000
  C   C2863     1.0  0.88358  0.26208  0.10923  1.0000
  C   C2864     1.0  0.86300  0.26883  0.09654  1.0000
  C   C2865     1.0  0.87401  0.27286  0.10086  1.0000
  H   H2877     1.0  0.85549  0.27716  0.09028  1.0000
  H   H2878     1.0  0.87492  0.28428  0.09792  1.0000
  C   C2866     1.0  0.66181  0.27121  0.08365  1.0000
  C   C2867     1.0  0.66859  0.27848  0.06976  1.0000
  S   S1002     1.0  0.80232  0.24256  0.98471  1.0000
  C   C2868     1.0  0.66874  0.25680  0.08986  1.0000
  H   H2879     1.0  0.66327  0.28960  0.06491  1.0000
  H   H2880     1.0  0.66340  0.25099  0.10045  1.0000
  H   H2881     1.0  0.61561  0.22878  0.14778  1.0000
  C   C2869     1.0  0.77487  0.31727  0.12564  1.0000
  C   C2870     1.0  0.77185  0.32844  0.11331  1.0000
  C   C2871     1.0  0.78273  0.32952  0.10003  1.0000
  C   C2872     1.0  0.79650  0.31931  0.09910  1.0000
  C   C2873     1.0  0.79962  0.30846  0.11157  1.0000
  C   C2874     1.0  0.78887  0.30749  0.12484  1.0000
  H   H2882     1.0  0.76110  0.33610  0.11390  1.0000
  H   H2883     1.0  0.78026  0.33788  0.09035  1.0000
  H   H2884     1.0  0.81029  0.30067  0.11086  1.0000
  H   H2885     1.0  0.79126  0.29890  0.13440  1.0000
  C   C2875     1.0  0.72419  0.35020  0.19661  1.0000
  C   C2876     1.0  0.72042  0.35124  0.21143  1.0000
  C   C2877     1.0  0.73141  0.35137  0.21845  1.0000
  C   C2878     1.0  0.74625  0.35070  0.21064  1.0000
  C   C2879     1.0  0.75007  0.34988  0.19576  1.0000
  C   C2880     1.0  0.73910  0.34945  0.18882  1.0000
  H   H2886     1.0  0.70897  0.35178  0.21758  1.0000
  H   H2887     1.0  0.72838  0.35201  0.22996  1.0000
  H   H2888     1.0  0.76156  0.34916  0.18975  1.0000
  H   H2889     1.0  0.74228  0.34830  0.17757  1.0000
  C   C2881     1.0  0.68264  0.31778  0.13870  1.0000
  C   C2882     1.0  0.67238  0.31596  0.13171  1.0000
  C   C2883     1.0  0.66570  0.30362  0.13711  1.0000
  C   C2884     1.0  0.66921  0.29298  0.14960  1.0000
  C   C2885     1.0  0.67954  0.29477  0.15653  1.0000
  C   C2886     1.0  0.68625  0.30708  0.15111  1.0000
  H   H2890     1.0  0.66944  0.32423  0.12216  1.0000
  H   H2891     1.0  0.65761  0.30251  0.13180  1.0000
  H   H2892     1.0  0.68230  0.28659  0.16621  1.0000
  H   H2893     1.0  0.69411  0.30832  0.15662  1.0000
  C   C2887     1.0  0.84545  0.29876  0.13632  1.0000
  H   H2894     1.0  0.85491  0.33205  0.43360  1.0000
  C   C2888     1.0  0.86853  0.29035  0.14576  1.0000
  C   C2889     1.0  0.78637  0.21013  0.01469  1.0000
  C   C2890     1.0  0.76678  0.36553  0.15087  1.0000
  S   S1003     1.0  0.98829  0.29943  0.13957  1.0000
  C   C2891     1.0  0.68244  0.27158  0.06225  1.0000
  C   C2892     1.0  0.86563  0.32459  0.43453  1.0000
  H   H2895     1.0  0.85574  0.30711  0.44975  1.0000
  H   H2896     1.0  0.77822  0.19718  0.06571  1.0000
  H   H2897     1.0  0.70463  0.22215  0.02664  1.0000
  C   C2893     1.0  0.85270  0.37379  0.19237  1.0000
  H   H2898     1.0  0.84429  0.30973  0.13798  1.0000
  Fe  Fe502     1.0  0.97793  0.19382  0.40457  1.0000
  C   C2894     1.0  0.86801  0.34345  0.35839  1.0000
  S   S1004     1.0  0.90612  0.35160  0.37829  1.0000
  H   H2899     1.0  0.96611  0.27263  0.12421  1.0000
  N   N236      1.0  0.57753  0.29858  0.11440  1.0000
  C   C2895     1.0  0.97392  0.24701  0.33403  1.0000
  H   H2900     1.0  0.85174  0.28786  0.98288  1.0000
  Fe  Fe503     1.0  0.74290  0.20708  0.08351  1.0000
  C   C2896     1.0  0.52091  0.20165  0.11323  1.0000
  H   H2901     1.0  0.96573  0.24308  0.33122  1.0000
  C   C2897     1.0  0.95340  0.34220  0.32407  1.0000
  C   C2898     1.0  0.98325  0.27514  0.37365  1.0000
  H   H2902     1.0  0.86801  0.26483  0.14061  1.0000
  H   H2903     1.0  0.99192  0.26808  0.36715  1.0000
  C   C2899     1.0  0.62363  0.18591  0.15840  1.0000
  S   S1005     1.0  0.88856  0.38128  0.39076  1.0000
  H   H2904     1.0  0.62331  0.22615  0.18115  1.0000
  H   H2905     1.0  0.79108  0.23850  0.04366  1.0000
  H   H2906     1.0  0.62063  0.18732  0.18911  1.0000
  H   H2907     1.0  0.94313  0.35254  0.21652  1.0000
  Fe  Fe504     1.0  0.71803  0.22631  0.06857  1.0000
  N   N237      1.0  0.60982  0.21013  0.18790  1.0000
  C   C2900     1.0  0.71047  0.25782  0.09457  1.0000
  C   C2901     1.0  0.94915  0.22723  0.44687  1.0000
  C   C2902     1.0  0.84304  0.29310  0.99137  1.0000
  N   N238      1.0  0.95387  0.37756  0.30792  1.0000
  C   C2903     1.0  0.84947  0.35517  0.24359  1.0000
  C   C2904     1.0  0.84695  0.34817  0.23385  1.0000
  C   C2905     1.0  0.83495  0.35454  0.22675  1.0000
  C   C2906     1.0  0.96583  0.33606  0.33055  1.0000
  S   S1006     1.0  0.74228  0.18658  0.07721  1.0000
  H   H2908     1.0  0.85876  0.35020  0.24902  1.0000
  H   H2909     1.0  0.85431  0.33778  0.23186  1.0000
  C   C2907     1.0  0.84790  0.27071  0.13245  1.0000
  C   C2908     1.0  0.96461  0.33631  0.34531  1.0000
  C   C2909     1.0  0.91956  0.33668  0.22971  1.0000
  C   C2910     1.0  0.93109  0.32620  0.22336  1.0000
  C   C2911     1.0  0.93610  0.32857  0.20799  1.0000
  C   C2912     1.0  0.92958  0.34142  0.19888  1.0000
  C   C2913     1.0  0.91770  0.35170  0.20517  1.0000
  C   C2914     1.0  0.91271  0.34935  0.22061  1.0000
  H   H2910     1.0  0.93636  0.31632  0.23032  1.0000
  H   H2911     1.0  0.94511  0.32044  0.20323  1.0000
  H   H2912     1.0  0.91266  0.36166  0.19816  1.0000
  H   H2913     1.0  0.90379  0.35745  0.22543  1.0000
  C   C2915     1.0  0.55860  0.26523  0.12939  1.0000
  C   C2916     1.0  0.55305  0.26823  0.14352  1.0000
  C   C2917     1.0  0.56288  0.26975  0.15125  1.0000
  C   C2918     1.0  0.57827  0.26815  0.14495  1.0000
  C   C2919     1.0  0.58380  0.26440  0.13116  1.0000
  C   C2920     1.0  0.57402  0.26297  0.12344  1.0000
  H   H2914     1.0  0.54114  0.27005  0.14820  1.0000
  H   H2915     1.0  0.55846  0.27269  0.16191  1.0000
  H   H2916     1.0  0.59549  0.26330  0.12605  1.0000
  H   H2917     1.0  0.57841  0.26059  0.11253  1.0000
  C   C2921     1.0  0.66458  0.36091  0.16035  1.0000
  C   C2922     1.0  0.86175  0.25400  0.10041  1.0000
  C   C2923     1.0  0.93508  0.26384  0.12136  1.0000
  C   C2924     1.0  0.96809  0.29885  0.37623  1.0000
  H   H2918     1.0  0.71499  0.21272  0.00348  1.0000
  S   S1007     1.0  0.81714  0.25676  0.07335  1.0000
  C   C2925     1.0  0.74402  0.22636  0.00386  1.0000
  H   H2919     1.0  0.68804  0.23874  0.08711  1.0000
  S   S1008     1.0  0.80904  0.27696  0.09805  1.0000
  H   H2920     1.0  0.86891  0.33857  0.34922  1.0000
  C   C2926     1.0  0.56853  0.20000  0.14586  1.0000
  C   C2927     1.0  0.60038  0.23630  0.18018  1.0000
  H   H2921     1.0  0.94713  0.33945  0.24092  1.0000
  N   N239      1.0  0.79666  0.33864  0.24494  1.0000
  S   S1009     1.0  0.95279  0.25583  0.43949  1.0000
  C   C2928     1.0  0.94518  0.37999  0.29797  1.0000
  H   H2922     1.0  0.53719  0.21873  0.16474  1.0000
  H   H2923     1.0  0.77638  0.26995  0.04007  1.0000
  S   S1010     1.0  0.97842  0.30337  0.31683  1.0000
  S   S1011     1.0  0.76109  0.20667  0.09432  1.0000
  C   C2929     1.0  0.78962  0.26662  0.01870  1.0000
  C   C2930     1.0  0.80380  0.26588  0.00928  1.0000
  C   C2931     1.0  0.81558  0.26815  0.01377  1.0000
  C   C2932     1.0  0.81310  0.27161  0.02753  1.0000
  H   H2924     1.0  0.80572  0.26374  0.99844  1.0000
  H   H2925     1.0  0.82652  0.26752  0.00643  1.0000
  C   C2933     1.0  0.89809  0.29316  0.03822  1.0000
  C   C2934     1.0  0.89794  0.28886  0.05336  1.0000
  C   C2935     1.0  0.89434  0.29953  0.06183  1.0000
  C   C2936     1.0  0.89120  0.31460  0.05516  1.0000
  C   C2937     1.0  0.89133  0.31895  0.03999  1.0000
  C   C2938     1.0  0.89476  0.30823  0.03150  1.0000
  H   H2926     1.0  0.90034  0.27724  0.05866  1.0000
  H   H2927     1.0  0.89357  0.29604  0.07360  1.0000
  H   H2928     1.0  0.88879  0.33059  0.03479  1.0000
  H   H2929     1.0  0.89476  0.31162  0.01983  1.0000
  S   S1012     1.0  0.90231  0.30594  0.98698  1.0000
  C   C2939     1.0  0.78905  0.22553  0.02965  1.0000
  C   C2940     1.0  0.93879  0.34938  0.34690  1.0000
  H   H2930     1.0  0.76989  0.33273  0.16047  1.0000
  N   N240      1.0  0.78560  0.21289  0.02909  1.0000
  H   H2931     1.0  0.78865  0.30566  0.98038  1.0000
  H   H2932     1.0  0.74853  0.26092  0.08591  1.0000
  C   C2941     1.0  0.78854  0.22838  0.04323  1.0000
  C   C2942     1.0  0.95069  0.21345  0.44375  1.0000
  H   H2933     1.0  0.77936  0.19256  0.04138  1.0000
  C   C2943     1.0  0.55081  0.22836  0.14454  1.0000
  H   H2934     1.0  0.78188  0.22049  0.00718  1.0000
  C   C2944     1.0  0.86608  0.31048  0.44373  1.0000
  C   C2945     1.0  0.76436  0.22404  0.09323  1.0000
  Fe  Fe505     1.0  0.92693  0.35616  0.38097  1.0000
  C   C2946     1.0  0.81589  0.30134  0.99855  1.0000
  S   S1013     1.0  0.96050  0.19370  0.42569  1.0000
  C   C2947     1.0  0.78137  0.20515  0.05557  1.0000
  Fe  Fe506     1.0  0.89602  0.35715  0.40045  1.0000
  C   C2948     1.0  0.96131  0.29291  0.39074  1.0000
  Fe  Fe507     1.0  0.49896  0.25526  0.11600  1.0000
  S   S1014     1.0  0.59389  0.18496  0.16757  1.0000
  C   C2949     1.0  0.73564  0.21980  0.99881  1.0000
  H   H2935     1.0  0.55987  0.31568  0.12177  1.0000
  H   H2936     1.0  0.98383  0.23574  0.43970  1.0000
  S   S1015     1.0  0.71798  0.21353  0.09196  1.0000
  C   C2950     1.0  0.88946  0.33748  0.45316  1.0000
  C   C2951     1.0  0.62234  0.19761  0.19084  1.0000
  C   C2952     1.0  0.57266  0.21155  0.13420  1.0000
  C   C2953     1.0  0.59115  0.29850  0.11652  1.0000
  C   C2954     1.0  0.78410  0.34944  0.24785  1.0000
  H   H2937     1.0  0.88260  0.21395  0.46328  1.0000
  C   C2955     1.0  0.95465  0.35361  0.21335  1.0000
  C   C2956     1.0  0.90591  0.31560  0.47164  1.0000
  C   C2957     1.0  0.50001  0.19003  0.16963  1.0000
  H   H2938     1.0  0.90411  0.22202  0.46096  1.0000
  Fe  Fe508     1.0  0.50638  0.23833  0.14565  1.0000
  C   C2958     1.0  0.80149  0.30441  0.99599  1.0000
  C   C2959     1.0  0.79903  0.27194  0.03709  1.0000
  H   H2939     1.0  0.84101  0.37255  0.19451  1.0000
  S   S1016     1.0  0.71493  0.20782  0.06095  1.0000
  H   H2940     1.0  0.74038  0.21544  0.98889  1.0000
  C   C2960     1.0  0.60351  0.28979  0.09408  1.0000
  C   C2961     1.0  0.82784  0.37480  0.23932  1.0000
  C   C2962     1.0  0.56362  0.22579  0.13348  1.0000
  H   H2941     1.0  0.96276  0.27305  0.07567  1.0000
  H   H2942     1.0  0.56654  0.23483  0.12440  1.0000
  C   C2963     1.0  0.77874  0.33917  0.15726  1.0000
  H   H2943     1.0  0.57702  0.24321  0.17963  1.0000
  C   C2964     1.0  0.72411  0.23040  0.02452  1.0000
  C   C2965     1.0  0.74720  0.23834  0.02172  1.0000
  H   H2944     1.0  0.71954  0.23440  0.03467  1.0000
  H   H2945     1.0  0.52231  0.21256  0.10674  1.0000
  C   C2966     1.0  0.77802  0.35234  0.13171  1.0000
  C   C2967     1.0  0.67791  0.34250  0.18307  1.0000
  H   H2946     1.0  0.90957  0.34576  0.44344  1.0000
  H   H2947     1.0  0.75505  0.22941  0.02762  1.0000
  C   C2968     1.0  0.99206  0.29758  0.24821  1.0000
  S   S1017     1.0  0.91726  0.35966  0.40425  1.0000
  H   H2948     1.0  0.96128  0.32467  0.23386  1.0000
  Fe  Fe509     1.0  0.91049  0.38357  0.39287  1.0000
  S   S1018     1.0  0.79958  0.29179  0.06593  1.0000
  H   H2949     1.0  0.90384  0.35713  0.34898  1.0000
  H   H2950     1.0  0.90378  0.29779  0.43863  1.0000
  N   N241      1.0  0.73811  0.23180  0.01643  1.0000
  H   H2951     1.0  0.78958  0.33222  0.15268  1.0000
  C   C2969     1.0  0.93717  0.26772  0.10595  1.0000
  C   C2970     1.0  0.95978  0.27469  0.10380  1.0000
  H   H2952     1.0  0.90296  0.32294  0.42197  1.0000
  H   H2953     1.0  0.96471  0.31063  0.37174  1.0000
  Fe  Fe510     1.0  0.93335  0.25867  0.45861  1.0000
  C   C2971     1.0  0.91304  0.18826  0.45286  1.0000
  S   S1019     1.0  0.51052  0.25815  0.15043  1.0000
  C   C2972     1.0  0.63544  0.19321  0.15415  1.0000
  C   C2973     1.0  0.94762  0.38104  0.32145  1.0000
  H   H2954     1.0  0.97277  0.36459  0.29580  1.0000
  C   C2974     1.0  0.85318  0.25076  0.98397  1.0000
  S   S1020     1.0  0.87717  0.34755  0.41645  1.0000
  C   C2975     1.0  0.51648  0.19229  0.10733  1.0000
  H   H2955     1.0  0.71757  0.25423  0.08468  1.0000
  C   C2976     1.0  0.97886  0.34745  0.21844  1.0000
  H   H2956     1.0  0.55482  0.29807  0.12536  1.0000
  H   H2957     1.0  0.55810  0.18869  0.17741  1.0000
  N   N242      1.0  0.77476  0.35279  0.14632  1.0000
  H   H2958     1.0  0.64572  0.20472  0.11776  1.0000
  C   C2977     1.0  0.56384  0.30349  0.12496  1.0000
  C   C2978     1.0  0.77771  0.22480  0.09611  1.0000
  H   H2959     1.0  0.94329  0.27412  0.07728  1.0000
  H   H2960     1.0  0.58881  0.28655  0.08246  1.0000
  C   C2979     1.0  0.87978  0.30083  0.44542  1.0000
  H   H2961     1.0  0.75021  0.18873  0.00687  1.0000
  H   H2962     1.0  0.59466  0.21585  0.15574  1.0000
  C   C2980     1.0  0.68261  0.24980  0.08226  1.0000
  Fe  Fe511     1.0  0.98326  0.31009  0.15892  1.0000
  C   C2981     1.0  0.60605  0.20949  0.15515  1.0000
  C   C2982     1.0  0.99013  0.24457  0.35045  1.0000
  C   C2983     1.0  0.75397  0.23711  0.08927  1.0000
  C   C2984     1.0  0.63263  0.20868  0.15044  1.0000
  H   H2963     1.0  0.78423  0.34221  0.12815  1.0000
  H   H2964     1.0  0.59192  0.30153  0.12625  1.0000
  C   C2985     1.0  0.89315  0.30527  0.43750  1.0000
  N   N243      1.0  0.68948  0.27472  0.10578  1.0000
  N   N244      1.0  0.55577  0.20257  0.15650  1.0000
  C   C2986     1.0  0.69184  0.26714  0.11951  1.0000
  C   C2987     1.0  0.68953  0.25730  0.06851  1.0000
  C   C2988     1.0  0.70343  0.25452  0.12111  1.0000
  N   N245      1.0  0.94941  0.27307  0.09738  1.0000
  C   C2989     1.0  0.67726  0.28789  0.10440  1.0000
  H   H2965     1.0  0.79099  0.23906  0.09728  1.0000
  H   H2966     1.0  0.68459  0.27071  0.12935  1.0000
  H   H2967     1.0  0.87994  0.28430  0.14122  1.0000
  H   H2968     1.0  0.70508  0.24839  0.13203  1.0000
  H   H2969     1.0  0.94811  0.18822  0.38072  1.0000
  H   H2970     1.0  0.67428  0.29080  0.09343  1.0000
  H   H2971     1.0  0.66696  0.28586  0.11280  1.0000
  H   H2972     1.0  0.68049  0.29744  0.10597  1.0000
  H   H2973     1.0  0.86877  0.30229  0.14283  1.0000
  H   H2974     1.0  0.86594  0.28672  0.15799  1.0000
  H   H2975     1.0  0.95210  0.36765  0.19201  1.0000
  C   C2990     1.0  0.83466  0.29623  0.13060  1.0000
  H   H2976     1.0  0.72173  0.23999  0.10959  1.0000
  C   C2991     1.0  0.78466  0.21811  0.05625  1.0000
  H   H2977     1.0  0.57275  0.21750  0.18901  1.0000
  N   N246      1.0  0.86207  0.36506  0.36845  1.0000
  C   C2992     1.0  0.58613  0.23391  0.18222  1.0000
  H   H2978     1.0  0.53958  0.19256  0.17368  1.0000
  N   N247      1.0  0.87568  0.25057  0.05068  1.0000
  C   C2993     1.0  0.88546  0.24962  0.03738  1.0000
  C   C2994     1.0  0.86120  0.24955  0.05273  1.0000
  C   C2995     1.0  0.88069  0.24801  0.02560  1.0000
  C   C2996     1.0  0.85609  0.24783  0.04120  1.0000
  C   C2997     1.0  0.86588  0.24723  0.02750  1.0000
  C   C2998     1.0  0.88057  0.25277  0.06286  1.0000
  H   H2979     1.0  0.89699  0.25026  0.03573  1.0000
  H   H2980     1.0  0.85352  0.25010  0.06334  1.0000
  H   H2981     1.0  0.88843  0.24749  0.01501  1.0000
  H   H2982     1.0  0.84456  0.24719  0.04280  1.0000
  H   H2983     1.0  0.86202  0.24619  0.01834  1.0000
  H   H2984     1.0  0.87916  0.24342  0.07259  1.0000
  H   H2985     1.0  0.89249  0.25358  0.05972  1.0000
  H   H2986     1.0  0.87375  0.26322  0.06612  1.0000
  C   C2999     1.0  0.88800  0.35867  0.32101  1.0000
  C   C3000     1.0  0.91215  0.21247  0.45682  1.0000
  S   S1021     1.0  0.74293  0.22121  0.06081  1.0000
  C   C3001     1.0  0.60886  0.19400  0.15950  1.0000
  C   C3002     1.0  0.52294  0.19708  0.12772  1.0000
  H   H2987     1.0  0.87700  0.32284  0.37218  1.0000
  H   H2988     1.0  0.96919  0.27944  0.09705  1.0000
  H   H2989     1.0  0.77965  0.20204  0.01566  1.0000
  H   H2990     1.0  0.79175  0.30700  0.00465  1.0000
  C   C3003     1.0  0.97461  0.36336  0.19508  1.0000
  C   C3004     1.0  0.66676  0.34555  0.16257  1.0000
  C   C3005     1.0  0.89619  0.35272  0.33210  1.0000
  H   H2991     1.0  0.67563  0.32437  0.17554  1.0000
  C   C3006     1.0  0.98598  0.29637  0.35278  1.0000
  H   H2992     1.0  0.87072  0.23185  0.11143  1.0000
  H   H2993     1.0  0.78579  0.21471  0.09913  1.0000
  C   C3007     1.0  0.96061  0.23643  0.42139  1.0000
  H   H2994     1.0  0.92008  0.20767  0.46434  1.0000
  C   C3008     1.0  0.96197  0.22277  0.41822  1.0000
  S   S1022     1.0  0.81610  0.37163  0.18096  1.0000
  H   H2995     1.0  0.82780  0.27994  0.12405  1.0000
  C   C3009     1.0  0.88233  0.24734  0.11291  1.0000
  H   H2996     1.0  0.81620  0.37291  0.22399  1.0000
  N   N248      1.0  0.92669  0.33652  0.14475  1.0000
  C   C3010     1.0  0.92087  0.33821  0.13277  1.0000
  C   C3011     1.0  0.94113  0.33760  0.14285  1.0000
  C   C3012     1.0  0.92971  0.34077  0.11844  1.0000
  C   C3013     1.0  0.95027  0.34016  0.12868  1.0000
  C   C3014     1.0  0.94449  0.34173  0.11641  1.0000
  C   C3015     1.0  0.91731  0.33411  0.15973  1.0000
  H   H2997     1.0  0.90938  0.33745  0.13424  1.0000
  H   H2998     1.0  0.94573  0.33629  0.15233  1.0000
  H   H2999     1.0  0.92525  0.34167  0.10896  1.0000
  H   H3000     1.0  0.96186  0.34054  0.12728  1.0000
  H   H3001     1.0  0.95159  0.34325  0.10538  1.0000
  H   H3002     1.0  0.91361  0.34460  0.16369  1.0000
  H   H3003     1.0  0.90729  0.33016  0.16015  1.0000
  H   H3004     1.0  0.92375  0.32567  0.16752  1.0000
  N   N249      1.0  0.93196  0.30774  0.28623  1.0000
  C   C3016     1.0  0.92421  0.32167  0.28785  1.0000
  C   C3017     1.0  0.93984  0.29865  0.29651  1.0000
  C   C3018     1.0  0.92424  0.32685  0.30000  1.0000
  C   C3019     1.0  0.94005  0.30346  0.30883  1.0000
  C   C3020     1.0  0.93224  0.31768  0.31052  1.0000
  C   C3021     1.0  0.93225  0.30289  0.27304  1.0000
  H   H3005     1.0  0.91801  0.32888  0.27968  1.0000
  H   H3006     1.0  0.94623  0.28768  0.29516  1.0000
  H   H3007     1.0  0.91818  0.33796  0.30121  1.0000
  H   H3008     1.0  0.94648  0.29626  0.31683  1.0000
  H   H3009     1.0  0.93257  0.32171  0.31982  1.0000
  H   H3010     1.0  0.93919  0.30889  0.26317  1.0000
  H   H3011     1.0  0.93688  0.29080  0.27406  1.0000
  H   H3012     1.0  0.92073  0.30535  0.27114  1.0000
  H   H3013     1.0  0.97646  0.33132  0.32413  1.0000
  N   N250      1.0  0.84722  0.31730  0.05376  1.0000
  C   C3022     1.0  0.85855  0.30657  0.04842  1.0000
  C   C3023     1.0  0.83473  0.32271  0.04792  1.0000
  C   C3024     1.0  0.85768  0.30097  0.03688  1.0000
  C   C3025     1.0  0.83332  0.31716  0.03655  1.0000
  C   C3026     1.0  0.84493  0.30628  0.03096  1.0000
  C   C3027     1.0  0.84892  0.32355  0.06525  1.0000
  H   H3014     1.0  0.86826  0.30215  0.05322  1.0000
  H   H3015     1.0  0.82569  0.33119  0.05220  1.0000
  H   H3016     1.0  0.86681  0.29250  0.03267  1.0000
  H   H3017     1.0  0.82327  0.32125  0.03216  1.0000
  H   H3018     1.0  0.84400  0.30183  0.02219  1.0000
  H   H3019     1.0  0.83789  0.32824  0.07182  1.0000
  H   H3020     1.0  0.85511  0.31493  0.07312  1.0000
  H   H3021     1.0  0.85534  0.33240  0.06009  1.0000
  H   H3022     1.0  0.77404  0.36840  0.25778  1.0000
  C   C3028     1.0  0.86263  0.35870  0.35724  1.0000
  C   C3029     1.0  0.58375  0.21953  0.18747  1.0000
  H   H3023     1.0  0.87501  0.37842  0.30960  1.0000
  C   C3030     1.0  0.71556  0.22357  0.01998  1.0000
  C   C3031     1.0  0.61218  0.22422  0.18311  1.0000
  S   S1023     1.0  0.94924  0.34227  0.37235  1.0000
  S   S1024     1.0  0.87938  0.28363  0.45793  1.0000
  C   C3032     1.0  0.77010  0.25161  0.09150  1.0000
  H   H3024     1.0  0.82538  0.30517  0.12773  1.0000
  C   C3033     1.0  0.78069  0.23857  0.09501  1.0000
  S   S1025     1.0  0.70749  0.24976  0.05931  1.0000
  C   C3034     1.0  0.88207  0.19302  0.46008  1.0000
  C   C3035     1.0  0.89269  0.31944  0.42798  1.0000
  H   H3025     1.0  0.93034  0.35390  0.32720  1.0000
  S   S1026     1.0  0.97463  0.32821  0.19174  1.0000
  Fe  Fe512     1.0  0.98045  0.30417  0.19189  1.0000
  H   H3026     1.0  0.62348  0.19571  0.20240  1.0000
  H   H3027     1.0  0.74014  0.24558  0.02941  1.0000
  H   H3028     1.0  0.86176  0.37244  0.21670  1.0000
  H   H3029     1.0  0.97425  0.33162  0.35027  1.0000
  H   H3030     1.0  0.94398  0.26279  0.13995  1.0000
  H   H3031     1.0  0.90140  0.34104  0.33430  1.0000
  H   H3032     1.0  0.61373  0.28621  0.08629  1.0000
  N   N251      1.0  0.85735  0.28761  0.13967  1.0000
  N   N252      1.0  0.75343  0.29584  0.11757  1.0000
  C   C3036     1.0  0.75239  0.30192  0.10318  1.0000
  C   C3037     1.0  0.74129  0.29843  0.12884  1.0000
  C   C3038     1.0  0.73901  0.31111  0.09977  1.0000
  C   C3039     1.0  0.72770  0.30744  0.12583  1.0000
  C   C3040     1.0  0.72659  0.31387  0.11120  1.0000
  C   C3041     1.0  0.76734  0.28579  0.12090  1.0000
  H   H3033     1.0  0.76195  0.29963  0.09423  1.0000
  H   H3034     1.0  0.74215  0.29366  0.14026  1.0000
  H   H3035     1.0  0.73829  0.31601  0.08834  1.0000
  H   H3036     1.0  0.71812  0.30956  0.13477  1.0000
  H   H3037     1.0  0.71614  0.32107  0.10879  1.0000
  H   H3038     1.0  0.76887  0.28617  0.13177  1.0000
  H   H3039     1.0  0.76722  0.27428  0.12100  1.0000
  H   H3040     1.0  0.77717  0.28895  0.11244  1.0000
  H   H3041     1.0  0.96044  0.27305  0.40794  1.0000
  C   C3042     1.0  0.78729  0.26949  0.03267  1.0000
  Fe  Fe513     1.0  0.79684  0.27166  0.08405  1.0000
  S   S1027     1.0  0.84827  0.24806  0.09556  1.0000
  H   H3042     1.0  0.95008  0.37711  0.28730  1.0000
  S   S1028     1.0  0.84258  0.37735  0.25864  1.0000
  C   C3043     1.0  0.79977  0.30359  0.98239  1.0000
  C   C3044     1.0  0.98850  0.29676  0.22451  1.0000
  C   C3045     1.0  0.78386  0.35961  0.25583  1.0000
  H   H3043     1.0  0.67139  0.20368  0.11962  1.0000
  C   C3046     1.0  0.96563  0.27779  0.39668  1.0000
  C   C3047     1.0  0.88308  0.32636  0.46364  1.0000
  H   H3044     1.0  0.79571  0.31725  0.24401  1.0000
  H   H3045     1.0  0.56580  0.29453  0.10058  1.0000
  H   H3046     1.0  0.94442  0.22883  0.45802  1.0000
  C   C3048     1.0  0.98630  0.29160  0.23987  1.0000
  H   H3047     1.0  0.98198  0.21074  0.43954  1.0000
  C   C3049     1.0  0.82549  0.36796  0.22937  1.0000
  H   H3048     1.0  0.58283  0.20948  0.12584  1.0000
  N   N253      1.0  0.96426  0.34619  0.22254  1.0000
  C   C3050     1.0  0.88932  0.20375  0.46012  1.0000
  C   C3051     1.0  0.74151  0.18454  0.01561  1.0000
  H   H3049     1.0  0.80763  0.32658  0.22812  1.0000
  H   H3050     1.0  0.91838  0.21670  0.44551  1.0000
  C   C3052     1.0  0.72136  0.21831  0.00700  1.0000
  C   C3053     1.0  0.95715  0.21122  0.42942  1.0000
  H   H3051     1.0  0.97439  0.36462  0.31370  1.0000
  H   H3052     1.0  0.88294  0.34590  0.44588  1.0000
  N   N254      1.0  0.90461  0.20124  0.45663  1.0000
  H   H3053     1.0  0.98648  0.34161  0.22573  1.0000
  C   C3054     1.0  0.54712  0.21659  0.15612  1.0000
  H   H3054     1.0  0.77366  0.18772  0.98477  1.0000
  C   C3055     1.0  0.95964  0.36230  0.19949  1.0000
  N   N255      1.0  0.97878  0.28992  0.36784  1.0000
  H   H3055     1.0  0.97591  0.38100  0.29896  1.0000
  Fe  Fe514     1.0  0.90077  0.37604  0.36891  1.0000
  C   C3056     1.0  0.98426  0.35601  0.20465  1.0000
  S   S1029     1.0  0.78075  0.37300  0.18213  1.0000
  C   C3057     1.0  0.89752  0.36181  0.34048  1.0000
  C   C3058     1.0  0.78196  0.20266  0.04180  1.0000
  H   H3056     1.0  0.60226  0.24746  0.17614  1.0000
  H   H3057     1.0  0.87155  0.32628  0.46434  1.0000
  H   H3058     1.0  0.68778  0.27740  0.05162  1.0000
  H   H3059     1.0  0.63301  0.19971  0.18313  1.0000
  C   C3059     1.0  0.95928  0.33579  0.23623  1.0000
  C   C3060     1.0  0.97005  0.37173  0.30387  1.0000
  C   C3061     1.0  0.95418  0.23872  0.43567  1.0000
  H   H3060     1.0  0.92880  0.26658  0.10094  1.0000
  Fe  Fe515     1.0  0.86524  0.36970  0.26439  1.0000
  H   H3061     1.0  0.92436  0.32624  0.46019  1.0000
  C   C3062     1.0  0.95804  0.27092  0.11918  1.0000
  H   H3062     1.0  0.96547  0.33479  0.24479  1.0000
  C   C3063     1.0  0.93991  0.34895  0.33223  1.0000
  H   H3063     1.0  0.85751  0.37564  0.18028  1.0000
  H   H3064     1.0  0.79815  0.20577  0.00941  1.0000
  S   S1030     1.0  0.91941  0.28045  0.46347  1.0000
  C   C3064     1.0  0.66775  0.19352  0.12134  1.0000
  H   H3065     1.0  0.69709  0.27647  0.08246  1.0000
  S   S1031     1.0  0.90448  0.36239  0.27254  1.0000
  C   C3065     1.0  0.87164  0.34118  0.38274  1.0000
  C   C3066     1.0  0.77318  0.36484  0.12121  1.0000
  C   C3067     1.0  0.91272  0.32641  0.46112  1.0000
  Fe  Fe516     1.0  0.78204  0.26015  0.99021  1.0000
  H   H3066     1.0  0.88966  0.23895  0.11935  1.0000
  C   C3068     1.0  0.87885  0.32916  0.42669  1.0000
  C   C3069     1.0  0.87157  0.24332  0.10845  1.0000
  H   H3067     1.0  0.85930  0.36546  0.34713  1.0000
  C   C3070     1.0  0.85857  0.27368  0.13797  1.0000
  C   C3071     1.0  0.83597  0.28210  0.12860  1.0000
  H   H3068     1.0  0.96436  0.24528  0.41271  1.0000
  H   H3069     1.0  0.92522  0.25980  0.12807  1.0000
  H   H3070     1.0  0.50833  0.18593  0.17632  1.0000
  H   H3071     1.0  0.84908  0.25971  0.13083  1.0000
  S   S1032     1.0  0.77299  0.26889  0.09134  1.0000
  H   H3072     1.0  0.94729  0.20443  0.45251  1.0000
  H   H3073     1.0  0.54376  0.23940  0.14411  1.0000
  C   C3072     1.0  0.80901  0.34713  0.25848  1.0000
  C   C3073     1.0  0.79691  0.32810  0.23647  1.0000
  C   C3074     1.0  0.89051  0.37681  0.33794  1.0000
  S   S1033     1.0  0.88010  0.25248  0.98748  1.0000
  H   H3074     1.0  0.84419  0.38339  0.37231  1.0000
  H   H3075     1.0  0.51441  0.19613  0.09623  1.0000
  Fe  Fe517     1.0  0.71731  0.19413  0.08349  1.0000
  H   H3076     1.0  0.87515  0.33449  0.39280  1.0000
  H   H3077     1.0  0.77429  0.35044  0.24372  1.0000
  H   H3078     1.0  0.76393  0.36581  0.16248  1.0000
  C   C3075     1.0  0.67536  0.35791  0.18068  1.0000
  C   C3076     1.0  0.79644  0.35846  0.26111  1.0000
  Fe  Fe518     1.0  0.88147  0.30459  0.98154  1.0000
  S   S1034     1.0  0.78595  0.21324  0.97864  1.0000
  H   H3079     1.0  0.78769  0.33205  0.23038  1.0000
  S   S1035     1.0  0.88522  0.37422  0.24649  1.0000
  S   S1036     1.0  0.98162  0.28899  0.21409  1.0000
  C   C3077     1.0  0.55182  0.19034  0.16875  1.0000
  C   C3078     1.0  0.85631  0.38104  0.36715  1.0000
  N   N256      1.0  0.82818  0.29715  0.98801  1.0000
  C   C3079     1.0  0.80895  0.33731  0.25026  1.0000
  H   H3080     1.0  0.57569  0.18898  0.14645  1.0000
  H   H3081     1.0  0.66364  0.34082  0.15521  1.0000
  H   H3082     1.0  0.68361  0.33546  0.19171  1.0000
  S   S1037     1.0  0.92217  0.38031  0.37007  1.0000
  H   H3083     1.0  0.95445  0.37893  0.32943  1.0000
  H   H3084     1.0  0.83202  0.24938  0.98114  1.0000
  S   S1038     1.0  0.86954  0.38069  0.28000  1.0000
  C   C3080     1.0  0.99291  0.21296  0.43783  1.0000
  C   C3081     1.0  0.76501  0.37786  0.12574  1.0000
  H   H3085     1.0  0.97887  0.36949  0.18411  1.0000
  C   C3082     1.0  0.99389  0.22711  0.43799  1.0000
  H   H3086     1.0  0.75536  0.22685  0.99776  1.0000
  C   C3083     1.0  0.88256  0.38283  0.32665  1.0000
  N   N257      1.0  0.66872  0.36691  0.16946  1.0000
  H   H3087     1.0  0.65987  0.36796  0.15108  1.0000
  H   H3088     1.0  0.99348  0.18740  0.43342  1.0000
  H   H3089     1.0  0.74860  0.38123  0.20562  1.0000
  H   H3090     1.0  0.85927  0.36313  0.19773  1.0000
  H   H3091     1.0  0.97790  0.30544  0.34728  1.0000
  C   C3084     1.0  0.49825  0.20452  0.16107  1.0000
  C   C3085     1.0  0.74010  0.18556  0.03010  1.0000
  H   H3092     1.0  0.67914  0.36260  0.18760  1.0000
  C   C3086     1.0  0.98940  0.26463  0.32870  1.0000
  H   H3093     1.0  0.84616  0.30309  0.99203  1.0000
  H   H3094     1.0  0.86996  0.19485  0.46333  1.0000
  N   N258      1.0  0.89135  0.31551  0.47258  1.0000
  H   H3095     1.0  0.99046  0.29342  0.26005  1.0000
  C   C3087     1.0  0.99488  0.25725  0.34144  1.0000
  C   C3088     1.0  0.76179  0.37826  0.14065  1.0000
  S   S1039     1.0  0.70531  0.18794  0.97898  1.0000
  S   S1040     1.0  0.76732  0.25356  0.97989  1.0000
  H   H3096     1.0  0.99277  0.30555  0.10849  1.0000
  Fe  Fe519     1.0  0.99335  0.33011  0.17181  1.0000
  Fe  Fe520     1.0  0.99399  0.21265  0.37717  1.0000
  H   H3097     1.0  0.99367  0.27403  0.32163  1.0000
  H   H3098     1.0  0.92517  0.18633  0.45005  1.0000
  C   C3089     1.0  0.66719  0.38298  0.16646  1.0000
  C   C3090     1.0  0.98485  0.27681  0.71292  1.0000
  H   H3099     1.0  0.87789  0.30862  0.49366  1.0000
  C   C3091     1.0  0.99335  0.25942  0.82852  1.0000
  C   C3092     1.0  0.84802  0.32745  0.93527  1.0000
  H   H3100     1.0  0.90207  0.30236  0.61370  1.0000
  Fe  Fe521     1.0  0.96476  0.35660  0.79273  1.0000
  S   S1041     1.0  0.95885  0.33449  0.79815  1.0000
  Fe  Fe522     1.0  0.93583  0.37311  0.78284  1.0000
  S   S1042     1.0  0.92712  0.35262  0.78735  1.0000
  C   C3093     1.0  0.67450  0.22854  0.90508  1.0000
  Fe  Fe523     1.0  0.93587  0.34618  0.80811  1.0000
  S   S1043     1.0  0.92381  0.33680  0.83092  1.0000
  Fe  Fe524     1.0  0.95075  0.34280  0.77696  1.0000
  S   S1044     1.0  0.95782  0.32869  0.76020  1.0000
  S   S1045     1.0  0.94258  0.36750  0.80450  1.0000
  H   H3101     1.0  0.86995  0.24698  0.60205  1.0000
  Fe  Fe525     1.0  0.93476  0.34509  0.68975  1.0000
  S   S1046     1.0  0.95696  0.35122  0.67979  1.0000
  S   S1047     1.0  0.92017  0.35131  0.71085  1.0000
  Fe  Fe526     1.0  0.93649  0.33114  0.66416  1.0000
  S   S1048     1.0  0.95850  0.33702  0.65171  1.0000
  S   S1049     1.0  0.92544  0.31485  0.66066  1.0000
  Fe  Fe527     1.0  0.96477  0.32897  0.67384  1.0000
  S   S1050     1.0  0.98555  0.31139  0.67739  1.0000
  Fe  Fe528     1.0  0.94852  0.35877  0.65886  1.0000
  C   C3094     1.0  0.98879  0.28546  0.69864  1.0000
  S   S1051     1.0  0.94331  0.32211  0.68591  1.0000
  S   S1052     1.0  0.92581  0.35363  0.66919  1.0000
  Fe  Fe529     1.0  0.91877  0.25220  0.60369  1.0000
  S   S1053     1.0  0.93940  0.23607  0.59574  1.0000
  S   S1054     1.0  0.89572  0.24776  0.61103  1.0000
  Fe  Fe530     1.0  0.93489  0.27710  0.59684  1.0000
  S   S1055     1.0  0.95676  0.26326  0.58732  1.0000
  S   S1056     1.0  0.93439  0.30032  0.59812  1.0000
  Fe  Fe531     1.0  0.94358  0.25503  0.57665  1.0000
  S   S1057     1.0  0.95197  0.24742  0.55521  1.0000
  Fe  Fe532     1.0  0.95067  0.24564  0.60710  1.0000
  S   S1058     1.0  0.96928  0.23451  0.61894  1.0000
  S   S1059     1.0  0.92219  0.27078  0.58393  1.0000
  S   S1060     1.0  0.92953  0.25983  0.61729  1.0000
  H   H3102     1.0  0.55485  0.19942  0.86678  1.0000
  S   S1061     1.0  0.59905  0.21761  0.87369  1.0000
  H   H3103     1.0  0.98974  0.25959  0.84015  1.0000
  H   H3104     1.0  0.69827  0.29741  0.94669  1.0000
  H   H3105     1.0  0.94081  0.28158  0.72505  1.0000
  S   S1062     1.0  0.79611  0.25164  0.95128  1.0000
  S   S1063     1.0  0.76530  0.28509  0.94186  1.0000
  C   C3095     1.0  0.76852  0.19612  0.97647  1.0000
  S   S1064     1.0  0.86045  0.36198  0.89027  1.0000
  H   H3106     1.0  0.51024  0.21390  0.88195  1.0000
  S   S1065     1.0  0.86313  0.32461  0.97693  1.0000
  S   S1066     1.0  0.82941  0.37226  0.91406  1.0000
  H   H3107     1.0  0.86295  0.36004  0.92398  1.0000
  C   C3096     1.0  0.99095  0.24823  0.82332  1.0000
  H   H3108     1.0  0.83635  0.29382  0.96599  1.0000
  Fe  Fe533     1.0  0.84092  0.35242  0.90428  1.0000
  H   H3109     1.0  0.86600  0.36169  0.94084  1.0000
  S   S1067     1.0  0.82841  0.35925  0.88604  1.0000
  C   C3097     1.0  0.94483  0.38044  0.70167  1.0000
  S   S1068     1.0  0.71512  0.36237  0.89255  1.0000
  C   C3098     1.0  0.88427  0.29211  0.58776  1.0000
  Fe  Fe534     1.0  0.70674  0.34522  0.93438  1.0000
  S   S1069     1.0  0.71968  0.33217  0.91730  1.0000
  S   S1070     1.0  0.70525  0.33064  0.95717  1.0000
  Fe  Fe535     1.0  0.73139  0.35078  0.90710  1.0000
  S   S1071     1.0  0.75626  0.34579  0.89772  1.0000
  Fe  Fe536     1.0  0.70210  0.34473  0.90454  1.0000
  S   S1072     1.0  0.69734  0.32874  0.89410  1.0000
  S   S1073     1.0  0.71980  0.36307  0.92512  1.0000
  S   S1074     1.0  0.68808  0.35677  0.92238  1.0000
  Fe  Fe537     1.0  0.63898  0.25878  0.89873  1.0000
  S   S1075     1.0  0.62647  0.24861  0.92085  1.0000
  S   S1076     1.0  0.64901  0.24318  0.88334  1.0000
  Fe  Fe538     1.0  0.63416  0.28826  0.90706  1.0000
  S   S1077     1.0  0.62113  0.28017  0.92974  1.0000
  S   S1078     1.0  0.63515  0.31225  0.90284  1.0000
  Fe  Fe539     1.0  0.63898  0.25939  0.92970  1.0000
  S   S1079     1.0  0.65082  0.24976  0.94846  1.0000
  Fe  Fe540     1.0  0.60995  0.27036  0.91842  1.0000
  S   S1080     1.0  0.58505  0.27169  0.92525  1.0000
  S   S1081     1.0  0.65287  0.26802  0.90776  1.0000
  S   S1082     1.0  0.62160  0.28000  0.89558  1.0000
  H   H3110     1.0  0.71512  0.29993  0.97193  1.0000
  C   C3099     1.0  0.93018  0.29766  0.73849  1.0000
  H   H3111     1.0  0.94831  0.32690  0.86598  1.0000
  H   H3112     1.0  0.93654  0.29197  0.74698  1.0000
  H   H3113     1.0  0.92842  0.27332  0.94525  1.0000
  H   H3114     1.0  0.98421  0.26595  0.95201  1.0000
  H   H3115     1.0  0.99044  0.21321  0.63413  1.0000
  H   H3116     1.0  0.96285  0.21734  0.57357  1.0000
  H   H3117     1.0  0.60875  0.31831  0.89131  1.0000
  Fe  Fe541     1.0  0.53183  0.26403  0.88202  1.0000
  S   S1083     1.0  0.52079  0.26635  0.86345  1.0000
  S   S1084     1.0  0.55290  0.27262  0.87580  1.0000
  Fe  Fe542     1.0  0.51155  0.24515  0.90404  1.0000
  C   C3100     1.0  0.92465  0.29950  0.71505  1.0000
  H   H3118     1.0  0.56534  0.23638  0.90106  1.0000
  Fe  Fe543     1.0  0.52210  0.24203  0.87210  1.0000
  S   S1085     1.0  0.52996  0.22705  0.85602  1.0000
  C   C3101     1.0  0.65745  0.28757  0.93747  1.0000
  C   C3102     1.0  0.97982  0.27073  0.94177  1.0000
  S   S1086     1.0  0.53437  0.23942  0.88966  1.0000
  S   S1087     1.0  0.51003  0.26966  0.89819  1.0000
  C   C3103     1.0  0.93257  0.29182  0.72614  1.0000
  C   C3104     1.0  0.89261  0.30303  0.58218  1.0000
  H   H3119     1.0  0.58415  0.32107  0.92249  1.0000
  S   S1088     1.0  0.96760  0.27246  0.74133  1.0000
  N   N259      1.0  0.68440  0.22250  0.91556  1.0000
  H   H3120     1.0  0.88547  0.26953  0.62915  1.0000
  H   H3121     1.0  0.96953  0.29171  0.61700  1.0000
  H   H3122     1.0  0.68969  0.20058  0.91200  1.0000
  H   H3123     1.0  0.91240  0.30717  0.47894  1.0000
  C   C3105     1.0  0.56899  0.22455  0.90644  1.0000
  S   S1089     1.0  0.91521  0.21661  0.49424  1.0000
  C   C3106     1.0  0.88265  0.33526  0.92236  1.0000
  C   C3107     1.0  0.98715  0.35386  0.81438  1.0000
  C   C3108     1.0  0.94345  0.27264  0.92390  1.0000
  C   C3109     1.0  0.98604  0.20826  0.72981  1.0000
  H   H3124     1.0  0.57120  0.25845  0.85003  1.0000
  C   C3110     1.0  0.51657  0.21118  0.84627  1.0000
  S   S1090     1.0  0.91736  0.28175  0.50404  1.0000
  H   H3125     1.0  0.86524  0.30222  0.96115  1.0000
  H   H3126     1.0  0.90698  0.32224  0.95147  1.0000
  H   H3127     1.0  0.58888  0.24908  0.85498  1.0000
  H   H3128     1.0  0.96205  0.34233  0.86853  1.0000
  H   H3129     1.0  0.94057  0.38337  0.83122  1.0000
  C   C3111     1.0  0.89004  0.33957  0.94204  1.0000
  H   H3130     1.0  0.71899  0.30143  0.89577  1.0000
  C   C3112     1.0  0.66816  0.32252  0.93606  1.0000
  C   C3113     1.0  0.97325  0.18525  0.63882  1.0000
  C   C3114     1.0  0.91210  0.31835  0.72841  1.0000
  S   S1091     1.0  0.98098  0.23290  0.76587  1.0000
  H   H3131     1.0  0.58135  0.31014  0.86727  1.0000
  C   C3115     1.0  0.89898  0.30676  0.59161  1.0000
  H   H3132     1.0  0.95306  0.18769  0.63165  1.0000
  H   H3133     1.0  0.87658  0.27143  0.95901  1.0000
  H   H3134     1.0  0.76901  0.31507  0.90784  1.0000
  C   C3116     1.0  0.86681  0.26674  0.96393  1.0000
  H   H3135     1.0  0.96689  0.29602  0.90607  1.0000
  C   C3117     1.0  0.95849  0.29108  0.91453  1.0000
  H   H3136     1.0  0.67703  0.22171  0.89677  1.0000
  H   H3137     1.0  0.99154  0.24359  0.90598  1.0000
  H   H3138     1.0  0.91117  0.31642  0.69428  1.0000
  C   C3118     1.0  0.78299  0.37764  0.89933  1.0000
  N   N260      1.0  0.94749  0.34928  0.85344  1.0000
  S   S1092     1.0  0.50267  0.23424  0.92745  1.0000
  H   H3139     1.0  0.89427  0.30850  0.57056  1.0000
  H   H3140     1.0  0.97438  0.25390  0.92678  1.0000
  N   N261      1.0  0.97981  0.21354  0.58553  1.0000
  H   H3141     1.0  0.56333  0.30349  0.89089  1.0000
  C   C3119     1.0  0.59873  0.31511  0.89128  1.0000
  C   C3120     1.0  0.86575  0.25702  0.97780  1.0000
  H   H3142     1.0  0.68828  0.32448  0.94063  1.0000
  H   H3143     1.0  0.93446  0.37756  0.70128  1.0000
  N   N262      1.0  0.88151  0.34416  0.93162  1.0000
  S   S1093     1.0  0.85769  0.37357  0.84870  1.0000
  H   H3144     1.0  0.67572  0.23986  0.89878  1.0000
  C   C3121     1.0  0.75147  0.20385  0.95981  1.0000
  C   C3122     1.0  0.84391  0.33969  0.94173  1.0000
  C   C3123     1.0  0.59619  0.31481  0.87778  1.0000
  C   C3124     1.0  0.91632  0.23264  0.52430  1.0000
  H   H3145     1.0  0.91439  0.18703  0.49575  1.0000
  H   H3146     1.0  0.88900  0.34650  0.94954  1.0000
  C   C3125     1.0  0.85955  0.31274  0.95568  1.0000
  H   H3147     1.0  0.98027  0.32425  0.84193  1.0000
  C   C3126     1.0  0.59343  0.22917  0.83999  1.0000
  C   C3127     1.0  0.51767  0.21564  0.85845  1.0000
  C   C3128     1.0  0.98428  0.33414  0.83625  1.0000
  Fe  Fe544     1.0  0.80808  0.25930  0.96374  1.0000
  H   H3148     1.0  0.85659  0.27709  0.94520  1.0000
  H   H3149     1.0  0.60344  0.31177  0.91732  1.0000
  C   C3129     1.0  0.95175  0.29680  0.92728  1.0000
  C   C3130     1.0  0.90325  0.19380  0.49544  1.0000
  C   C3131     1.0  0.57628  0.27120  0.91165  1.0000
  C   C3132     1.0  0.58428  0.27119  0.89713  1.0000
  C   C3133     1.0  0.57700  0.27147  0.88626  1.0000
  C   C3134     1.0  0.56175  0.27140  0.88991  1.0000
  C   C3135     1.0  0.55378  0.27100  0.90452  1.0000
  C   C3136     1.0  0.56100  0.27113  0.91533  1.0000
  H   H3150     1.0  0.59599  0.27133  0.89415  1.0000
  H   H3151     1.0  0.58323  0.27177  0.87497  1.0000
  H   H3152     1.0  0.54196  0.27103  0.90740  1.0000
  H   H3153     1.0  0.55472  0.27115  0.92656  1.0000
  S   S1094     1.0  0.93393  0.29705  0.95481  1.0000
  C   C3137     1.0  0.58338  0.31065  0.87762  1.0000
  C   C3138     1.0  0.67985  0.32421  0.89757  1.0000
  C   C3139     1.0  0.67953  0.30996  0.89692  1.0000
  C   C3140     1.0  0.66587  0.30612  0.89873  1.0000
  C   C3141     1.0  0.65245  0.31665  0.90085  1.0000
  C   C3142     1.0  0.65274  0.33092  0.90150  1.0000
  C   C3143     1.0  0.66640  0.33466  0.90004  1.0000
  H   H3154     1.0  0.68990  0.30191  0.89477  1.0000
  H   H3155     1.0  0.66580  0.29517  0.89801  1.0000
  H   H3156     1.0  0.64239  0.33915  0.90307  1.0000
  H   H3157     1.0  0.66658  0.34575  0.90030  1.0000
  H   H3158     1.0  0.91004  0.20423  0.58887  1.0000
  C   C3144     1.0  0.69139  0.20782  0.91787  1.0000
  C   C3145     1.0  0.98218  0.20770  0.63370  1.0000
  C   C3146     1.0  0.88430  0.30421  0.48372  1.0000
  C   C3147     1.0  0.76626  0.35823  0.89846  1.0000
  C   C3148     1.0  0.77980  0.35936  0.88825  1.0000
  C   C3149     1.0  0.55004  0.18940  0.87098  1.0000
  H   H3159     1.0  0.52311  0.21497  0.83540  1.0000
  S   S1095     1.0  0.49958  0.24552  0.88711  1.0000
  H   H3160     1.0  0.78380  0.35284  0.87989  1.0000
  S   S1096     1.0  0.97304  0.19050  0.70343  1.0000
  C   C3150     1.0  0.74955  0.29783  0.94867  1.0000
  C   C3151     1.0  0.74807  0.31271  0.94146  1.0000
  C   C3152     1.0  0.73492  0.32297  0.94535  1.0000
  C   C3153     1.0  0.72281  0.31835  0.95590  1.0000
  C   C3154     1.0  0.72445  0.30355  0.96370  1.0000
  C   C3155     1.0  0.73795  0.29326  0.96017  1.0000
  H   H3161     1.0  0.75692  0.31635  0.93259  1.0000
  H   H3162     1.0  0.73392  0.33443  0.93962  1.0000
  H   H3163     1.0  0.98356  0.23339  0.58782  1.0000
  H   H3164     1.0  0.87758  0.28731  0.63413  1.0000
  S   S1097     1.0  0.89325  0.29031  0.96520  1.0000
  C   C3156     1.0  0.75549  0.21762  0.95477  1.0000
  H   H3165     1.0  0.76903  0.23129  0.95665  1.0000
  H   H3166     1.0  0.75060  0.22590  0.94624  1.0000
  C   C3157     1.0  0.66902  0.19973  0.95692  1.0000
  C   C3158     1.0  0.67137  0.20817  0.96535  1.0000
  C   C3159     1.0  0.66536  0.22346  0.96300  1.0000
  C   C3160     1.0  0.65685  0.23039  0.95227  1.0000
  C   C3161     1.0  0.65396  0.22188  0.94423  1.0000
  C   C3162     1.0  0.66003  0.20657  0.94656  1.0000
  S   S1098     1.0  0.96382  0.27054  0.89774  1.0000
  H   H3167     1.0  0.66744  0.22993  0.96942  1.0000
  H   H3168     1.0  0.64723  0.22708  0.93611  1.0000
  H   H3169     1.0  0.65799  0.20007  0.94014  1.0000
  S   S1099     1.0  0.99108  0.23488  0.80169  1.0000
  H   H3170     1.0  0.60420  0.31766  0.86756  1.0000
  H   H3171     1.0  0.81129  0.29906  0.96091  1.0000
  S   S1100     1.0  0.62438  0.18669  0.85073  1.0000
  N   N263      1.0  0.58891  0.31108  0.90426  1.0000
  Fe  Fe545     1.0  0.81813  0.37990  0.89489  1.0000
  C   C3163     1.0  0.61317  0.22442  0.87630  1.0000
  C   C3164     1.0  0.62826  0.21741  0.87273  1.0000
  C   C3165     1.0  0.63930  0.22324  0.87478  1.0000
  C   C3166     1.0  0.63523  0.23586  0.88074  1.0000
  C   C3167     1.0  0.62010  0.24261  0.88462  1.0000
  C   C3168     1.0  0.60912  0.23705  0.88219  1.0000
  H   H3172     1.0  0.63148  0.20763  0.86820  1.0000
  H   H3173     1.0  0.65099  0.21796  0.87178  1.0000
  H   H3174     1.0  0.61692  0.25227  0.88927  1.0000
  H   H3175     1.0  0.59746  0.24248  0.88501  1.0000
  H   H3176     1.0  0.66499  0.27808  0.93284  1.0000
  C   C3169     1.0  0.94265  0.25735  0.54087  1.0000
  C   C3170     1.0  0.93230  0.27075  0.54188  1.0000
  C   C3171     1.0  0.92469  0.27824  0.53045  1.0000
  C   C3172     1.0  0.92736  0.27234  0.51800  1.0000
  C   C3173     1.0  0.93777  0.25899  0.51697  1.0000
  C   C3174     1.0  0.94542  0.25152  0.52837  1.0000
  H   H3177     1.0  0.93028  0.27543  0.55138  1.0000
  H   H3178     1.0  0.91674  0.28864  0.53123  1.0000
  H   H3179     1.0  0.94005  0.25444  0.50736  1.0000
  H   H3180     1.0  0.95349  0.24120  0.52749  1.0000
  C   C3175     1.0  0.91994  0.31104  0.73964  1.0000
  H   H3181     1.0  0.95906  0.30708  0.64994  1.0000
  Fe  Fe546     1.0  0.84788  0.38243  0.89848  1.0000
  C   C3176     1.0  0.92806  0.31118  0.64311  1.0000
  C   C3177     1.0  0.92399  0.29861  0.64230  1.0000
  C   C3178     1.0  0.92617  0.29506  0.62861  1.0000
  C   C3179     1.0  0.93217  0.30421  0.61554  1.0000
  C   C3180     1.0  0.93611  0.31690  0.61632  1.0000
  C   C3181     1.0  0.93418  0.32032  0.63009  1.0000
  H   H3182     1.0  0.91922  0.29151  0.65234  1.0000
  H   H3183     1.0  0.92296  0.28537  0.62821  1.0000
  H   H3184     1.0  0.94065  0.32412  0.60625  1.0000
  H   H3185     1.0  0.93724  0.33012  0.63059  1.0000
  C   C3182     1.0  0.95308  0.26677  0.65339  1.0000
  C   C3183     1.0  0.96688  0.29812  0.72037  1.0000
  C   C3184     1.0  0.97069  0.30663  0.70612  1.0000
  C   C3185     1.0  0.98145  0.30035  0.69520  1.0000
  H   H3186     1.0  0.95864  0.30322  0.72876  1.0000
  H   H3187     1.0  0.96545  0.31815  0.70349  1.0000
  C   C3186     1.0  0.90557  0.34724  0.83594  1.0000
  C   C3187     1.0  0.89697  0.34331  0.85021  1.0000
  C   C3188     1.0  0.88230  0.35141  0.85429  1.0000
  C   C3189     1.0  0.87616  0.36341  0.84407  1.0000
  C   C3190     1.0  0.88481  0.36739  0.82983  1.0000
  C   C3191     1.0  0.89953  0.35940  0.82581  1.0000
  H   H3188     1.0  0.90156  0.33384  0.85805  1.0000
  H   H3189     1.0  0.87561  0.34807  0.86518  1.0000
  H   H3190     1.0  0.90939  0.30612  0.93457  1.0000
  H   H3191     1.0  0.90608  0.36250  0.81478  1.0000
  H   H3192     1.0  0.91492  0.22141  0.60101  1.0000
  Fe  Fe547     1.0  0.98249  0.28017  0.88116  1.0000
  C   C3192     1.0  0.94712  0.33557  0.74667  1.0000
  C   C3193     1.0  0.95375  0.33350  0.73234  1.0000
  C   C3194     1.0  0.94548  0.33885  0.72133  1.0000
  C   C3195     1.0  0.93045  0.34579  0.72464  1.0000
  C   C3196     1.0  0.92368  0.34792  0.73896  1.0000
  C   C3197     1.0  0.93208  0.34293  0.74997  1.0000
  H   H3193     1.0  0.96531  0.32786  0.72970  1.0000
  H   H3194     1.0  0.95068  0.33761  0.71023  1.0000
  H   H3195     1.0  0.91198  0.35333  0.74158  1.0000
  H   H3196     1.0  0.92681  0.34443  0.76105  1.0000
  H   H3197     1.0  0.53883  0.19273  0.87805  1.0000
  C   C3198     1.0  0.96108  0.36501  0.85712  1.0000
  H   H3198     1.0  0.97051  0.21535  0.71537  1.0000
  H   H3199     1.0  0.98350  0.21887  0.73274  1.0000
  H   H3200     1.0  0.88702  0.21124  0.54647  1.0000
  H   H3201     1.0  0.61651  0.19959  0.91284  1.0000
  C   C3199     1.0  0.86942  0.18466  0.54769  1.0000
  C   C3200     1.0  0.97019  0.21573  0.62706  1.0000
  C   C3201     1.0  0.95959  0.20858  0.62643  1.0000
  C   C3202     1.0  0.96116  0.19329  0.63227  1.0000
  C   C3203     1.0  0.82662  0.29677  0.97449  1.0000
  H   H3202     1.0  0.55976  0.22115  0.91566  1.0000
  H   H3203     1.0  0.95026  0.21474  0.62137  1.0000
  H   H3204     1.0  0.87848  0.36741  0.92343  1.0000
  N   N264      1.0  0.88919  0.28841  0.61178  1.0000
  C   C3204     1.0  0.89704  0.29938  0.60649  1.0000
  C   C3205     1.0  0.95550  0.26272  0.63999  1.0000
  H   H3205     1.0  0.95265  0.37010  0.70577  1.0000
  C   C3206     1.0  0.73681  0.29158  0.90755  1.0000
  H   H3206     1.0  0.88392  0.22952  0.49333  1.0000
  H   H3207     1.0  0.95507  0.30612  0.92860  1.0000
  H   H3208     1.0  0.66266  0.22907  0.91105  1.0000
  H   H3209     1.0  0.89447  0.31961  0.70853  1.0000
  C   C3207     1.0  0.88734  0.21611  0.58828  1.0000
  C   C3208     1.0  0.87613  0.22826  0.59192  1.0000
  C   C3209     1.0  0.87880  0.23780  0.59901  1.0000
  C   C3210     1.0  0.89283  0.23550  0.60215  1.0000
  C   C3211     1.0  0.90418  0.22348  0.59829  1.0000
  C   C3212     1.0  0.90138  0.21368  0.59150  1.0000
  H   H3210     1.0  0.86525  0.23015  0.58949  1.0000
  H   H3211     1.0  0.96337  0.26865  0.61637  1.0000
  C   C3213     1.0  0.84802  0.33858  0.95490  1.0000
  H   H3212     1.0  0.90569  0.31509  0.58740  1.0000
  H   H3213     1.0  0.60599  0.21246  0.82751  1.0000
  C   C3214     1.0  0.87178  0.35904  0.92988  1.0000
  S   S1101     1.0  0.78881  0.27736  0.97033  1.0000
  H   H3214     1.0  0.79773  0.34199  0.90881  1.0000
  H   H3215     1.0  0.87575  0.33875  0.91424  1.0000
  C   C3215     1.0  0.70066  0.20188  0.92803  1.0000
  C   C3216     1.0  0.59498  0.21868  0.83187  1.0000
  C   C3217     1.0  0.78749  0.32528  0.92521  1.0000
  H   H3216     1.0  0.73175  0.28252  0.91451  1.0000
  N   N265      1.0  0.91465  0.31266  0.71623  1.0000
  H   H3217     1.0  0.70604  0.19022  0.92998  1.0000
  C   C3218     1.0  0.70260  0.21097  0.93599  1.0000
  H   H3218     1.0  0.90662  0.33259  0.70161  1.0000
  Fe  Fe548     1.0  0.78807  0.23690  0.97302  1.0000
  H   H3219     1.0  0.78082  0.30648  0.94150  1.0000
  S   S1102     1.0  0.82882  0.26821  0.95231  1.0000
  H   H3220     1.0  0.84513  0.34819  0.95966  1.0000
  C   C3219     1.0  0.93669  0.27838  0.93667  1.0000
  H   H3221     1.0  0.92677  0.29500  0.70536  1.0000
  S   S1103     1.0  0.89817  0.26047  0.49026  1.0000
  H   H3222     1.0  0.82293  0.32567  0.90555  1.0000
  C   C3220     1.0  0.57322  0.30698  0.89086  1.0000
  C   C3221     1.0  0.74988  0.31485  0.89029  1.0000
  H   H3223     1.0  0.97534  0.30777  0.78096  1.0000
  N   N266      1.0  0.91599  0.23567  0.54827  1.0000
  C   C3222     1.0  0.90152  0.31678  0.93374  1.0000
  C   C3223     1.0  0.79944  0.33064  0.91513  1.0000
  C   C3224     1.0  0.83119  0.29772  0.92025  1.0000
  H   H3224     1.0  0.87933  0.28902  0.58054  1.0000
  C   C3225     1.0  0.98370  0.19249  0.63959  1.0000
  C   C3226     1.0  0.73622  0.31389  0.88837  1.0000
  S   S1104     1.0  0.73862  0.20021  0.95202  1.0000
  H   H3225     1.0  0.93078  0.21277  0.51803  1.0000
  H   H3226     1.0  0.93932  0.20339  0.54172  1.0000
  S   S1105     1.0  0.95870  0.36394  0.77063  1.0000
  H   H3227     1.0  0.91256  0.23679  0.51398  1.0000
  H   H3228     1.0  0.89331  0.31430  0.91612  1.0000
  H   H3229     1.0  0.92950  0.21811  0.56109  1.0000
  H   H3230     1.0  0.90330  0.25142  0.53334  1.0000
  C   C3227     1.0  0.89161  0.18718  0.49639  1.0000
  C   C3228     1.0  0.91008  0.24417  0.55987  1.0000
  H   H3231     1.0  0.98550  0.23975  0.83100  1.0000
  H   H3232     1.0  0.64945  0.31712  0.93223  1.0000
  H   H3233     1.0  0.67768  0.20293  0.97381  1.0000
  H   H3234     1.0  0.57008  0.18794  0.84550  1.0000
  C   C3229     1.0  0.85553  0.26987  0.95609  1.0000
  C   C3230     1.0  0.94149  0.36062  0.84313  1.0000
  C   C3231     1.0  0.98219  0.19261  0.71592  1.0000
  C   C3232     1.0  0.98324  0.22820  0.57902  1.0000
  Fe  Fe549     1.0  0.91860  0.26898  0.48732  1.0000
  H   H3235     1.0  0.55597  0.24020  0.84835  1.0000
  C   C3233     1.0  0.89575  0.19426  0.53387  1.0000
  S   S1106     1.0  0.98443  0.36234  0.79645  1.0000
  C   C3234     1.0  0.99146  0.34022  0.84312  1.0000
  Fe  Fe550     1.0  0.60611  0.19482  0.86899  1.0000
  H   H3236     1.0  0.94917  0.32978  0.84654  1.0000
  H   H3237     1.0  0.87618  0.27636  0.60693  1.0000
  H   H3238     1.0  0.66375  0.33439  0.93339  1.0000
  H   H3239     1.0  0.75476  0.32416  0.88369  1.0000
  C   C3235     1.0  0.69517  0.22583  0.93380  1.0000
  H   H3240     1.0  0.57214  0.24355  0.86621  1.0000
  H   H3241     1.0  0.80622  0.29043  0.93790  1.0000
  C   C3236     1.0  0.88499  0.20184  0.54388  1.0000
  C   C3237     1.0  0.77109  0.30575  0.90241  1.0000
  S   S1107     1.0  0.86236  0.18761  0.49760  1.0000
  C   C3238     1.0  0.97372  0.28312  0.72375  1.0000
  H   H3242     1.0  0.64937  0.29314  0.93017  1.0000
  H   H3243     1.0  0.97837  0.29899  0.64285  1.0000
  C   C3239     1.0  0.78997  0.31075  0.93349  1.0000
  H   H3244     1.0  0.88010  0.37659  0.82184  1.0000
  H   H3245     1.0  0.83880  0.30174  0.90972  1.0000
  H   H3246     1.0  0.83109  0.28609  0.92072  1.0000
  C   C3240     1.0  0.97872  0.20625  0.71998  1.0000
  N   N267      1.0  0.58240  0.22239  0.91205  1.0000
  C   C3241     1.0  0.59401  0.21045  0.91016  1.0000
  C   C3242     1.0  0.58306  0.23227  0.91946  1.0000
  C   C3243     1.0  0.60709  0.20872  0.91493  1.0000
  C   C3244     1.0  0.59589  0.23083  0.92450  1.0000
  C   C3245     1.0  0.60805  0.21905  0.92205  1.0000
  S   S1108     1.0  0.94910  0.38220  0.64641  1.0000
  H   H3247     1.0  0.96906  0.36640  0.86244  1.0000
  H   H3248     1.0  0.57367  0.24143  0.92140  1.0000
  H   H3249     1.0  0.95278  0.25260  0.63979  1.0000
  H   H3250     1.0  0.59641  0.23890  0.93012  1.0000
  H   H3251     1.0  0.61819  0.21796  0.92564  1.0000
  C   C3246     1.0  0.87712  0.19574  0.49640  1.0000
  H   H3252     1.0  0.79834  0.37019  0.88046  1.0000
  C   C3247     1.0  0.90050  0.20902  0.49444  1.0000
  H   H3253     1.0  0.89970  0.24093  0.56714  1.0000
  C   C3248     1.0  0.76115  0.36672  0.90921  1.0000
  H   H3254     1.0  0.77663  0.29555  0.90940  1.0000
  C   C3249     1.0  0.92658  0.21915  0.52657  1.0000
  Fe  Fe551     1.0  0.84694  0.37092  0.87292  1.0000
  C   C3250     1.0  0.81371  0.32134  0.91338  1.0000
  N   N268      1.0  0.96240  0.27083  0.79690  1.0000
  C   C3251     1.0  0.96529  0.27769  0.80610  1.0000
  C   C3252     1.0  0.96391  0.27705  0.78210  1.0000
  C   C3253     1.0  0.97015  0.29097  0.80048  1.0000
  C   C3254     1.0  0.96862  0.29040  0.77613  1.0000
  C   C3255     1.0  0.97179  0.29736  0.78541  1.0000
  C   C3256     1.0  0.95674  0.25722  0.80303  1.0000
  H   H3255     1.0  0.96405  0.27280  0.81784  1.0000
  H   H3256     1.0  0.96146  0.27172  0.77480  1.0000
  H   H3257     1.0  0.98802  0.32074  0.74057  1.0000
  H   H3258     1.0  0.96958  0.29541  0.76443  1.0000
  H   H3259     1.0  0.99002  0.26518  0.71535  1.0000
  H   H3260     1.0  0.96107  0.24970  0.79517  1.0000
  H   H3261     1.0  0.96063  0.25089  0.81334  1.0000
  H   H3262     1.0  0.94433  0.25993  0.80550  1.0000
  C   C3257     1.0  0.78811  0.36909  0.88864  1.0000
  C   C3258     1.0  0.75048  0.29285  0.90915  1.0000
  H   H3263     1.0  0.90756  0.25625  0.55503  1.0000
  H   H3264     1.0  0.99067  0.32545  0.71331  1.0000
  C   C3259     1.0  0.56035  0.18388  0.84634  1.0000
  C   C3260     1.0  0.93138  0.21391  0.53985  1.0000
  H   H3265     1.0  0.95476  0.28298  0.66387  1.0000
  H   H3266     1.0  0.57117  0.21806  0.89790  1.0000
  C   C3261     1.0  0.77259  0.20985  0.97137  1.0000
  C   C3262     1.0  0.80439  0.30173  0.93145  1.0000
  Fe  Fe552     1.0  0.98553  0.25327  0.74872  1.0000
  H   H3267     1.0  0.83769  0.35006  0.93658  1.0000
  N   N269      1.0  0.81603  0.30708  0.92149  1.0000
  C   C3263     1.0  0.94403  0.33471  0.85641  1.0000
  C   C3264     1.0  0.95708  0.35136  0.86050  1.0000
  S   S1109     1.0  0.88354  0.20444  0.57937  1.0000
  C   C3265     1.0  0.88257  0.28494  0.60271  1.0000
  C   C3266     1.0  0.57790  0.24751  0.85461  1.0000
  H   H3268     1.0  0.69620  0.23283  0.94033  1.0000
  C   C3267     1.0  0.67938  0.29219  0.94243  1.0000
  C   C3268     1.0  0.90019  0.32586  0.94322  1.0000
  C   C3269     1.0  0.98562  0.25588  0.92309  1.0000
  H   H3269     1.0  0.95688  0.19263  0.58495  1.0000
  C   C3270     1.0  0.89258  0.32140  0.92335  1.0000
  H   H3270     1.0  0.94842  0.25984  0.66365  1.0000
  H   H3271     1.0  0.65116  0.28316  0.94870  1.0000
  H   H3272     1.0  0.93172  0.33576  0.85879  1.0000
  H   H3273     1.0  0.50553  0.19906  0.83853  1.0000
  H   H3274     1.0  0.99324  0.18628  0.64429  1.0000
  H   H3275     1.0  0.91838  0.24220  0.56673  1.0000
  C   C3271     1.0  0.56812  0.22391  0.83550  1.0000
  C   C3272     1.0  0.58223  0.21609  0.82957  1.0000
  H   H3276     1.0  0.55809  0.22199  0.83384  1.0000
  H   H3277     1.0  0.58335  0.20796  0.82328  1.0000
  C   C3273     1.0  0.94520  0.37444  0.83951  1.0000
  H   H3278     1.0  0.97845  0.28296  0.93905  1.0000
  Fe  Fe553     1.0  0.91423  0.24056  0.48314  1.0000
  N   N270      1.0  0.54900  0.18390  0.85869  1.0000
  H   H3279     1.0  0.73049  0.32242  0.88050  1.0000
  C   C3274     1.0  0.96685  0.30190  0.64091  1.0000
  H   H3280     1.0  0.77891  0.30801  0.89152  1.0000
  C   C3275     1.0  0.95448  0.27888  0.91288  1.0000
  H   H3281     1.0  0.50171  0.21802  0.90706  1.0000
  H   H3282     1.0  0.96631  0.31041  0.63045  1.0000
  C   C3276     1.0  0.75786  0.19317  0.97082  1.0000
  S   S1110     1.0  0.84475  0.32908  0.91783  1.0000
  Fe  Fe554     1.0  0.77647  0.26881  0.95921  1.0000
  H   H3283     1.0  0.86359  0.20254  0.55911  1.0000
  Fe  Fe555     1.0  0.70253  0.37360  0.91138  1.0000
  C   C3277     1.0  0.91108  0.24081  0.53533  1.0000
  H   H3284     1.0  0.86319  0.21774  0.49519  1.0000
  C   C3278     1.0  0.72969  0.30215  0.89705  1.0000
  C   C3279     1.0  0.88610  0.21773  0.49410  1.0000
  N   N271      1.0  0.96255  0.28862  0.64048  1.0000
  C   C3280     1.0  0.96500  0.28471  0.62729  1.0000
  C   C3281     1.0  0.98777  0.20370  0.59537  1.0000
  C   C3282     1.0  0.96148  0.27173  0.62684  1.0000
  H   H3285     1.0  0.73906  0.28172  0.96576  1.0000
  C   C3283     1.0  0.88730  0.28084  0.62743  1.0000
  C   C3284     1.0  0.92584  0.22230  0.55072  1.0000
  C   C3285     1.0  0.49970  0.20127  0.87431  1.0000
  H   H3286     1.0  0.97465  0.23582  0.57301  1.0000
  H   H3287     1.0  0.97634  0.33625  0.81687  1.0000
  H   H3288     1.0  0.70961  0.20644  0.94405  1.0000
  C   C3286     1.0  0.68762  0.30172  0.94336  1.0000
  C   C3287     1.0  0.68598  0.23143  0.92354  1.0000
  H   H3289     1.0  0.68377  0.28033  0.94511  1.0000
  C   C3288     1.0  0.76949  0.37646  0.90961  1.0000
  C   C3289     1.0  0.84294  0.26364  0.96226  1.0000
  H   H3290     1.0  0.89276  0.29412  0.48714  1.0000
  H   H3291     1.0  0.85848  0.30426  0.93770  1.0000
  N   N272      1.0  0.57954  0.23678  0.84579  1.0000
  H   H3292     1.0  0.59344  0.20247  0.90448  1.0000
  H   H3293     1.0  0.93385  0.35896  0.83758  1.0000
  C   C3290     1.0  0.85544  0.31385  0.94251  1.0000
  H   H3294     1.0  0.94031  0.26318  0.92268  1.0000
  C   C3291     1.0  0.94100  0.29035  0.93846  1.0000
  H   H3295     1.0  0.67982  0.24287  0.92227  1.0000
  C   C3292     1.0  0.85633  0.32523  0.96161  1.0000
  C   C3293     1.0  0.76591  0.22068  0.96065  1.0000
  H   H3296     1.0  0.91829  0.31589  0.74900  1.0000
  C   C3294     1.0  0.66018  0.31269  0.93534  1.0000
  C   C3295     1.0  0.90631  0.32065  0.70461  1.0000
  C   C3296     1.0  0.87177  0.19699  0.55092  1.0000
  H   H3297     1.0  0.90425  0.32884  0.72931  1.0000
  H   H3298     1.0  0.89750  0.27944  0.63153  1.0000
  C   C3297     1.0  0.57620  0.30722  0.90417  1.0000
  S   S1111     1.0  0.97814  0.29801  0.86116  1.0000
  C   C3298     1.0  0.96905  0.20960  0.58151  1.0000
  C   C3299     1.0  0.84169  0.25421  0.97630  1.0000
  Fe  Fe556     1.0  0.49916  0.26973  0.88032  1.0000
  C   C3300     1.0  0.68198  0.31697  0.94004  1.0000
  H   H3299     1.0  0.90619  0.19773  0.52841  1.0000
  H   H3300     1.0  0.56850  0.30388  0.91448  1.0000
  C   C3301     1.0  0.59166  0.31129  0.91839  1.0000
  H   H3301     1.0  0.58963  0.30103  0.92674  1.0000
  C   C3302     1.0  0.95673  0.27982  0.65344  1.0000
  H   H3302     1.0  0.75589  0.28460  0.91738  1.0000
  H   H3303     1.0  0.83592  0.29777  0.92952  1.0000
  N   N273      1.0  0.75689  0.30434  0.90050  1.0000
  C   C3303     1.0  0.50671  0.20211  0.84805  1.0000
  H   H3304     1.0  0.60341  0.23094  0.84191  1.0000
  N   N274      1.0  0.66597  0.29775  0.93822  1.0000
  H   H3305     1.0  0.97606  0.37251  0.65753  1.0000
  C   C3304     1.0  0.97363  0.18562  0.59798  1.0000
  H   H3306     1.0  0.77635  0.33242  0.92661  1.0000
  C   C3305     1.0  0.56698  0.23424  0.84367  1.0000
  H   H3307     1.0  0.97268  0.29624  0.80779  1.0000
  C   C3306     1.0  0.50924  0.21067  0.87249  1.0000
  C   C3307     1.0  0.95510  0.37661  0.84653  1.0000
  C   C3308     1.0  0.87438  0.21105  0.49523  1.0000
  H   H3308     1.0  0.75090  0.36565  0.91735  1.0000
  N   N275      1.0  0.99007  0.26444  0.92949  1.0000
  H   H3309     1.0  0.92743  0.37803  0.72865  1.0000
  S   S1112     1.0  0.93468  0.24818  0.48217  1.0000
  C   C3309     1.0  0.98195  0.34104  0.82201  1.0000
  Fe  Fe557     1.0  0.91396  0.29020  0.97182  1.0000
  C   C3310     1.0  0.96568  0.19565  0.58781  1.0000
  H   H3310     1.0  0.96847  0.26851  0.94408  1.0000
  H   H3311     1.0  0.99423  0.22722  0.57108  1.0000
  S   S1113     1.0  0.58886  0.18661  0.86390  1.0000
  C   C3311     1.0  0.81241  0.29988  0.97150  1.0000
  C   C3312     1.0  0.49831  0.19713  0.86208  1.0000
  C   C3313     1.0  0.98491  0.18955  0.60163  1.0000
  C   C3314     1.0  0.97070  0.38355  0.65929  1.0000
  H   H3312     1.0  0.87666  0.30066  0.47923  1.0000
  H   H3313     1.0  0.94331  0.18513  0.71546  1.0000
  S   S1114     1.0  0.99396  0.33175  0.86116  1.0000
  C   C3315     1.0  0.99453  0.35990  0.82112  1.0000
  Fe  Fe558     1.0  0.99485  0.30742  0.86584  1.0000
  H   H3314     1.0  0.76560  0.38291  0.91802  1.0000
  H   H3315     1.0  0.59648  0.53224  0.12315  1.0000
  Fe  Fe559     1.0  0.98849  0.57384  0.30784  1.0000
  Fe  Fe560     1.0  0.79879  0.51343  0.00411  1.0000
  S   S1115     1.0  0.81081  0.50057  0.02227  1.0000
  C   C3316     1.0  0.74231  0.56269  0.00494  1.0000
  S   S1116     1.0  0.88248  0.50878  0.99220  1.0000
  H   H3316     1.0  0.78656  0.43203  0.15893  1.0000
  Fe  Fe561     1.0  0.90147  0.50529  0.00312  1.0000
  S   S1117     1.0  0.89696  0.49943  0.02803  1.0000
  S   S1118     1.0  0.96087  0.57223  0.46661  1.0000
  Fe  Fe562     1.0  0.71216  0.49132  0.14461  1.0000
  S   S1119     1.0  0.71369  0.47716  0.12898  1.0000
  S   S1120     1.0  0.69834  0.51404  0.14764  1.0000
  Fe  Fe563     1.0  0.73907  0.47100  0.15662  1.0000
  S   S1121     1.0  0.74308  0.45506  0.14226  1.0000
  S   S1122     1.0  0.75222  0.46638  0.17404  1.0000
  Fe  Fe564     1.0  0.73847  0.47545  0.12455  1.0000
  S   S1123     1.0  0.75441  0.47760  0.10251  1.0000
  Fe  Fe565     1.0  0.71819  0.45771  0.14795  1.0000
  S   S1124     1.0  0.73673  0.49111  0.13845  1.0000
  S   S1125     1.0  0.71446  0.47209  0.16399  1.0000
  S   S1126     1.0  0.98528  0.51801  0.17991  1.0000
  S   S1127     1.0  0.60556  0.56365  0.16974  1.0000
  C   C3317     1.0  0.97305  0.52292  0.26557  1.0000
  C   C3318     1.0  0.72760  0.40745  0.18337  1.0000
  C   C3319     1.0  0.75007  0.40416  0.19779  1.0000
  H   H3317     1.0  0.70177  0.40869  0.16258  1.0000
  Fe  Fe566     1.0  0.61993  0.56202  0.14725  1.0000
  S   S1128     1.0  0.63118  0.54020  0.14062  1.0000
  H   H3318     1.0  0.55413  0.54315  0.17804  1.0000
  C   C3320     1.0  0.56344  0.54103  0.16885  1.0000
  C   C3321     1.0  0.73360  0.41946  0.18235  1.0000
  H   H3319     1.0  0.97914  0.52895  0.25550  1.0000
  Fe  Fe567     1.0  0.81463  0.54233  0.07374  1.0000
  S   S1129     1.0  0.80207  0.56269  0.08237  1.0000
  S   S1130     1.0  0.82803  0.54348  0.05048  1.0000
  Fe  Fe568     1.0  0.80472  0.52164  0.10251  1.0000
  S   S1131     1.0  0.79110  0.53988  0.11396  1.0000
  S   S1132     1.0  0.80747  0.49751  0.11277  1.0000
  Fe  Fe569     1.0  0.78356  0.55051  0.09264  1.0000
  S   S1133     1.0  0.75960  0.56065  0.09117  1.0000
  Fe  Fe570     1.0  0.81075  0.55043  0.10282  1.0000
  S   S1134     1.0  0.81806  0.56274  0.11511  1.0000
  S   S1135     1.0  0.79537  0.53115  0.08218  1.0000
  S   S1136     1.0  0.82509  0.53114  0.09320  1.0000
  Fe  Fe571     1.0  0.82071  0.48173  0.18014  1.0000
  S   S1137     1.0  0.82338  0.45785  0.18078  1.0000
  S   S1138     1.0  0.80454  0.49773  0.16679  1.0000
  Fe  Fe572     1.0  0.84632  0.47538  0.19548  1.0000
  S   S1139     1.0  0.85114  0.45090  0.19717  1.0000
  S   S1140     1.0  0.86235  0.48399  0.20249  1.0000
  Fe  Fe573     1.0  0.84781  0.45696  0.17406  1.0000
  S   S1141     1.0  0.85936  0.44341  0.15710  1.0000
  Fe  Fe574     1.0  0.82627  0.45377  0.20381  1.0000
  S   S1142     1.0  0.81775  0.43487  0.22043  1.0000
  S   S1143     1.0  0.84515  0.48125  0.17150  1.0000
  S   S1144     1.0  0.82142  0.47792  0.20412  1.0000
  Fe  Fe575     1.0  0.91612  0.52232  0.08781  1.0000
  S   S1145     1.0  0.91819  0.53194  0.10570  1.0000
  S   S1146     1.0  0.91723  0.53354  0.06373  1.0000
  Fe  Fe576     1.0  0.91019  0.49388  0.10866  1.0000
  S   S1147     1.0  0.91131  0.50056  0.12868  1.0000
  S   S1148     1.0  0.90654  0.47302  0.10583  1.0000
  Fe  Fe577     1.0  0.89820  0.52268  0.11903  1.0000
  S   S1149     1.0  0.88026  0.53616  0.13359  1.0000
  Fe  Fe578     1.0  0.93128  0.50925  0.11417  1.0000
  S   S1150     1.0  0.95146  0.50274  0.12435  1.0000
  S   S1151     1.0  0.89497  0.51514  0.10050  1.0000
  S   S1152     1.0  0.93130  0.50056  0.09487  1.0000
  H   H3320     1.0  0.55880  0.56883  0.12180  1.0000
  S   S1153     1.0  0.95441  0.50560  0.21063  1.0000
  C   C3322     1.0  0.84819  0.55726  0.07307  1.0000
  Fe  Fe579     1.0  0.89422  0.45896  0.29627  1.0000
  S   S1154     1.0  0.86942  0.46652  0.30339  1.0000
  S   S1155     1.0  0.90288  0.43441  0.30294  1.0000
  Fe  Fe580     1.0  0.89882  0.49011  0.28312  1.0000
  S   S1156     1.0  0.87429  0.50008  0.28883  1.0000
  S   S1157     1.0  0.91330  0.50690  0.27436  1.0000
  Fe  Fe581     1.0  0.87481  0.48411  0.31064  1.0000
  S   S1158     1.0  0.86134  0.49189  0.33130  1.0000
  Fe  Fe582     1.0  0.87116  0.48166  0.28094  1.0000
  S   S1159     1.0  0.85234  0.48569  0.26945  1.0000
  S   S1160     1.0  0.89955  0.47525  0.30557  1.0000
  S   S1161     1.0  0.89575  0.47295  0.27310  1.0000
  Fe  Fe583     1.0  0.94526  0.46840  0.37329  1.0000
  S   S1162     1.0  0.92959  0.47694  0.39269  1.0000
  S   S1163     1.0  0.95499  0.44434  0.37312  1.0000
  Fe  Fe584     1.0  0.94514  0.49927  0.35407  1.0000
  S   S1164     1.0  0.92949  0.51046  0.37175  1.0000
  S   S1165     1.0  0.95220  0.51256  0.33137  1.0000
  Fe  Fe585     1.0  0.94347  0.49394  0.38691  1.0000
  S   S1166     1.0  0.95498  0.49837  0.40230  1.0000
  Fe  Fe586     1.0  0.91719  0.49247  0.37562  1.0000
  S   S1167     1.0  0.89212  0.49759  0.37903  1.0000
  S   S1168     1.0  0.96019  0.48413  0.36867  1.0000
  S   S1169     1.0  0.93190  0.48262  0.35675  1.0000
  C   C3323     1.0  0.59957  0.53529  0.13199  1.0000
  H   H3321     1.0  0.60344  0.54584  0.12727  1.0000
  S   S1170     1.0  0.89759  0.40527  0.25429  1.0000
  H   H3322     1.0  0.72855  0.43509  0.12754  1.0000
  C   C3324     1.0  0.53834  0.56978  0.13850  1.0000
  S   S1171     1.0  0.74641  0.54329  0.00889  1.0000
  H   H3323     1.0  0.94408  0.53505  0.11784  1.0000
  C   C3325     1.0  0.96795  0.56865  0.25301  1.0000
  H   H3324     1.0  0.75898  0.40273  0.20336  1.0000
  S   S1172     1.0  0.90798  0.40380  0.40134  1.0000
  H   H3325     1.0  0.82034  0.38505  0.24155  1.0000
  C   C3326     1.0  0.88517  0.55772  0.08913  1.0000
  H   H3326     1.0  0.95732  0.43393  0.40302  1.0000
  H   H3327     1.0  0.66955  0.55145  0.12050  1.0000
  C   C3327     1.0  0.97179  0.57119  0.22257  1.0000
  S   S1173     1.0  0.52903  0.56463  0.12805  1.0000
  H   H3328     1.0  0.92288  0.38760  0.29372  1.0000
  C   C3328     1.0  0.96565  0.52562  0.34446  1.0000
  C   C3329     1.0  0.95161  0.53106  0.12535  1.0000
  C   C3330     1.0  0.83943  0.50111  0.12657  1.0000
  S   S1174     1.0  0.91682  0.48890  0.99002  1.0000
  H   H3329     1.0  0.98859  0.53900  0.26972  1.0000
  S   S1175     1.0  0.99224  0.55039  0.17543  1.0000
  C   C3331     1.0  0.95601  0.54114  0.13044  1.0000
  C   C3332     1.0  0.94861  0.46156  0.42084  1.0000
  Fe  Fe587     1.0  0.96460  0.56560  0.44538  1.0000
  H   H3330     1.0  0.71878  0.40898  0.17769  1.0000
  S   S1176     1.0  0.80961  0.51476  0.98014  1.0000
  S   S1177     1.0  0.97045  0.54889  0.14703  1.0000
  H   H3331     1.0  0.87701  0.39442  0.32472  1.0000
  H   H3332     1.0  0.89601  0.55430  0.08150  1.0000
  C   C3333     1.0  0.94161  0.43335  0.37999  1.0000
  C   C3334     1.0  0.92730  0.43892  0.38773  1.0000
  C   C3335     1.0  0.91712  0.42969  0.39430  1.0000
  C   C3336     1.0  0.92098  0.41501  0.39270  1.0000
  C   C3337     1.0  0.93510  0.40956  0.38451  1.0000
  C   C3338     1.0  0.94548  0.41867  0.37834  1.0000
  H   H3333     1.0  0.92416  0.45024  0.38894  1.0000
  H   H3334     1.0  0.90621  0.43393  0.40065  1.0000
  H   H3335     1.0  0.93816  0.39820  0.38331  1.0000
  H   H3336     1.0  0.95656  0.41432  0.37237  1.0000
  C   C3339     1.0  0.93070  0.51599  0.41740  1.0000
  C   C3340     1.0  0.94609  0.50995  0.41495  1.0000
  C   C3341     1.0  0.56103  0.53838  0.15631  1.0000
  H   H3337     1.0  0.75767  0.42837  0.19649  1.0000
  H   H3338     1.0  0.92385  0.51342  0.41164  1.0000
  C   C3342     1.0  0.97538  0.57918  0.24284  1.0000
  S   S1178     1.0  0.70846  0.43722  0.15628  1.0000
  C   C3343     1.0  0.90194  0.42593  0.28946  1.0000
  C   C3344     1.0  0.90632  0.43224  0.27446  1.0000
  C   C3345     1.0  0.90535  0.42556  0.26372  1.0000
  C   C3346     1.0  0.89987  0.41263  0.26795  1.0000
  C   C3347     1.0  0.89556  0.40624  0.28296  1.0000
  C   C3348     1.0  0.89659  0.41292  0.29370  1.0000
  H   H3339     1.0  0.91068  0.44215  0.27111  1.0000
  H   H3340     1.0  0.90874  0.43049  0.25211  1.0000
  Fe  Fe588     1.0  0.58876  0.58015  0.15764  1.0000
  H   H3341     1.0  0.89289  0.40824  0.30528  1.0000
  C   C3349     1.0  0.87033  0.49244  0.34466  1.0000
  C   C3350     1.0  0.86174  0.49857  0.35671  1.0000
  C   C3351     1.0  0.86855  0.49977  0.36730  1.0000
  C   C3352     1.0  0.88401  0.49480  0.36600  1.0000
  C   C3353     1.0  0.89257  0.48825  0.35416  1.0000
  C   C3354     1.0  0.88576  0.48714  0.34345  1.0000
  H   H3342     1.0  0.84977  0.50260  0.35777  1.0000
  H   H3343     1.0  0.86181  0.50476  0.37645  1.0000
  H   H3344     1.0  0.90440  0.48409  0.35315  1.0000
  H   H3345     1.0  0.89248  0.48218  0.33434  1.0000
  C   C3355     1.0  0.94329  0.50607  0.22842  1.0000
  C   C3356     1.0  0.94106  0.51806  0.23482  1.0000
  C   C3357     1.0  0.93185  0.51823  0.24899  1.0000
  C   C3358     1.0  0.92496  0.50639  0.25677  1.0000
  C   C3359     1.0  0.92734  0.49435  0.25042  1.0000
  C   C3360     1.0  0.93639  0.49425  0.23622  1.0000
  H   H3346     1.0  0.92998  0.52760  0.25385  1.0000
  H   H3347     1.0  0.92232  0.48506  0.25646  1.0000
  H   H3348     1.0  0.93821  0.48490  0.23134  1.0000
  C   C3361     1.0  0.95709  0.51584  0.12991  1.0000
  C   C3362     1.0  0.96698  0.51078  0.13952  1.0000
  C   C3363     1.0  0.79225  0.43143  0.19499  1.0000
  H   H3349     1.0  0.96582  0.55826  0.41742  1.0000
  H   H3350     1.0  0.97133  0.49902  0.14298  1.0000
  C   C3364     1.0  0.95103  0.44115  0.41054  1.0000
  C   C3365     1.0  0.85962  0.48269  0.22152  1.0000
  C   C3366     1.0  0.87201  0.48011  0.22774  1.0000
  C   C3367     1.0  0.86998  0.48043  0.24264  1.0000
  C   C3368     1.0  0.85552  0.48354  0.25128  1.0000
  C   C3369     1.0  0.84315  0.48574  0.24515  1.0000
  C   C3370     1.0  0.84519  0.48527  0.23031  1.0000
  H   H3351     1.0  0.88320  0.47809  0.22094  1.0000
  H   H3352     1.0  0.87956  0.47865  0.24732  1.0000
  H   H3353     1.0  0.83194  0.48814  0.25182  1.0000
  H   H3354     1.0  0.83558  0.48737  0.22556  1.0000
  C   C3371     1.0  0.80841  0.42760  0.21179  1.0000
  C   C3372     1.0  0.79883  0.43713  0.20282  1.0000
  H   H3355     1.0  0.79642  0.44894  0.20199  1.0000
  H   H3356     1.0  0.97218  0.45269  0.39049  1.0000
  C   C3373     1.0  0.87276  0.45159  0.14321  1.0000
  C   C3374     1.0  0.87847  0.44645  0.13013  1.0000
  C   C3375     1.0  0.88893  0.45305  0.11874  1.0000
  C   C3376     1.0  0.89374  0.46478  0.12042  1.0000
  C   C3377     1.0  0.88816  0.46985  0.13356  1.0000
  C   C3378     1.0  0.87765  0.46326  0.14497  1.0000
  H   H3357     1.0  0.87478  0.43738  0.12877  1.0000
  H   H3358     1.0  0.89329  0.44905  0.10863  1.0000
  H   H3359     1.0  0.89210  0.47870  0.13500  1.0000
  H   H3360     1.0  0.87358  0.46699  0.15521  1.0000
  H   H3361     1.0  0.60067  0.53991  0.15740  1.0000
  H   H3362     1.0  0.88476  0.56890  0.09046  1.0000
  H   H3363     1.0  0.97688  0.53450  0.38295  1.0000
  C   C3379     1.0  0.92900  0.44795  0.42902  1.0000
  H   H3364     1.0  0.93353  0.54523  0.16840  1.0000
  H   H3365     1.0  0.86284  0.53908  0.06380  1.0000
  C   C3380     1.0  0.92331  0.38925  0.31539  1.0000
  N   N276      1.0  0.95635  0.45273  0.41105  1.0000
  H   H3366     1.0  0.71875  0.56444  0.01439  1.0000
  H   H3367     1.0  0.85810  0.38711  0.35538  1.0000
  C   C3381     1.0  0.83546  0.55519  0.11993  1.0000
  C   C3382     1.0  0.83936  0.56121  0.12954  1.0000
  C   C3383     1.0  0.85314  0.55528  0.13370  1.0000
  C   C3384     1.0  0.86322  0.54354  0.12798  1.0000
  C   C3385     1.0  0.85942  0.53769  0.11818  1.0000
  C   C3386     1.0  0.84548  0.54336  0.11432  1.0000
  C   C3387     1.0  0.85175  0.40988  0.20983  1.0000
  H   H3368     1.0  0.85602  0.55985  0.14130  1.0000
  H   H3369     1.0  0.86695  0.52844  0.11398  1.0000
  H   H3370     1.0  0.84262  0.53865  0.10692  1.0000
  H   H3371     1.0  0.75931  0.50327  0.98378  1.0000
  C   C3388     1.0  0.78969  0.45399  0.14784  1.0000
  H   H3372     1.0  0.91815  0.44630  0.43576  1.0000
  H   H3373     1.0  0.76477  0.46348  0.98965  1.0000
  H   H3374     1.0  0.95141  0.50128  0.30125  1.0000
  H   H3375     1.0  0.95622  0.55165  0.25578  1.0000
  Fe  Fe589     1.0  0.93661  0.57874  0.46616  1.0000
  C   C3389     1.0  0.93476  0.45941  0.42987  1.0000
  H   H3376     1.0  0.73656  0.41510  0.11354  1.0000
  S   S1179     1.0  0.63131  0.57996  0.14567  1.0000
  C   C3390     1.0  0.97104  0.52083  0.14492  1.0000
  H   H3377     1.0  0.83598  0.49643  0.11940  1.0000
  C   C3391     1.0  0.73300  0.39360  0.19178  1.0000
  C   C3392     1.0  0.57303  0.53646  0.14424  1.0000
  C   C3393     1.0  0.84761  0.40039  0.19107  1.0000
  Fe  Fe590     1.0  0.96814  0.52288  0.20022  1.0000
  C   C3394     1.0  0.57778  0.54156  0.16925  1.0000
  S   S1180     1.0  0.98410  0.56152  0.33150  1.0000
  C   C3395     1.0  0.79283  0.49202  0.10968  1.0000
  C   C3396     1.0  0.79492  0.47772  0.10764  1.0000
  C   C3397     1.0  0.78317  0.47337  0.10513  1.0000
  C   C3398     1.0  0.76928  0.48323  0.10493  1.0000
  C   C3399     1.0  0.76718  0.49751  0.10704  1.0000
  C   C3400     1.0  0.77900  0.50195  0.10927  1.0000
  H   H3378     1.0  0.80563  0.47006  0.10786  1.0000
  H   H3379     1.0  0.78477  0.46231  0.10356  1.0000
  H   H3380     1.0  0.75641  0.50511  0.10695  1.0000
  H   H3381     1.0  0.77735  0.51296  0.11094  1.0000
  C   C3401     1.0  0.76634  0.47575  0.17164  1.0000
  C   C3402     1.0  0.77410  0.47221  0.18295  1.0000
  C   C3403     1.0  0.78576  0.47902  0.18143  1.0000
  C   C3404     1.0  0.78964  0.48958  0.16865  1.0000
  C   C3405     1.0  0.78177  0.49336  0.15735  1.0000
  C   C3406     1.0  0.77014  0.48638  0.15881  1.0000
  H   H3382     1.0  0.77112  0.46410  0.19294  1.0000
  H   H3383     1.0  0.79165  0.47620  0.19027  1.0000
  H   H3384     1.0  0.78487  0.50141  0.14735  1.0000
  H   H3385     1.0  0.76427  0.48910  0.14998  1.0000
  C   C3407     1.0  0.67945  0.52051  0.14627  1.0000
  C   C3408     1.0  0.67130  0.53355  0.15100  1.0000
  C   C3409     1.0  0.65638  0.53943  0.14965  1.0000
  C   C3410     1.0  0.64958  0.53245  0.14330  1.0000
  C   C3411     1.0  0.65769  0.51938  0.13860  1.0000
  C   C3412     1.0  0.67258  0.51336  0.14014  1.0000
  H   H3386     1.0  0.67652  0.53909  0.15582  1.0000
  H   H3387     1.0  0.65021  0.54941  0.15346  1.0000
  H   H3388     1.0  0.65249  0.51390  0.13369  1.0000
  H   H3389     1.0  0.67880  0.50332  0.13643  1.0000
  C   C3413     1.0  0.72747  0.57043  0.00850  1.0000
  C   C3414     1.0  0.56118  0.57453  0.14095  1.0000
  C   C3415     1.0  0.98565  0.53078  0.28013  1.0000
  H   H3390     1.0  0.96030  0.55337  0.22884  1.0000
  C   C3416     1.0  0.90219  0.50953  0.03761  1.0000
  C   C3417     1.0  0.89998  0.50502  0.05302  1.0000
  C   C3418     1.0  0.90465  0.51228  0.06104  1.0000
  C   C3419     1.0  0.91116  0.52442  0.05378  1.0000
  C   C3420     1.0  0.91301  0.52921  0.03838  1.0000
  C   C3421     1.0  0.90864  0.52171  0.03028  1.0000
  H   H3391     1.0  0.89503  0.49558  0.05878  1.0000
  H   H3392     1.0  0.90344  0.50823  0.07282  1.0000
  H   H3393     1.0  0.91807  0.53858  0.03268  1.0000
  H   H3394     1.0  0.91036  0.52530  0.01840  1.0000
  H   H3395     1.0  0.57090  0.53491  0.13437  1.0000
  C   C3422     1.0  0.81581  0.51243  0.02999  1.0000
  C   C3423     1.0  0.81832  0.52625  0.02156  1.0000
  C   C3424     1.0  0.82188  0.53585  0.02795  1.0000
  C   C3425     1.0  0.82306  0.53162  0.04274  1.0000
  C   C3426     1.0  0.82070  0.51774  0.05115  1.0000
  C   C3427     1.0  0.81726  0.50809  0.04472  1.0000
  H   H3396     1.0  0.81782  0.52947  0.01003  1.0000
  H   H3397     1.0  0.82370  0.54657  0.02141  1.0000
  H   H3398     1.0  0.82179  0.51432  0.06255  1.0000
  H   H3399     1.0  0.81548  0.49735  0.05125  1.0000
  H   H3400     1.0  0.86226  0.48864  0.12270  1.0000
  C   C3428     1.0  0.87388  0.54758  0.07535  1.0000
  C   C3429     1.0  0.94724  0.55606  0.41026  1.0000
  C   C3430     1.0  0.79966  0.46341  0.14330  1.0000
  H   H3401     1.0  0.95464  0.49003  0.05495  1.0000
  H   H3402     1.0  0.75335  0.58079  0.03948  1.0000
  C   C3431     1.0  0.94298  0.49572  0.05402  1.0000
  N   N277      1.0  0.83344  0.51770  0.14289  1.0000
  H   H3403     1.0  0.94630  0.52725  0.22880  1.0000
  H   H3404     1.0  0.83163  0.57037  0.13392  1.0000
  H   H3405     1.0  0.94313  0.50422  0.04349  1.0000
  C   C3432     1.0  0.92412  0.52537  0.42743  1.0000
  S   S1181     1.0  0.60235  0.57709  0.13523  1.0000
  C   C3433     1.0  0.55328  0.57091  0.13268  1.0000
  H   H3406     1.0  0.71041  0.38846  0.14900  1.0000
  N   N278      1.0  0.74439  0.53142  0.14119  1.0000
  C   C3434     1.0  0.73218  0.52517  0.14650  1.0000
  C   C3435     1.0  0.75469  0.52863  0.14961  1.0000
  C   C3436     1.0  0.72995  0.51599  0.16065  1.0000
  C   C3437     1.0  0.75271  0.51964  0.16388  1.0000
  C   C3438     1.0  0.74033  0.51315  0.16934  1.0000
  C   C3439     1.0  0.74695  0.54040  0.12608  1.0000
  H   H3407     1.0  0.72419  0.52703  0.13973  1.0000
  H   H3408     1.0  0.76461  0.53322  0.14526  1.0000
  H   H3409     1.0  0.72037  0.51084  0.16470  1.0000
  H   H3410     1.0  0.76100  0.51726  0.17046  1.0000
  H   H3411     1.0  0.73897  0.50566  0.18013  1.0000
  H   H3412     1.0  0.75353  0.53323  0.11820  1.0000
  H   H3413     1.0  0.73623  0.54638  0.12269  1.0000
  H   H3414     1.0  0.75313  0.54898  0.12502  1.0000
  N   N279      1.0  0.74458  0.41774  0.18965  1.0000
  C   C3440     1.0  0.71467  0.42323  0.14604  1.0000
  C   C3441     1.0  0.85702  0.39540  0.21708  1.0000
  C   C3442     1.0  0.94301  0.55014  0.40077  1.0000
  C   C3443     1.0  0.75062  0.43052  0.18838  1.0000
  S   S1182     1.0  0.92438  0.54135  0.44677  1.0000
  N   N280      1.0  0.58707  0.53695  0.14476  1.0000
  H   H3415     1.0  0.85105  0.41911  0.21449  1.0000
  C   C3444     1.0  0.93223  0.38678  0.32544  1.0000
  C   C3445     1.0  0.80486  0.40659  0.20502  1.0000
  H   H3416     1.0  0.76086  0.38755  0.11777  1.0000
  C   C3446     1.0  0.95482  0.51331  0.42256  1.0000
  N   N281      1.0  0.85953  0.52333  0.02366  1.0000
  C   C3447     1.0  0.86674  0.52778  0.03148  1.0000
  C   C3448     1.0  0.85584  0.53241  0.01089  1.0000
  C   C3449     1.0  0.87053  0.54162  0.02653  1.0000
  C   C3450     1.0  0.85926  0.54639  0.00573  1.0000
  C   C3451     1.0  0.86672  0.55097  0.01358  1.0000
  C   C3452     1.0  0.85649  0.50843  0.02870  1.0000
  H   H3417     1.0  0.86980  0.52049  0.04150  1.0000
  H   H3418     1.0  0.85012  0.52892  0.00466  1.0000
  C   C3453     1.0  0.86178  0.54720  0.07005  1.0000
  H   H3419     1.0  0.85623  0.55359  0.99565  1.0000
  H   H3420     1.0  0.76507  0.56460  0.99472  1.0000
  H   H3421     1.0  0.86699  0.50008  0.02615  1.0000
  H   H3422     1.0  0.85192  0.50601  0.04083  1.0000
  H   H3423     1.0  0.97731  0.53574  0.35381  1.0000
  C   C3454     1.0  0.79426  0.43939  0.15517  1.0000
  H   H3424     1.0  0.79602  0.47476  0.13771  1.0000
  N   N282      1.0  0.81373  0.45848  0.14604  1.0000
  C   C3455     1.0  0.81841  0.44410  0.15302  1.0000
  C   C3456     1.0  0.80871  0.43436  0.15775  1.0000
  C   C3457     1.0  0.82389  0.46866  0.14092  1.0000
  H   H3425     1.0  0.82962  0.44013  0.15509  1.0000
  H   H3426     1.0  0.81226  0.42303  0.16357  1.0000
  H   H3427     1.0  0.81804  0.47944  0.14400  1.0000
  H   H3428     1.0  0.83386  0.46430  0.14594  1.0000
  H   H3429     1.0  0.82769  0.47058  0.12870  1.0000
  H   H3430     1.0  0.93877  0.56173  0.41819  1.0000
  S   S1183     1.0  0.78997  0.53785  0.00200  1.0000
  H   H3431     1.0  0.92847  0.46674  0.43728  1.0000
  H   H3432     1.0  0.87649  0.54497  0.03265  1.0000
  S   S1184     1.0  0.77767  0.50897  0.00210  1.0000
  S   S1185     1.0  0.89102  0.38814  0.34905  1.0000
  H   H3433     1.0  0.73535  0.49647  0.98644  1.0000
  H   H3434     1.0  0.84814  0.50722  0.02336  1.0000
  C   C3458     1.0  0.95494  0.50769  0.27742  1.0000
  H   H3435     1.0  0.97116  0.46719  0.39909  1.0000
  S   S1186     1.0  0.96548  0.56670  0.27209  1.0000
  C   C3459     1.0  0.55419  0.57699  0.15511  1.0000
  C   C3460     1.0  0.93329  0.53455  0.16694  1.0000
  H   H3436     1.0  0.93775  0.50185  0.06302  1.0000
  H   H3437     1.0  0.54983  0.53841  0.15570  1.0000
  H   H3438     1.0  0.93287  0.42974  0.41858  1.0000
  N   N283      1.0  0.97505  0.52288  0.27908  1.0000
  H   H3439     1.0  0.83606  0.57482  0.08445  1.0000
  H   H3440     1.0  0.98491  0.54474  0.39960  1.0000
  H   H3441     1.0  0.78484  0.43889  0.18806  1.0000
  H   H3442     1.0  0.85117  0.51797  0.15220  1.0000
  H   H3443     1.0  0.68868  0.56678  0.11079  1.0000
  C   C3461     1.0  0.72913  0.41360  0.12434  1.0000
  H   H3444     1.0  0.96975  0.55822  0.31047  1.0000
  S   S1187     1.0  0.98546  0.56997  0.42865  1.0000
  H   H3445     1.0  0.84262  0.49259  0.99656  1.0000
  H   H3446     1.0  0.57968  0.54403  0.17878  1.0000
  H   H3447     1.0  0.86956  0.56174  0.00957  1.0000
  C   C3462     1.0  0.96881  0.54913  0.31992  1.0000
  S   S1188     1.0  0.97408  0.57320  0.20351  1.0000
  C   C3463     1.0  0.97311  0.54632  0.39996  1.0000
  H   H3448     1.0  0.74140  0.44026  0.19036  1.0000
  H   H3449     1.0  0.81876  0.40492  0.21988  1.0000
  C   C3464     1.0  0.84677  0.56736  0.08152  1.0000
  S   S1189     1.0  0.98384  0.52981  0.20921  1.0000
  C   C3465     1.0  0.97451  0.54822  0.33209  1.0000
  C   C3466     1.0  0.96240  0.55945  0.24794  1.0000
  C   C3467     1.0  0.82255  0.52878  0.15049  1.0000
  H   H3450     1.0  0.81760  0.51461  0.13282  1.0000
  H   H3451     1.0  0.81415  0.53548  0.14382  1.0000
  H   H3452     1.0  0.81668  0.52319  0.16138  1.0000
  H   H3453     1.0  0.82811  0.53665  0.15220  1.0000
  N   N284      1.0  0.87988  0.51397  0.23685  1.0000
  C   C3468     1.0  0.88187  0.51365  0.22233  1.0000
  C   C3469     1.0  0.86579  0.51644  0.24557  1.0000
  C   C3470     1.0  0.86954  0.51609  0.21612  1.0000
  C   C3471     1.0  0.85322  0.51902  0.23969  1.0000
  C   C3472     1.0  0.85514  0.51880  0.22488  1.0000
  C   C3473     1.0  0.89300  0.51053  0.24328  1.0000
  H   H3454     1.0  0.89305  0.51112  0.21558  1.0000
  H   H3455     1.0  0.86417  0.51590  0.25727  1.0000
  H   H3456     1.0  0.87113  0.51524  0.20477  1.0000
  H   H3457     1.0  0.84210  0.52040  0.24680  1.0000
  H   H3458     1.0  0.84552  0.52011  0.22036  1.0000
  H   H3459     1.0  0.90198  0.51591  0.23554  1.0000
  H   H3460     1.0  0.89027  0.51450  0.25369  1.0000
  H   H3461     1.0  0.89744  0.49837  0.24578  1.0000
  H   H3462     1.0  0.95296  0.47055  0.42150  1.0000
  H   H3463     1.0  0.80745  0.39483  0.20567  1.0000
  H   H3464     1.0  0.85697  0.46216  0.98799  1.0000
  H   H3465     1.0  0.93789  0.53348  0.38627  1.0000
  C   C3474     1.0  0.93290  0.52888  0.43493  1.0000
  C   C3475     1.0  0.97067  0.45534  0.40140  1.0000
  C   C3476     1.0  0.85835  0.50284  0.13774  1.0000
  H   H3466     1.0  0.72936  0.43020  0.17574  1.0000
  C   C3477     1.0  0.92978  0.38584  0.30156  1.0000
  H   H3467     1.0  0.97854  0.51677  0.15243  1.0000
  N   N285      1.0  0.87248  0.55775  0.08336  1.0000
  C   C3478     1.0  0.96037  0.52640  0.33205  1.0000
  H   H3468     1.0  0.75767  0.43338  0.17714  1.0000
  N   N286      1.0  0.95360  0.54232  0.39126  1.0000
  C   C3479     1.0  0.94899  0.53635  0.38127  1.0000
  N   N287      1.0  0.89449  0.52120  0.31865  1.0000
  C   C3480     1.0  0.90894  0.52194  0.31159  1.0000
  C   C3481     1.0  0.88934  0.52236  0.33310  1.0000
  C   C3482     1.0  0.91853  0.52422  0.31895  1.0000
  C   C3483     1.0  0.89872  0.52433  0.34088  1.0000
  C   C3484     1.0  0.91339  0.52533  0.33371  1.0000
  C   C3485     1.0  0.88488  0.51808  0.31096  1.0000
  H   H3469     1.0  0.91311  0.52067  0.30023  1.0000
  H   H3470     1.0  0.87801  0.52139  0.33882  1.0000
  H   H3471     1.0  0.92996  0.52491  0.31336  1.0000
  H   H3472     1.0  0.89473  0.52475  0.35249  1.0000
  H   H3473     1.0  0.92082  0.52679  0.33963  1.0000
  H   H3474     1.0  0.88715  0.50596  0.31192  1.0000
  H   H3475     1.0  0.87281  0.52188  0.31581  1.0000
  H   H3476     1.0  0.88703  0.52362  0.29904  1.0000
  N   N288      1.0  0.89657  0.43136  0.34836  1.0000
  C   C3486     1.0  0.88570  0.44177  0.34212  1.0000
  C   C3487     1.0  0.89907  0.43209  0.36141  1.0000
  C   C3488     1.0  0.87667  0.45306  0.34919  1.0000
  C   C3489     1.0  0.89035  0.44335  0.36868  1.0000
  C   C3490     1.0  0.87907  0.45386  0.36253  1.0000
  C   C3491     1.0  0.90611  0.41984  0.34059  1.0000
  H   H3477     1.0  0.88396  0.44137  0.33160  1.0000
  H   H3478     1.0  0.90782  0.42395  0.36629  1.0000
  H   H3479     1.0  0.86796  0.46121  0.34428  1.0000
  H   H3480     1.0  0.89238  0.44392  0.37899  1.0000
  H   H3481     1.0  0.87230  0.46274  0.36798  1.0000
  H   H3482     1.0  0.89976  0.41669  0.33432  1.0000
  H   H3483     1.0  0.91574  0.42398  0.33263  1.0000
  H   H3484     1.0  0.91018  0.40963  0.34851  1.0000
  H   H3485     1.0  0.88438  0.53966  0.07307  1.0000
  C   C3492     1.0  0.97704  0.58063  0.22763  1.0000
  H   H3486     1.0  0.77127  0.57561  0.10629  1.0000
  H   H3487     1.0  0.84364  0.40245  0.18103  1.0000
  Fe  Fe591     1.0  0.97525  0.55256  0.19646  1.0000
  H   H3488     1.0  0.65746  0.38906  0.16136  1.0000
  C   C3493     1.0  0.92510  0.51989  0.15550  1.0000
  C   C3494     1.0  0.84713  0.41243  0.19668  1.0000
  H   H3489     1.0  0.98003  0.44838  0.40665  1.0000
  N   N289      1.0  0.85932  0.43554  0.25681  1.0000
  C   C3495     1.0  0.85138  0.44410  0.24643  1.0000
  C   C3496     1.0  0.85873  0.42096  0.26234  1.0000
  C   C3497     1.0  0.84207  0.43830  0.24174  1.0000
  C   C3498     1.0  0.84955  0.41478  0.25788  1.0000
  C   C3499     1.0  0.84109  0.42355  0.24759  1.0000
  C   C3500     1.0  0.86873  0.44207  0.26170  1.0000
  H   H3490     1.0  0.85218  0.45551  0.24178  1.0000
  H   H3491     1.0  0.86541  0.41404  0.27021  1.0000
  H   H3492     1.0  0.83560  0.44522  0.23368  1.0000
  H   H3493     1.0  0.84893  0.40328  0.26238  1.0000
  H   H3494     1.0  0.83380  0.41890  0.24417  1.0000
  H   H3495     1.0  0.87876  0.44380  0.25278  1.0000
  H   H3496     1.0  0.86238  0.45284  0.26454  1.0000
  H   H3497     1.0  0.87254  0.43487  0.27177  1.0000
  H   H3498     1.0  0.67751  0.38605  0.15881  1.0000
  H   H3499     1.0  0.91841  0.54366  0.15183  1.0000
  H   H3500     1.0  0.95513  0.52534  0.43821  1.0000
  Fe  Fe592     1.0  0.95643  0.54976  0.47762  1.0000
  C   C3501     1.0  0.70956  0.41003  0.15199  1.0000
  C   C3502     1.0  0.94828  0.52277  0.43247  1.0000
  C   C3503     1.0  0.84776  0.51326  0.14504  1.0000
  C   C3504     1.0  0.79534  0.41618  0.19599  1.0000
  H   H3501     1.0  0.96674  0.50865  0.42073  1.0000
  S   S1190     1.0  0.72964  0.38639  0.12017  1.0000
  H   H3502     1.0  0.77843  0.45808  0.14588  1.0000
  H   H3503     1.0  0.64367  0.56244  0.11672  1.0000
  H   H3504     1.0  0.96956  0.51461  0.30238  1.0000
  S   S1191     1.0  0.94065  0.57453  0.44351  1.0000
  C   C3505     1.0  0.71438  0.39858  0.14427  1.0000
  C   C3506     1.0  0.85415  0.49677  0.12841  1.0000
  C   C3507     1.0  0.96759  0.51502  0.29173  1.0000
  C   C3508     1.0  0.74430  0.39193  0.19905  1.0000
  H   H3505     1.0  0.95183  0.55291  0.12682  1.0000
  C   C3509     1.0  0.58955  0.53942  0.15705  1.0000
  Fe  Fe593     1.0  0.93821  0.55136  0.45537  1.0000
  Fe  Fe594     1.0  0.97929  0.57773  0.27928  1.0000
  C   C3510     1.0  0.67737  0.57145  0.10910  1.0000
  Fe  Fe595     1.0  0.50386  0.56814  0.13506  1.0000
  H   H3506     1.0  0.84286  0.42366  0.19105  1.0000
  H   H3507     1.0  0.83869  0.55705  0.06908  1.0000
  C   C3511     1.0  0.96849  0.54055  0.39061  1.0000
  C   C3512     1.0  0.76012  0.58174  0.10512  1.0000
  C   C3513     1.0  0.95735  0.50740  0.29113  1.0000
  C   C3514     1.0  0.96461  0.56047  0.23273  1.0000
  N   N290      1.0  0.93445  0.48488  0.05494  1.0000
  C   C3515     1.0  0.93240  0.48269  0.04230  1.0000
  C   C3516     1.0  0.92893  0.47670  0.06846  1.0000
  C   C3517     1.0  0.92423  0.47242  0.04305  1.0000
  C   C3518     1.0  0.92073  0.46633  0.06959  1.0000
  C   C3519     1.0  0.91830  0.46427  0.05680  1.0000
  H   H3508     1.0  0.93665  0.48921  0.03157  1.0000
  H   H3509     1.0  0.93063  0.47830  0.07851  1.0000
  H   H3510     1.0  0.92213  0.47115  0.03304  1.0000
  H   H3511     1.0  0.91614  0.46009  0.08038  1.0000
  H   H3512     1.0  0.91171  0.45647  0.05756  1.0000
  N   N291      1.0  0.77034  0.51389  0.05423  1.0000
  C   C3520     1.0  0.76711  0.50167  0.06476  1.0000
  C   C3521     1.0  0.76416  0.51869  0.04205  1.0000
  C   C3522     1.0  0.75773  0.49372  0.06308  1.0000
  C   C3523     1.0  0.75469  0.51102  0.04004  1.0000
  C   C3524     1.0  0.75150  0.49844  0.05063  1.0000
  C   C3525     1.0  0.77969  0.52243  0.05650  1.0000
  H   H3513     1.0  0.77175  0.49800  0.07458  1.0000
  H   H3514     1.0  0.76647  0.52854  0.03381  1.0000
  H   H3515     1.0  0.75521  0.48404  0.07148  1.0000
  H   H3516     1.0  0.74980  0.51489  0.03037  1.0000
  H   H3517     1.0  0.74413  0.49240  0.04925  1.0000
  H   H3518     1.0  0.78795  0.51515  0.06307  1.0000
  H   H3519     1.0  0.78619  0.52770  0.04578  1.0000
  H   H3520     1.0  0.77258  0.53114  0.06249  1.0000
  H   H3521     1.0  0.86974  0.49955  0.13932  1.0000
  N   N292      1.0  0.94243  0.50816  0.17144  1.0000
  C   C3526     1.0  0.93401  0.50716  0.16252  1.0000
  C   C3527     1.0  0.94192  0.52158  0.17394  1.0000
  H   H3522     1.0  0.91888  0.51910  0.14800  1.0000
  S   S1192     1.0  0.56416  0.58015  0.16633  1.0000
  H   H3523     1.0  0.94848  0.54454  0.37062  1.0000
  C   C3528     1.0  0.95177  0.49477  0.17873  1.0000
  H   H3524     1.0  0.93456  0.49657  0.16032  1.0000
  H   H3525     1.0  0.94854  0.52233  0.18107  1.0000
  C   C3529     1.0  0.92485  0.53367  0.15764  1.0000
  H   H3526     1.0  0.91220  0.53003  0.42932  1.0000
  H   H3527     1.0  0.89124  0.39628  0.28629  1.0000
  H   H3528     1.0  0.94566  0.49078  0.19017  1.0000
  H   H3529     1.0  0.95503  0.48585  0.17251  1.0000
  H   H3530     1.0  0.96230  0.49711  0.17942  1.0000
  C   C3530     1.0  0.82910  0.51152  0.13407  1.0000
  C   C3531     1.0  0.72459  0.42494  0.13224  1.0000
  Fe  Fe596     1.0  0.76977  0.53368  0.99791  1.0000
  C   C3532     1.0  0.96555  0.53604  0.14041  1.0000
  H   H3531     1.0  0.60914  0.52651  0.13546  1.0000
  Fe  Fe597     1.0  0.97592  0.54145  0.16960  1.0000
  C   C3533     1.0  0.96178  0.53825  0.31989  1.0000
  C   C3534     1.0  0.75199  0.57677  0.09820  1.0000
  C   C3535     1.0  0.97279  0.53654  0.34445  1.0000
  N   N293      1.0  0.85288  0.38622  0.19819  1.0000
  H   H3532     1.0  0.96461  0.51642  0.35386  1.0000
  C   C3536     1.0  0.81125  0.41229  0.21306  1.0000
  H   H3533     1.0  0.51963  0.57188  0.15702  1.0000
  S   S1193     1.0  0.96244  0.54225  0.45616  1.0000
  S   S1194     1.0  0.95791  0.54598  0.18946  1.0000
  H   H3534     1.0  0.75513  0.38827  0.14427  1.0000
  H   H3535     1.0  0.95736  0.53913  0.31043  1.0000
  H   H3536     1.0  0.85771  0.57494  0.09369  1.0000
  C   C3537     1.0  0.66663  0.56286  0.11459  1.0000
  C   C3538     1.0  0.85908  0.56740  0.08669  1.0000
  H   H3537     1.0  0.53362  0.57817  0.17172  1.0000
  H   H3538     1.0  0.57273  0.57515  0.13645  1.0000
  C   C3539     1.0  0.96238  0.55402  0.40990  1.0000
  S   S1195     1.0  0.78749  0.40934  0.18560  1.0000
  C   C3540     1.0  0.75357  0.57049  0.99751  1.0000
  H   H3539     1.0  0.73119  0.58088  0.09154  1.0000
  C   C3541     1.0  0.93723  0.43867  0.41940  1.0000
  C   C3542     1.0  0.65212  0.56901  0.11239  1.0000
  H   H3540     1.0  0.95697  0.52592  0.37904  1.0000
  C   C3543     1.0  0.72401  0.40040  0.13032  1.0000
  H   H3541     1.0  0.93120  0.55147  0.40141  1.0000
  H   H3542     1.0  0.94697  0.50190  0.27675  1.0000
  H   H3543     1.0  0.86228  0.48376  0.99164  1.0000
  H   H3544     1.0  0.88504  0.54992  0.10007  1.0000
  H   H3545     1.0  0.96131  0.51556  0.25380  1.0000
  C   C3544     1.0  0.53117  0.57270  0.15246  1.0000
  C   C3545     1.0  0.96294  0.51539  0.26454  1.0000
  S   S1196     1.0  0.91026  0.52477  0.98805  1.0000
  C   C3546     1.0  0.85242  0.49094  0.98722  1.0000
  H   H3546     1.0  0.92720  0.38901  0.33635  1.0000
  H   H3547     1.0  0.99345  0.54670  0.45516  1.0000
  C   C3547     1.0  0.53911  0.57628  0.16076  1.0000
  H   H3548     1.0  0.72390  0.54888  0.99103  1.0000
  H   H3549     1.0  0.98904  0.53332  0.47192  1.0000
  H   H3550     1.0  0.72844  0.38417  0.19267  1.0000
  H   H3551     1.0  0.98056  0.53718  0.28895  1.0000
  H   H3552     1.0  0.66544  0.38674  0.17682  1.0000
  H   H3553     1.0  0.86238  0.38550  0.37262  1.0000
  H   H3554     1.0  0.91139  0.39370  0.31838  1.0000
  Fe  Fe598     1.0  0.79348  0.38465  0.18975  1.0000
  H   H3555     1.0  0.86043  0.39327  0.22745  1.0000
  C   C3548     1.0  0.71664  0.55660  0.98358  1.0000
  H   H3556     1.0  0.85541  0.50177  0.98145  1.0000
  Fe  Fe599     1.0  0.61547  0.58302  0.16718  1.0000
  Fe  Fe600     1.0  0.89036  0.38367  0.26273  1.0000
  H   H3557     1.0  0.70576  0.56063  0.99080  1.0000
  C   C3549     1.0  0.85763  0.38364  0.21100  1.0000
  C   C3550     1.0  0.85155  0.46927  0.97920  1.0000
  C   C3551     1.0  0.77207  0.46037  0.97965  1.0000
  H   H3558     1.0  0.79071  0.46754  0.98166  1.0000
  Fe  Fe601     1.0  0.70968  0.45487  0.94039  1.0000
  S   S1197     1.0  0.71621  0.46526  0.91635  1.0000
  S   S1198     1.0  0.69869  0.43534  0.94875  1.0000
  Fe  Fe602     1.0  0.72229  0.47592  0.94992  1.0000
  S   S1199     1.0  0.72974  0.48773  0.92661  1.0000
  S   S1200     1.0  0.79337  0.38983  0.89989  1.0000
  Fe  Fe603     1.0  0.70745  0.48681  0.92383  1.0000
  S   S1201     1.0  0.69365  0.50701  0.91141  1.0000
  Fe  Fe604     1.0  0.73756  0.46498  0.92193  1.0000
  S   S1202     1.0  0.76074  0.45564  0.91039  1.0000
  S   S1203     1.0  0.69941  0.47640  0.94760  1.0000
  S   S1204     1.0  0.73166  0.45315  0.94555  1.0000
  Fe  Fe605     1.0  0.89247  0.52696  0.97599  1.0000
  S   S1205     1.0  0.97540  0.48479  0.87791  1.0000
  H   H3559     1.0  0.91298  0.47956  0.93983  1.0000
  C   C3552     1.0  0.97900  0.49752  0.69251  1.0000
  C   C3553     1.0  0.98892  0.53787  0.79139  1.0000
  C   C3554     1.0  0.98994  0.52147  0.82019  1.0000
  Fe  Fe606     1.0  0.61885  0.55745  0.93836  1.0000
  S   S1206     1.0  0.62752  0.53270  0.94311  1.0000
  S   S1207     1.0  0.98305  0.51572  0.78285  1.0000
  H   H3560     1.0  0.83181  0.57581  0.95306  1.0000
  H   H3561     1.0  0.74567  0.55715  0.97580  1.0000
  C   C3555     1.0  0.94752  0.40287  0.70714  1.0000
  C   C3556     1.0  0.92398  0.48194  0.93481  1.0000
  H   H3562     1.0  0.69548  0.50720  0.95999  1.0000
  S   S1208     1.0  0.78703  0.50010  0.96168  1.0000
  N   N294      1.0  0.96864  0.40588  0.78322  1.0000
  Fe  Fe607     1.0  0.83752  0.46341  0.92132  1.0000
  S   S1209     1.0  0.83221  0.46619  0.89956  1.0000
  S   S1210     1.0  0.83049  0.44419  0.93852  1.0000
  Fe  Fe608     1.0  0.84957  0.49101  0.91135  1.0000
  S   S1211     1.0  0.84492  0.49658  0.88859  1.0000
  S   S1212     1.0  0.85789  0.50664  0.91890  1.0000
  Fe  Fe609     1.0  0.82325  0.48993  0.90049  1.0000
  S   S1213     1.0  0.80115  0.50181  0.89475  1.0000
  Fe  Fe610     1.0  0.85426  0.47230  0.88947  1.0000
  S   S1214     1.0  0.86678  0.46140  0.87053  1.0000
  S   S1215     1.0  0.82681  0.48676  0.92314  1.0000
  S   S1216     1.0  0.86072  0.46716  0.91129  1.0000
  H   H3563     1.0  0.92909  0.48053  0.95560  1.0000
  C   C3557     1.0  0.98578  0.56624  0.69386  1.0000
  H   H3564     1.0  0.96035  0.51999  0.66606  1.0000
  C   C3558     1.0  0.94342  0.48740  0.91323  1.0000
  C   C3559     1.0  0.69685  0.40863  0.91708  1.0000
  Fe  Fe611     1.0  0.95458  0.45928  0.79060  1.0000
  S   S1217     1.0  0.96379  0.43856  0.80575  1.0000
  S   S1218     1.0  0.96554  0.46247  0.76650  1.0000
  Fe  Fe612     1.0  0.93382  0.47262  0.81603  1.0000
  S   S1219     1.0  0.94145  0.45301  0.83328  1.0000
  S   S1220     1.0  0.91684  0.49157  0.82414  1.0000
  Fe  Fe613     1.0  0.96438  0.45378  0.81922  1.0000
  C   C3560     1.0  0.93492  0.56410  0.91988  1.0000
  Fe  Fe614     1.0  0.93993  0.43996  0.81806  1.0000
  S   S1221     1.0  0.92986  0.41992  0.82668  1.0000
  S   S1222     1.0  0.95689  0.47452  0.80315  1.0000
  S   S1223     1.0  0.93050  0.45964  0.80170  1.0000
  H   H3565     1.0  0.98496  0.50421  0.81339  1.0000
  S   S1224     1.0  0.97039  0.54133  0.89977  1.0000
  C   C3561     1.0  0.92262  0.40539  0.78874  1.0000
  S   S1225     1.0  0.97667  0.52506  0.86703  1.0000
  C   C3562     1.0  0.96513  0.56370  0.50438  1.0000
  C   C3563     1.0  0.81738  0.53317  0.93487  1.0000
  C   C3564     1.0  0.91946  0.55360  0.94816  1.0000
  S   S1226     1.0  0.50391  0.56186  0.90192  1.0000
  C   C3565     1.0  0.94683  0.50028  0.83386  1.0000
  C   C3566     1.0  0.87655  0.39934  0.85697  1.0000
  S   S1227     1.0  0.90731  0.51282  0.96038  1.0000
  Fe  Fe615     1.0  0.97754  0.54771  0.58817  1.0000
  N   N295      1.0  0.93436  0.55337  0.94566  1.0000
  H   H3566     1.0  0.83289  0.49447  0.94753  1.0000
  Fe  Fe616     1.0  0.97745  0.56908  0.55844  1.0000
  H   H3567     1.0  0.84044  0.50524  0.96385  1.0000
  C   C3567     1.0  0.73857  0.56746  0.97136  1.0000
  H   H3568     1.0  0.93927  0.45987  0.63310  1.0000
  S   S1228     1.0  0.95955  0.55868  0.57509  1.0000
  S   S1229     1.0  0.97202  0.56553  0.60088  1.0000
  Fe  Fe617     1.0  0.97147  0.43767  0.67640  1.0000
  S   S1230     1.0  0.94703  0.44828  0.67951  1.0000
  S   S1231     1.0  0.98167  0.41493  0.67175  1.0000
  Fe  Fe618     1.0  0.97920  0.46331  0.68345  1.0000
  S   S1232     1.0  0.95534  0.47587  0.68704  1.0000
  C   C3568     1.0  0.74716  0.42028  0.91822  1.0000
  Fe  Fe619     1.0  0.95018  0.45385  0.69937  1.0000
  S   S1233     1.0  0.93528  0.45024  0.72205  1.0000
  Fe  Fe620     1.0  0.95492  0.46915  0.66676  1.0000
  S   S1234     1.0  0.94369  0.48592  0.64934  1.0000
  S   S1235     1.0  0.97410  0.44164  0.69720  1.0000
  S   S1236     1.0  0.97928  0.45808  0.66221  1.0000
  H   H3569     1.0  0.93229  0.42348  0.77450  1.0000
  C   C3569     1.0  0.95122  0.49686  0.73353  1.0000
  C   C3570     1.0  0.76970  0.44602  0.94838  1.0000
  C   C3571     1.0  0.95470  0.52279  0.84058  1.0000
  H   H3570     1.0  0.74745  0.39115  0.88534  1.0000
  S   S1237     1.0  0.83555  0.39223  0.88020  1.0000
  S   S1238     1.0  0.96502  0.53744  0.49839  1.0000
  C   C3572     1.0  0.85271  0.56386  0.95918  1.0000
  C   C3573     1.0  0.97351  0.56535  0.52528  1.0000
  C   C3574     1.0  0.97489  0.55007  0.53072  1.0000
  C   C3575     1.0  0.97190  0.54156  0.52261  1.0000
  C   C3576     1.0  0.96722  0.54834  0.50927  1.0000
  C   C3577     1.0  0.97607  0.42427  0.76173  1.0000
  C   C3578     1.0  0.96184  0.40777  0.76048  1.0000
  H   H3571     1.0  0.97348  0.52968  0.52656  1.0000
  N   N296      1.0  0.77571  0.45134  0.95782  1.0000
  H   H3572     1.0  0.98870  0.38555  0.66745  1.0000
  Fe  Fe621     1.0  0.92419  0.50868  0.97394  1.0000
  C   C3579     1.0  0.97303  0.51310  0.61181  1.0000
  C   C3580     1.0  0.97927  0.49878  0.61889  1.0000
  C   C3581     1.0  0.97035  0.49041  0.63039  1.0000
  C   C3582     1.0  0.95501  0.49614  0.63466  1.0000
  C   C3583     1.0  0.94866  0.51033  0.62731  1.0000
  C   C3584     1.0  0.95769  0.51891  0.61604  1.0000
  C   C3585     1.0  0.87731  0.40372  0.84177  1.0000
  H   H3573     1.0  0.97538  0.47950  0.63580  1.0000
  H   H3574     1.0  0.93678  0.51481  0.63053  1.0000
  H   H3575     1.0  0.95280  0.52995  0.61060  1.0000
  C   C3586     1.0  0.96494  0.52965  0.91686  1.0000
  C   C3587     1.0  0.97505  0.52290  0.92610  1.0000
  C   C3588     1.0  0.97005  0.51553  0.94067  1.0000
  C   C3589     1.0  0.95495  0.51494  0.94606  1.0000
  C   C3590     1.0  0.94498  0.52113  0.93660  1.0000
  C   C3591     1.0  0.95000  0.52841  0.92199  1.0000
  C   C3592     1.0  0.67257  0.54370  0.94066  1.0000
  H   H3576     1.0  0.97784  0.51066  0.94792  1.0000
  H   H3577     1.0  0.93336  0.52063  0.94058  1.0000
  H   H3578     1.0  0.94219  0.53354  0.91480  1.0000
  C   C3593     1.0  0.83795  0.48724  0.95651  1.0000
  C   C3594     1.0  0.97052  0.45971  0.85301  1.0000
  C   C3595     1.0  0.96878  0.46652  0.86465  1.0000
  C   C3596     1.0  0.88461  0.41501  0.83334  1.0000
  C   C3597     1.0  0.83090  0.55337  0.96458  1.0000
  C   C3598     1.0  0.87803  0.50082  0.95234  1.0000
  H   H3579     1.0  0.96339  0.45238  0.85399  1.0000
  H   H3580     1.0  0.96018  0.46453  0.87455  1.0000
  C   C3599     1.0  0.94420  0.41269  0.71645  1.0000
  C   C3600     1.0  0.94864  0.45041  0.63220  1.0000
  C   C3601     1.0  0.95677  0.45893  0.75456  1.0000
  C   C3602     1.0  0.96349  0.46110  0.73949  1.0000
  C   C3603     1.0  0.95675  0.45865  0.72952  1.0000
  C   C3604     1.0  0.94339  0.45371  0.73460  1.0000
  C   C3605     1.0  0.93669  0.45140  0.74972  1.0000
  C   C3606     1.0  0.94337  0.45403  0.75972  1.0000
  H   H3581     1.0  0.97386  0.46489  0.73544  1.0000
  H   H3582     1.0  0.96191  0.46069  0.71789  1.0000
  H   H3583     1.0  0.92635  0.44756  0.75369  1.0000
  H   H3584     1.0  0.93818  0.45225  0.77137  1.0000
  H   H3585     1.0  0.98109  0.42126  0.78283  1.0000
  N   N297      1.0  0.97727  0.51176  0.64895  1.0000
  H   H3586     1.0  0.51717  0.57801  0.97114  1.0000
  H   H3587     1.0  0.89700  0.43036  0.83356  1.0000
  C   C3607     1.0  0.67525  0.52446  0.96203  1.0000
  C   C3608     1.0  0.71446  0.58197  0.96872  1.0000
  C   C3609     1.0  0.84762  0.46281  0.96993  1.0000
  C   C3610     1.0  0.81370  0.52599  0.91044  1.0000
  H   H3588     1.0  0.97948  0.39485  0.80102  1.0000
  S   S1239     1.0  0.69630  0.39853  0.90472  1.0000
  H   H3589     1.0  0.95367  0.50915  0.86262  1.0000
  H   H3590     1.0  0.86682  0.51919  0.93773  1.0000
  C   C3611     1.0  0.97526  0.51037  0.69800  1.0000
  Fe  Fe622     1.0  0.78752  0.51294  0.97771  1.0000
  H   H3591     1.0  0.97226  0.49326  0.92304  1.0000
  H   H3592     1.0  0.64109  0.47849  0.95343  1.0000
  H   H3593     1.0  0.96469  0.51811  0.69711  1.0000
  H   H3594     1.0  0.97134  0.49556  0.68734  1.0000
  C   C3612     1.0  0.88014  0.47047  0.85756  1.0000
  C   C3613     1.0  0.88225  0.48381  0.85883  1.0000
  C   C3614     1.0  0.89325  0.49061  0.84832  1.0000
  C   C3615     1.0  0.90232  0.48387  0.83678  1.0000
  C   C3616     1.0  0.90013  0.47057  0.83558  1.0000
  C   C3617     1.0  0.88893  0.46402  0.84579  1.0000
  H   H3595     1.0  0.87548  0.48884  0.86791  1.0000
  H   H3596     1.0  0.89494  0.50088  0.84932  1.0000
  H   H3597     1.0  0.90697  0.46536  0.82667  1.0000
  H   H3598     1.0  0.88712  0.45392  0.84457  1.0000
  C   C3618     1.0  0.86798  0.49836  0.93287  1.0000
  C   C3619     1.0  0.87065  0.50728  0.94063  1.0000
  C   C3620     1.0  0.83892  0.53979  0.97142  1.0000
  C   C3621     1.0  0.88288  0.48543  0.95622  1.0000
  C   C3622     1.0  0.88029  0.47652  0.94844  1.0000
  C   C3623     1.0  0.87285  0.48298  0.93678  1.0000
  H   H3599     1.0  0.88874  0.43296  0.86738  1.0000
  H   H3600     1.0  0.88402  0.46461  0.95142  1.0000
  H   H3601     1.0  0.87086  0.47603  0.93089  1.0000
  C   C3624     1.0  0.82650  0.53084  0.90951  1.0000
  N   N298      1.0  0.97264  0.42616  0.63034  1.0000
  C   C3625     1.0  0.93304  0.48247  0.94367  1.0000
  H   H3602     1.0  0.96608  0.50150  0.90607  1.0000
  H   H3603     1.0  0.94751  0.48915  0.90132  1.0000
  C   C3626     1.0  0.94721  0.48552  0.93705  1.0000
  N   N299      1.0  0.95215  0.48810  0.92199  1.0000
  C   C3627     1.0  0.53976  0.58195  0.89145  1.0000
  H   H3604     1.0  0.98363  0.56104  0.70556  1.0000
  C   C3628     1.0  0.95220  0.51026  0.85159  1.0000
  N   N300      1.0  0.80297  0.52484  0.92328  1.0000
  C   C3629     1.0  0.93747  0.49348  0.74136  1.0000
  C   C3630     1.0  0.92908  0.57772  0.51570  1.0000
  C   C3631     1.0  0.89743  0.42434  0.86226  1.0000
  H   H3605     1.0  0.69232  0.39172  0.93670  1.0000
  C   C3632     1.0  0.75349  0.48784  0.95323  1.0000
  C   C3633     1.0  0.76715  0.49150  0.95183  1.0000
  C   C3634     1.0  0.76935  0.49699  0.96288  1.0000
  H   H3606     1.0  0.94127  0.56777  0.90880  1.0000
  C   C3635     1.0  0.95706  0.39071  0.65523  1.0000
  H   H3607     1.0  0.75200  0.48338  0.94478  1.0000
  H   H3608     1.0  0.77611  0.48978  0.94230  1.0000
  H   H3609     1.0  0.54187  0.53755  0.95786  1.0000
  C   C3636     1.0  0.50428  0.55076  0.96691  1.0000
  C   C3637     1.0  0.77137  0.46885  0.90678  1.0000
  C   C3638     1.0  0.76674  0.48324  0.89884  1.0000
  C   C3639     1.0  0.77575  0.49353  0.89540  1.0000
  C   C3640     1.0  0.78912  0.48954  0.90028  1.0000
  C   C3641     1.0  0.79320  0.47543  0.90902  1.0000
  C   C3642     1.0  0.78458  0.46497  0.91190  1.0000
  H   H3610     1.0  0.75645  0.48631  0.89498  1.0000
  H   H3611     1.0  0.77245  0.50450  0.88878  1.0000
  H   H3612     1.0  0.80298  0.47255  0.91358  1.0000
  H   H3613     1.0  0.78818  0.45389  0.91808  1.0000
  C   C3643     1.0  0.67544  0.51441  0.92052  1.0000
  C   C3644     1.0  0.66903  0.50723  0.93462  1.0000
  C   C3645     1.0  0.65445  0.51317  0.94161  1.0000
  C   C3646     1.0  0.64617  0.52636  0.93455  1.0000
  C   C3647     1.0  0.65265  0.53383  0.92061  1.0000
  C   C3648     1.0  0.66723  0.52778  0.91354  1.0000
  H   H3614     1.0  0.67511  0.49693  0.94007  1.0000
  H   H3615     1.0  0.64946  0.50739  0.95242  1.0000
  H   H3616     1.0  0.64629  0.54405  0.91509  1.0000
  H   H3617     1.0  0.67213  0.53346  0.90263  1.0000
  H   H3618     1.0  0.65139  0.55666  0.96083  1.0000
  H   H3619     1.0  0.94093  0.55687  0.96342  1.0000
  H   H3620     1.0  0.79642  0.52703  0.94569  1.0000
  H   H3621     1.0  0.72586  0.39616  0.92178  1.0000
  H   H3622     1.0  0.71486  0.55040  0.97635  1.0000
  C   C3649     1.0  0.82829  0.53450  0.92181  1.0000
  C   C3650     1.0  0.69517  0.41100  0.94191  1.0000
  C   C3651     1.0  0.69827  0.42516  0.93633  1.0000
  C   C3652     1.0  0.70082  0.43095  0.92106  1.0000
  C   C3653     1.0  0.69985  0.42281  0.91150  1.0000
  C   C3654     1.0  0.98293  0.52188  0.63713  1.0000
  H   H3623     1.0  0.69320  0.40644  0.95371  1.0000
  H   H3624     1.0  0.70343  0.44171  0.91656  1.0000
  H   H3625     1.0  0.96032  0.50414  0.77432  1.0000
  C   C3655     1.0  0.83175  0.41889  0.93000  1.0000
  C   C3656     1.0  0.83950  0.42923  0.93003  1.0000
  C   C3657     1.0  0.85428  0.42844  0.92209  1.0000
  C   C3658     1.0  0.86136  0.41740  0.91411  1.0000
  C   C3659     1.0  0.54446  0.55941  0.92763  1.0000
  H   H3626     1.0  0.82025  0.41958  0.93600  1.0000
  H   H3627     1.0  0.86035  0.43631  0.92215  1.0000
  H   H3628     1.0  0.87280  0.41692  0.90796  1.0000
  H   H3629     1.0  0.92224  0.48390  0.91252  1.0000
  C   C3660     1.0  0.95734  0.41242  0.66322  1.0000
  C   C3661     1.0  0.97137  0.40551  0.66654  1.0000
  S   S1240     1.0  0.92476  0.39663  0.77443  1.0000
  H   H3630     1.0  0.81877  0.53585  0.94451  1.0000
  H   H3631     1.0  0.95221  0.42361  0.66453  1.0000
  C   C3662     1.0  0.74512  0.57932  0.96290  1.0000
  Fe  Fe623     1.0  0.98890  0.57561  0.58237  1.0000
  C   C3663     1.0  0.91933  0.40317  0.81505  1.0000
  C   C3664     1.0  0.92610  0.41509  0.81210  1.0000
  C   C3665     1.0  0.93041  0.42265  0.79748  1.0000
  C   C3666     1.0  0.92841  0.41797  0.78581  1.0000
  H   H3632     1.0  0.85001  0.45087  0.97147  1.0000
  H   H3633     1.0  0.93586  0.43170  0.79507  1.0000
  C   C3667     1.0  0.98195  0.46187  0.84041  1.0000
  C   C3668     1.0  0.93463  0.40995  0.73031  1.0000
  C   C3669     1.0  0.94203  0.55879  0.93180  1.0000
  H   H3634     1.0  0.95496  0.49682  0.72186  1.0000
  C   C3670     1.0  0.80475  0.52822  0.93544  1.0000
  H   H3635     1.0  0.73268  0.38602  0.90039  1.0000
  C   C3671     1.0  0.53657  0.57369  0.92920  1.0000
  C   C3672     1.0  0.95026  0.40506  0.65743  1.0000
  N   N301      1.0  0.66725  0.53746  0.95512  1.0000
  H   H3636     1.0  0.93962  0.41056  0.65444  1.0000
  H   H3637     1.0  0.97447  0.48198  0.91015  1.0000
  N   N302      1.0  0.74130  0.40353  0.90213  1.0000
  H   H3638     1.0  0.87970  0.50778  0.95848  1.0000
  H   H3639     1.0  0.55971  0.57666  0.89974  1.0000
  C   C3673     1.0  0.91760  0.39832  0.80338  1.0000
  C   C3674     1.0  0.69466  0.40266  0.93230  1.0000
  H   H3640     1.0  0.96095  0.56920  0.49459  1.0000
  C   C3675     1.0  0.93214  0.38779  0.72514  1.0000
  H   H3641     1.0  0.78591  0.52341  0.91375  1.0000
  H   H3642     1.0  0.99417  0.55501  0.79804  1.0000
  H   H3643     1.0  0.95389  0.55849  0.92973  1.0000
  C   C3676     1.0  0.75478  0.42054  0.90357  1.0000
  H   H3644     1.0  0.83777  0.46700  0.95120  1.0000
  H   H3645     1.0  0.74931  0.42699  0.92439  1.0000
  C   C3677     1.0  0.83792  0.56531  0.95837  1.0000
  C   C3678     1.0  0.98649  0.52351  0.79561  1.0000
  S   S1241     1.0  0.98506  0.52351  0.59838  1.0000
  H   H3646     1.0  0.90279  0.41614  0.87096  1.0000
  H   H3647     1.0  0.63633  0.49780  0.93096  1.0000
  H   H3648     1.0  0.83833  0.53798  0.92131  1.0000
  H   H3649     1.0  0.53946  0.57043  0.89300  1.0000
  H   H3650     1.0  0.79316  0.50681  0.92621  1.0000
  H   H3651     1.0  0.68291  0.45895  0.92812  1.0000
  H   H3652     1.0  0.98361  0.43739  0.63882  1.0000
  C   C3679     1.0  0.83877  0.40793  0.92174  1.0000
  N   N303      1.0  0.82128  0.45550  0.87549  1.0000
  C   C3680     1.0  0.80704  0.45348  0.88174  1.0000
  C   C3681     1.0  0.83333  0.44397  0.87738  1.0000
  C   C3682     1.0  0.80458  0.43970  0.89038  1.0000
  C   C3683     1.0  0.83128  0.43008  0.88603  1.0000
  C   C3684     1.0  0.81680  0.42796  0.89256  1.0000
  C   C3685     1.0  0.82349  0.47007  0.86647  1.0000
  H   H3653     1.0  0.79748  0.46262  0.88024  1.0000
  H   H3654     1.0  0.84463  0.44554  0.87246  1.0000
  H   H3655     1.0  0.79326  0.43821  0.89545  1.0000
  H   H3656     1.0  0.81611  0.47901  0.87208  1.0000
  H   H3657     1.0  0.83520  0.47116  0.86475  1.0000
  H   H3658     1.0  0.82091  0.47182  0.85551  1.0000
  H   H3659     1.0  0.95417  0.48590  0.94405  1.0000
  C   C3686     1.0  0.92918  0.48439  0.91949  1.0000
  H   H3660     1.0  0.84088  0.42106  0.88772  1.0000
  C   C3687     1.0  0.69470  0.52392  0.93983  1.0000
  H   H3661     1.0  0.96867  0.42522  0.74228  1.0000
  C   C3688     1.0  0.96891  0.41958  0.75369  1.0000
  C   C3689     1.0  0.84073  0.47189  0.95855  1.0000
  H   H3662     1.0  0.83520  0.53137  0.89946  1.0000
  C   C3690     1.0  0.93547  0.57088  0.53960  1.0000
  H   H3663     1.0  0.93755  0.51114  0.80805  1.0000
  H   H3664     1.0  0.75516  0.45365  0.97398  1.0000
  H   H3665     1.0  0.95772  0.50496  0.80331  1.0000
  H   H3666     1.0  0.96163  0.40755  0.80569  1.0000
  H   H3667     1.0  0.88540  0.41840  0.82148  1.0000
  H   H3668     1.0  0.93183  0.41760  0.73758  1.0000
  H   H3669     1.0  0.97133  0.50171  0.73496  1.0000
  H   H3670     1.0  0.76125  0.43946  0.95507  1.0000
  H   H3671     1.0  0.98194  0.49065  0.66347  1.0000
  H   H3672     1.0  0.96231  0.38976  0.80283  1.0000
  H   H3673     1.0  0.98660  0.52387  0.92218  1.0000
  S   S1242     1.0  0.98520  0.45247  0.82632  1.0000
  H   H3674     1.0  0.90632  0.42967  0.85418  1.0000
  S   S1243     1.0  0.87915  0.54932  0.96721  1.0000
  C   C3691     1.0  0.94804  0.49902  0.84827  1.0000
  S   S1244     1.0  0.63405  0.57215  0.93617  1.0000
  C   C3692     1.0  0.94838  0.51336  0.80803  1.0000
  C   C3693     1.0  0.96698  0.49133  0.91505  1.0000
  C   C3694     1.0  0.85393  0.53823  0.97189  1.0000
  S   S1245     1.0  0.89206  0.47720  0.97086  1.0000
  H   H3675     1.0  0.78053  0.52221  0.93335  1.0000
  H   H3676     1.0  0.69039  0.54182  0.92125  1.0000
  H   H3677     1.0  0.98154  0.43350  0.75661  1.0000
  C   C3695     1.0  0.78999  0.51908  0.92421  1.0000
  H   H3678     1.0  0.51799  0.53110  0.95942  1.0000
  C   C3696     1.0  0.99269  0.48751  0.69348  1.0000
  C   C3697     1.0  0.96149  0.51516  0.65653  1.0000
  Fe  Fe624     1.0  0.95587  0.57753  0.58608  1.0000
  C   C3698     1.0  0.97575  0.41732  0.77660  1.0000
  C   C3699     1.0  0.98639  0.49870  0.65416  1.0000
  S   S1246     1.0  0.60115  0.56670  0.95636  1.0000
  H   H3679     1.0  0.88251  0.40290  0.87536  1.0000
  S   S1247     1.0  0.72535  0.48360  0.96865  1.0000
  H   H3680     1.0  0.95817  0.38724  0.84369  1.0000
  C   C3700     1.0  0.93277  0.56681  0.52791  1.0000
  H   H3681     1.0  0.95409  0.54293  0.95415  1.0000
  C   C3701     1.0  0.73674  0.41140  0.92482  1.0000
  H   H3682     1.0  0.92130  0.39507  0.74559  1.0000
  C   C3702     1.0  0.68914  0.51755  0.95453  1.0000
  H   H3683     1.0  0.93050  0.49078  0.73578  1.0000
  C   C3703     1.0  0.96193  0.40094  0.77531  1.0000
  H   H3684     1.0  0.93400  0.55523  0.52809  1.0000
  S   S1248     1.0  0.81225  0.55587  0.96329  1.0000
  C   C3704     1.0  0.97363  0.43773  0.63532  1.0000
  H   H3685     1.0  0.75761  0.41237  0.88422  1.0000
  H   H3686     1.0  0.96237  0.45916  0.64028  1.0000
  H   H3687     1.0  0.95539  0.53345  0.81775  1.0000
  H   H3688     1.0  0.56560  0.54373  0.92787  1.0000
  C   C3705     1.0  0.96847  0.57213  0.51220  1.0000
  C   C3706     1.0  0.97877  0.56331  0.68445  1.0000
  C   C3707     1.0  0.98541  0.41352  0.62908  1.0000
  H   H3689     1.0  0.94404  0.49127  0.83129  1.0000
  H   H3690     1.0  0.94894  0.42243  0.71291  1.0000
  C   C3708     1.0  0.97807  0.47595  0.86345  1.0000
  N   N304      1.0  0.66975  0.47778  0.91619  1.0000
  C   C3709     1.0  0.65697  0.48870  0.91698  1.0000
  C   C3710     1.0  0.67262  0.46735  0.92859  1.0000
  C   C3711     1.0  0.64635  0.48897  0.93032  1.0000
  C   C3712     1.0  0.91198  0.55887  0.93651  1.0000
  C   C3713     1.0  0.64910  0.47822  0.94296  1.0000
  C   C3714     1.0  0.68074  0.47767  0.90212  1.0000
  H   H3691     1.0  0.65502  0.49742  0.90734  1.0000
  H   H3692     1.0  0.83274  0.40008  0.92152  1.0000
  C   C3715     1.0  0.73399  0.40299  0.91659  1.0000
  H   H3693     1.0  0.66599  0.55371  0.93501  1.0000
  H   H3694     1.0  0.95690  0.50499  0.66061  1.0000
  H   H3695     1.0  0.67515  0.48185  0.89261  1.0000
  H   H3696     1.0  0.68850  0.48482  0.90090  1.0000
  H   H3697     1.0  0.68738  0.46628  0.90151  1.0000
  N   N305      1.0  0.95601  0.49909  0.75586  1.0000
  H   H3698     1.0  0.85789  0.57328  0.95455  1.0000
  C   C3716     1.0  0.94255  0.49576  0.76365  1.0000
  H   H3699     1.0  0.93729  0.53871  0.96631  1.0000
  C   C3717     1.0  0.93307  0.49294  0.75652  1.0000
  S   S1249     1.0  0.97880  0.57627  0.53388  1.0000
  C   C3718     1.0  0.96627  0.50109  0.76358  1.0000
  S   S1250     1.0  0.60801  0.57223  0.91988  1.0000
  H   H3700     1.0  0.93932  0.49474  0.77553  1.0000
  H   H3701     1.0  0.92264  0.48984  0.76280  1.0000
  C   C3719     1.0  0.96045  0.49956  0.74102  1.0000
  H   H3702     1.0  0.93879  0.56229  0.54884  1.0000
  H   H3703     1.0  0.97478  0.49062  0.76576  1.0000
  C   C3720     1.0  0.73741  0.39561  0.89331  1.0000
  N   N306      1.0  0.94131  0.39072  0.71146  1.0000
  H   H3704     1.0  0.99186  0.41159  0.63770  1.0000
  H   H3705     1.0  0.52525  0.57760  0.92773  1.0000
  H   H3706     1.0  0.95617  0.39197  0.78056  1.0000
  N   N307      1.0  0.72338  0.56903  0.97451  1.0000
  C   C3721     1.0  0.98499  0.51311  0.70488  1.0000
  S   S1251     1.0  0.94887  0.50687  0.96475  1.0000
  H   H3707     1.0  0.91584  0.39735  0.82633  1.0000
  H   H3708     1.0  0.93764  0.43873  0.62394  1.0000
  C   C3722     1.0  0.84222  0.49330  0.96583  1.0000
  H   H3709     1.0  0.95451  0.52302  0.64891  1.0000
  H   H3710     1.0  0.95821  0.53150  0.84293  1.0000
  C   C3723     1.0  0.92864  0.39736  0.73475  1.0000
  S   S1252     1.0  0.77809  0.53741  0.97333  1.0000
  H   H3711     1.0  0.91420  0.56801  0.91309  1.0000
  H   H3712     1.0  0.81506  0.41722  0.89928  1.0000
  H   H3713     1.0  0.81249  0.52300  0.90089  1.0000
  C   C3724     1.0  0.75165  0.41209  0.89561  1.0000
  H   H3714     1.0  0.70166  0.42742  0.89971  1.0000
  H   H3715     1.0  0.77865  0.43870  0.94186  1.0000
  H   H3716     1.0  0.76300  0.42731  0.89840  1.0000
  C   C3725     1.0  0.74204  0.48945  0.96581  1.0000
  Fe  Fe625     1.0  0.98695  0.52871  0.88348  1.0000
  H   H3717     1.0  0.97878  0.54475  0.54085  1.0000
  N   N308      1.0  0.94926  0.51261  0.82313  1.0000
  H   H3718     1.0  0.75710  0.57824  0.96098  1.0000
  H   H3719     1.0  0.76435  0.45562  0.94063  1.0000
  H   H3720     1.0  0.73063  0.41121  0.93618  1.0000
  C   C3726     1.0  0.94202  0.54778  0.95800  1.0000
  H   H3721     1.0  0.94599  0.48926  0.85673  1.0000
  H   H3722     1.0  0.90019  0.55882  0.93855  1.0000
  H   H3723     1.0  0.97616  0.56792  0.66200  1.0000
  H   H3724     1.0  0.66479  0.45902  0.95190  1.0000
  C   C3727     1.0  0.99215  0.54392  0.80142  1.0000
  C   C3728     1.0  0.96166  0.45001  0.63629  1.0000
  C   C3729     1.0  0.86079  0.55035  0.96591  1.0000
  H   H3725     1.0  0.65082  0.54023  0.97512  1.0000
  C   C3730     1.0  0.66235  0.46736  0.94214  1.0000
  H   H3726     1.0  0.97207  0.51008  0.75685  1.0000
  S   S1253     1.0  0.97937  0.54357  0.74420  1.0000
  H   H3727     1.0  0.91293  0.38870  0.80568  1.0000
  S   S1254     1.0  0.97956  0.52908  0.71208  1.0000
  H   H3728     1.0  0.95504  0.40509  0.69643  1.0000
  C   C3731     1.0  0.53100  0.55802  0.96492  1.0000
  H   H3729     1.0  0.64355  0.54235  0.95914  1.0000
  N   N309      1.0  0.89063  0.41715  0.85512  1.0000
  C   C3732     1.0  0.89120  0.42169  0.84024  1.0000
  C   C3733     1.0  0.88322  0.40630  0.86352  1.0000
  C   C3734     1.0  0.56634  0.56425  0.93218  1.0000
  C   C3735     1.0  0.94776  0.43861  0.62704  1.0000
  C   C3736     1.0  0.85360  0.40724  0.91380  1.0000
  H   H3730     1.0  0.72882  0.40314  0.88726  1.0000
  H   H3731     1.0  0.99036  0.51507  0.83129  1.0000
  H   H3732     1.0  0.57786  0.56054  0.93331  1.0000
  C   C3737     1.0  0.55938  0.55474  0.92910  1.0000
  S   S1255     1.0  0.53600  0.54710  0.92403  1.0000
  H   H3733     1.0  0.91325  0.54955  0.95917  1.0000
  H   H3734     1.0  0.94934  0.52435  0.80066  1.0000
  C   C3738     1.0  0.99277  0.53572  0.81579  1.0000
  Fe  Fe626     1.0  0.89869  0.49437  0.97759  1.0000
  C   C3739     1.0  0.96798  0.39920  0.79898  1.0000
  H   H3735     1.0  0.70523  0.51847  0.93372  1.0000
  H   H3736     1.0  0.99293  0.41557  0.61799  1.0000
  H   H3737     1.0  0.97123  0.55576  0.68884  1.0000
  H   H3738     1.0  0.86012  0.52774  0.97695  1.0000
  S   S1256     1.0  0.86267  0.39416  0.90296  1.0000
  C   C3740     1.0  0.76671  0.45477  0.97073  1.0000
  C   C3741     1.0  0.91980  0.56408  0.92227  1.0000
  C   C3742     1.0  0.68640  0.53708  0.93284  1.0000
  Fe  Fe627     1.0  0.51148  0.55425  0.92339  1.0000
  C   C3743     1.0  0.95306  0.52384  0.82634  1.0000
  C   C3744     1.0  0.75773  0.49907  0.97520  1.0000
  C   C3745     1.0  0.78992  0.45374  0.95323  1.0000
  H   H3739     1.0  0.80677  0.46153  0.95803  1.0000
  H   H3740     1.0  0.97569  0.53213  0.63275  1.0000
  C   C3746     1.0  0.53127  0.54475  0.96165  1.0000
  H   H3741     1.0  0.79695  0.45143  0.94279  1.0000
  C   C3747     1.0  0.96000  0.42655  0.62605  1.0000
  S   S1257     1.0  0.99371  0.57957  0.73487  1.0000
  H   H3742     1.0  0.95001  0.38531  0.69012  1.0000
  Fe  Fe628     1.0  0.79941  0.53891  0.97781  1.0000
  C   C3748     1.0  0.98920  0.47840  0.85066  1.0000
  H   H3743     1.0  0.98160  0.40315  0.63081  1.0000
  H   H3744     1.0  0.99113  0.49426  0.61563  1.0000
  Fe  Fe629     1.0  0.99306  0.53070  0.72704  1.0000
  H   H3745     1.0  0.67088  0.51928  0.97336  1.0000
  H   H3746     1.0  0.83360  0.53051  0.97623  1.0000
  H   H3747     1.0  0.87225  0.39836  0.83655  1.0000
  C   C3749     1.0  0.98159  0.57006  0.66942  1.0000
  H   H3748     1.0  0.95600  0.40412  0.75448  1.0000
  H   H3749     1.0  0.98811  0.54444  0.78044  1.0000
  C   C3750     1.0  0.99153  0.57958  0.66400  1.0000
  C   C3751     1.0  0.97787  0.39097  0.66485  1.0000
  Fe  Fe630     1.0  0.99257  0.52647  0.75951  1.0000
  C   C3752     1.0  0.78661  0.46267  0.97515  1.0000
  C   C3753     1.0  0.51785  0.54113  0.96252  1.0000
  N   N310      1.0  0.84887  0.48434  0.97704  1.0000
  H   H3750     1.0  0.92725  0.57473  0.50640  1.0000
  H   H3751     1.0  0.95915  0.41729  0.62225  1.0000
  C   C3754     1.0  0.79559  0.45940  0.96184  1.0000
  H   H3752     1.0  0.87085  0.39058  0.86359  1.0000
  C   C3755     1.0  0.99130  0.47119  0.83926  1.0000
  C   C3756     1.0  0.98686  0.51534  0.81007  1.0000
  C   C3757     1.0  0.55836  0.57846  0.93386  1.0000
  C   C3758     1.0  0.65257  0.54448  0.96295  1.0000
  C   C3759     1.0  0.51724  0.56752  0.96904  1.0000
  C   C3760     1.0  0.74416  0.49520  0.97670  1.0000
  S   S1258     1.0  0.49696  0.57358  0.93268  1.0000
  H   H3753     1.0  0.54142  0.56116  0.96375  1.0000
  Fe  Fe631     1.0  0.98939  0.50169  0.87245  1.0000
  N   N311      1.0  0.50410  0.56371  0.97022  1.0000
  H   H3754     1.0  0.93368  0.58199  0.56226  1.0000
  Fe  Fe632     1.0  0.61574  0.58257  0.95286  1.0000
  H   H3755     1.0  0.70243  0.58314  0.97090  1.0000
  Fe  Fe633     1.0  0.59139  0.58265  0.93773  1.0000
  C   C3761     1.0  0.54346  0.58315  0.93237  1.0000
  S   S1259     1.0  0.93188  0.55645  0.47803  1.0000
  Fe  Fe634     1.0  0.67451  0.63343  0.00122  1.0000
  Fe  Fe635     1.0  0.61240  0.59522  0.13582  1.0000
  S   S1260     1.0  0.65803  0.63829  0.02178  1.0000
  H   H3756     1.0  0.54831  0.75574  0.20308  1.0000
  C   C3762     1.0  0.92637  0.61530  0.46509  1.0000
  H   H3757     1.0  0.54944  0.74957  0.28173  1.0000
  C   C3763     1.0  0.57175  0.73683  0.28298  1.0000
  H   H3758     1.0  0.69878  0.70984  0.05189  1.0000
  C   C3764     1.0  0.67122  0.77815  0.05111  1.0000
  H   H3759     1.0  0.50375  0.68787  0.19476  1.0000
  C   C3765     1.0  0.69585  0.68390  0.97805  1.0000
  Fe  Fe636     1.0  0.53283  0.75152  0.23920  1.0000
  S   S1261     1.0  0.53403  0.72722  0.24664  1.0000
  S   S1262     1.0  0.55500  0.75807  0.22993  1.0000
  Fe  Fe637     1.0  0.51588  0.73104  0.23465  1.0000
  S   S1263     1.0  0.52096  0.71482  0.22012  1.0000
  C   C3766     1.0  0.63497  0.67003  0.99545  1.0000
  H   H3760     1.0  0.58376  0.63130  0.18161  1.0000
  S   S1264     1.0  0.51621  0.75501  0.22544  1.0000
  N   N312      1.0  0.95809  0.74009  0.41636  1.0000
  C   C3767     1.0  0.87384  0.74907  0.46414  1.0000
  C   C3768     1.0  0.68862  0.70921  0.98147  1.0000
  C   C3769     1.0  0.97710  0.59749  0.34239  1.0000
  C   C3770     1.0  0.55961  0.60296  0.18883  1.0000
  C   C3771     1.0  0.56944  0.60068  0.19803  1.0000
  C   C3772     1.0  0.97959  0.60882  0.34711  1.0000
  H   H3761     1.0  0.55296  0.59487  0.19081  1.0000
  H   H3762     1.0  0.65713  0.65424  0.15848  1.0000
  H   H3763     1.0  0.64765  0.60533  0.17080  1.0000
  H   H3764     1.0  0.86557  0.69259  0.47468  1.0000
  H   H3765     1.0  0.95906  0.72211  0.43536  1.0000
  Fe  Fe638     1.0  0.52575  0.77552  0.35032  1.0000
  H   H3766     1.0  0.52891  0.67518  0.16866  1.0000
  C   C3773     1.0  0.97327  0.66524  0.41324  1.0000
  H   H3767     1.0  0.63690  0.65913  0.00333  1.0000
  C   C3774     1.0  0.96625  0.62143  0.42688  1.0000
  H   H3768     1.0  0.65116  0.74234  0.18479  1.0000
  S   S1265     1.0  0.66801  0.64214  0.97932  1.0000
  C   C3775     1.0  0.73756  0.58475  0.09677  1.0000
  H   H3769     1.0  0.95428  0.60711  0.39694  1.0000
  C   C3776     1.0  0.72818  0.66076  0.11761  1.0000
  C   C3777     1.0  0.63228  0.69456  0.00008  1.0000
  Fe  Fe639     1.0  0.69266  0.63101  0.08599  1.0000
  S   S1266     1.0  0.71369  0.63883  0.08204  1.0000
  S   S1267     1.0  0.95435  0.66683  0.46161  1.0000
  Fe  Fe640     1.0  0.67769  0.64505  0.11214  1.0000
  S   S1268     1.0  0.69764  0.65351  0.11103  1.0000
  S   S1269     1.0  0.65686  0.64802  0.12991  1.0000
  Fe  Fe641     1.0  0.69850  0.66020  0.08665  1.0000
  S   S1270     1.0  0.70383  0.68199  0.07311  1.0000
  C   C3778     1.0  0.56881  0.76702  0.38726  1.0000
  S   S1271     1.0  0.67756  0.65322  0.08798  1.0000
  S   S1272     1.0  0.64268  0.77594  0.02089  1.0000
  Fe  Fe642     1.0  0.58647  0.68896  0.18421  1.0000
  S   S1273     1.0  0.58233  0.67899  0.20851  1.0000
  S   S1274     1.0  0.56919  0.69604  0.17059  1.0000
  Fe  Fe643     1.0  0.61870  0.68795  0.18158  1.0000
  S   S1275     1.0  0.61798  0.67754  0.20566  1.0000
  S   S1276     1.0  0.63974  0.69240  0.16510  1.0000
  Fe  Fe644     1.0  0.60435  0.66344  0.20271  1.0000
  S   S1277     1.0  0.60684  0.63973  0.21495  1.0000
  Fe  Fe645     1.0  0.59609  0.69386  0.20966  1.0000
  S   S1278     1.0  0.58755  0.70721  0.22726  1.0000
  S   S1279     1.0  0.60734  0.67210  0.17828  1.0000
  S   S1280     1.0  0.59787  0.70550  0.18590  1.0000
  C   C3779     1.0  0.98220  0.58508  0.41388  1.0000
  C   C3780     1.0  0.65628  0.63122  0.16758  1.0000
  C   C3781     1.0  0.74992  0.58600  0.99343  1.0000
  Fe  Fe646     1.0  0.65617  0.76321  0.11642  1.0000
  S   S1281     1.0  0.67417  0.75674  0.12922  1.0000
  S   S1282     1.0  0.63358  0.75853  0.12817  1.0000
  H   H3770     1.0  0.66620  0.60084  0.17444  1.0000
  C   C3782     1.0  0.96252  0.75136  0.38599  1.0000
  Fe  Fe647     1.0  0.68766  0.74598  0.11048  1.0000
  S   S1283     1.0  0.70096  0.72263  0.11503  1.0000
  S   S1284     1.0  0.51592  0.75704  0.25938  1.0000
  S   S1285     1.0  0.66924  0.75107  0.09854  1.0000
  H   H3771     1.0  0.65924  0.77983  0.32812  1.0000
  H   H3772     1.0  0.63154  0.71618  0.00299  1.0000
  C   C3783     1.0  0.63367  0.63444  0.10904  1.0000
  S   S1286     1.0  0.97912  0.62835  0.28560  1.0000
  H   H3773     1.0  0.97582  0.63233  0.34455  1.0000
  H   H3774     1.0  0.63231  0.60081  0.98890  1.0000
  H   H3775     1.0  0.69543  0.60386  0.04799  1.0000
  H   H3776     1.0  0.65452  0.68107  0.11772  1.0000
  H   H3777     1.0  0.99048  0.70417  0.39565  1.0000
  S   S1287     1.0  0.64354  0.74741  0.26970  1.0000
  S   S1288     1.0  0.50873  0.76383  0.36711  1.0000
  Fe  Fe648     1.0  0.60292  0.76940  0.27149  1.0000
  S   S1289     1.0  0.60897  0.74465  0.27600  1.0000
  H   H3778     1.0  0.65614  0.60894  0.98387  1.0000
  Fe  Fe649     1.0  0.62406  0.74661  0.28908  1.0000
  S   S1290     1.0  0.62693  0.73013  0.31037  1.0000
  Fe  Fe650     1.0  0.62767  0.74784  0.25622  1.0000
  S   S1291     1.0  0.63515  0.73479  0.23838  1.0000
  H   H3779     1.0  0.65069  0.77950  0.06767  1.0000
  H   H3780     1.0  0.54043  0.66182  0.21739  1.0000
  H   H3781     1.0  0.58632  0.70333  0.27403  1.0000
  C   C3784     1.0  0.64767  0.65005  0.18191  1.0000
  H   H3782     1.0  0.52291  0.72731  0.18574  1.0000
  C   C3785     1.0  0.55862  0.71847  0.20663  1.0000
  H   H3783     1.0  0.54321  0.62901  0.16419  1.0000
  H   H3784     1.0  0.71328  0.61671  0.02110  1.0000
  S   S1292     1.0  0.61734  0.61332  0.11612  1.0000
  H   H3785     1.0  0.58079  0.72613  0.37343  1.0000
  C   C3786     1.0  0.99397  0.59176  0.40514  1.0000
  H   H3786     1.0  0.60640  0.72296  0.12636  1.0000
  S   S1293     1.0  0.63411  0.75236  0.36317  1.0000
  C   C3787     1.0  0.51093  0.72595  0.30341  1.0000
  Fe  Fe651     1.0  0.67336  0.74434  0.98454  1.0000
  S   S1294     1.0  0.94649  0.70123  0.46613  1.0000
  C   C3788     1.0  0.50031  0.69577  0.20173  1.0000
  C   C3789     1.0  0.72989  0.69026  0.10987  1.0000
  H   H3787     1.0  0.55295  0.77031  0.31830  1.0000
  H   H3788     1.0  0.59115  0.73604  0.35662  1.0000
  C   C3790     1.0  0.95315  0.75488  0.41097  1.0000
  Fe  Fe652     1.0  0.70724  0.62345  0.98782  1.0000
  H   H3789     1.0  0.58641  0.75412  0.19532  1.0000
  N   N313      1.0  0.58155  0.74770  0.37402  1.0000
  H   H3790     1.0  0.70199  0.69702  0.03317  1.0000
  H   H3791     1.0  0.61971  0.58745  0.21503  1.0000
  H   H3792     1.0  0.50279  0.68394  0.13747  1.0000
  H   H3793     1.0  0.90307  0.70389  0.41577  1.0000
  N   N314      1.0  0.73368  0.66708  0.10321  1.0000
  S   S1295     1.0  0.68832  0.61166  0.99611  1.0000
  Fe  Fe653     1.0  0.92889  0.70586  0.45315  1.0000
  H   H3794     1.0  0.55508  0.61283  0.15753  1.0000
  S   S1296     1.0  0.91518  0.72851  0.44566  1.0000
  Fe  Fe654     1.0  0.93637  0.67448  0.44877  1.0000
  S   S1297     1.0  0.93225  0.66040  0.43604  1.0000
  S   S1298     1.0  0.62430  0.58466  0.18575  1.0000
  H   H3795     1.0  0.53965  0.71796  0.17481  1.0000
  H   H3796     1.0  0.70211  0.67265  0.98075  1.0000
  S   S1299     1.0  0.94421  0.69488  0.43526  1.0000
  N   N315      1.0  0.65215  0.62083  0.17993  1.0000
  C   C3791     1.0  0.57807  0.71331  0.27602  1.0000
  H   H3797     1.0  0.98351  0.72920  0.45831  1.0000
  C   C3792     1.0  0.62744  0.70692  0.12567  1.0000
  S   S1300     1.0  0.62062  0.77262  0.25061  1.0000
  C   C3793     1.0  0.97395  0.62358  0.34071  1.0000
  H   H3798     1.0  0.91710  0.69073  0.42491  1.0000
  H   H3799     1.0  0.58838  0.74382  0.21366  1.0000
  C   C3794     1.0  0.95521  0.76072  0.39573  1.0000
  H   H3800     1.0  0.72624  0.62871  0.01568  1.0000
  H   H3801     1.0  0.95883  0.58549  0.41735  1.0000
  C   C3795     1.0  0.71872  0.62303  0.02526  1.0000
  H   H3802     1.0  0.65781  0.70937  0.00619  1.0000
  C   C3796     1.0  0.55393  0.72878  0.27533  1.0000
  C   C3797     1.0  0.92980  0.64315  0.44727  1.0000
  C   C3798     1.0  0.92985  0.63179  0.44086  1.0000
  C   C3799     1.0  0.92844  0.61776  0.44974  1.0000
  H   H3803     1.0  0.73881  0.59824  0.02160  1.0000
  S   S1301     1.0  0.92394  0.59808  0.47649  1.0000
  H   H3804     1.0  0.86571  0.75909  0.46103  1.0000
  H   H3805     1.0  0.93110  0.63380  0.42902  1.0000
  H   H3806     1.0  0.92856  0.60897  0.44477  1.0000
  H   H3807     1.0  0.72030  0.60401  0.10061  1.0000
  C   C3800     1.0  0.98910  0.63617  0.29310  1.0000
  N   N316      1.0  0.56409  0.71588  0.27343  1.0000
  C   C3801     1.0  0.56851  0.75634  0.38015  1.0000
  Fe  Fe655     1.0  0.63489  0.77195  0.26581  1.0000
  C   C3802     1.0  0.96792  0.59062  0.41085  1.0000
  N   N317      1.0  0.55850  0.61513  0.17741  1.0000
  H   H3808     1.0  0.61162  0.73436  0.17852  1.0000
  S   S1302     1.0  0.57849  0.77991  0.27334  1.0000
  H   H3809     1.0  0.96257  0.73891  0.43697  1.0000
  C   C3803     1.0  0.64442  0.63969  0.12648  1.0000
  C   C3804     1.0  0.57473  0.77880  0.34916  1.0000
  H   H3810     1.0  0.53499  0.75309  0.18567  1.0000
  H   H3811     1.0  0.58569  0.60939  0.20263  1.0000
  H   H3812     1.0  0.50307  0.60639  0.09923  1.0000
  C   C3805     1.0  0.66938  0.77567  0.02721  1.0000
  C   C3806     1.0  0.64372  0.63933  0.19450  1.0000
  N   N318      1.0  0.63438  0.69236  0.12967  1.0000
  H   H3813     1.0  0.66038  0.61469  0.09350  1.0000
  C   C3807     1.0  0.50060  0.62719  0.11292  1.0000
  H   H3814     1.0  0.61557  0.61643  0.17280  1.0000
  H   H3815     1.0  0.96851  0.66552  0.39263  1.0000
  H   H3816     1.0  0.86840  0.71805  0.46116  1.0000
  Fe  Fe656     1.0  0.96099  0.68819  0.44935  1.0000
  C   C3808     1.0  0.96693  0.64479  0.40843  1.0000
  C   C3809     1.0  0.55631  0.77672  0.26225  1.0000
  H   H3817     1.0  0.59023  0.73400  0.19996  1.0000
  C   C3810     1.0  0.59265  0.74393  0.20168  1.0000
  S   S1303     1.0  0.68871  0.72226  0.99096  1.0000
  S   S1304     1.0  0.69098  0.62221  0.11030  1.0000
  C   C3811     1.0  0.88776  0.74588  0.45447  1.0000
  S   S1305     1.0  0.97337  0.62543  0.37674  1.0000
  H   H3818     1.0  0.66123  0.62814  0.15700  1.0000
  S   S1306     1.0  0.55054  0.76877  0.34969  1.0000
  H   H3819     1.0  0.63724  0.58841  0.10299  1.0000
  C   C3812     1.0  0.96941  0.65917  0.40369  1.0000
  C   C3813     1.0  0.72567  0.61614  0.04938  1.0000
  H   H3820     1.0  0.65021  0.59825  0.18933  1.0000
  H   H3821     1.0  0.66536  0.74028  0.34504  1.0000
  H   H3822     1.0  0.53952  0.68806  0.23983  1.0000
  N   N319      1.0  0.54307  0.72967  0.18893  1.0000
  H   H3823     1.0  0.90302  0.71310  0.47506  1.0000
  S   S1307     1.0  0.49911  0.64014  0.17599  1.0000
  H   H3824     1.0  0.97296  0.63624  0.44279  1.0000
  C   C3814     1.0  0.97704  0.60971  0.39070  1.0000
  H   H3825     1.0  0.96958  0.71912  0.41117  1.0000
  H   H3826     1.0  0.57120  0.74096  0.36080  1.0000
  H   H3827     1.0  0.51482  0.59221  0.10989  1.0000
  C   C3815     1.0  0.92792  0.64063  0.46259  1.0000
  C   C3816     1.0  0.56720  0.62511  0.17468  1.0000
  S   S1308     1.0  0.61648  0.77123  0.28627  1.0000
  H   H3828     1.0  0.59317  0.72150  0.28302  1.0000
  C   C3817     1.0  0.62760  0.73657  0.32541  1.0000
  C   C3818     1.0  0.63436  0.72661  0.33657  1.0000
  C   C3819     1.0  0.63602  0.73156  0.34823  1.0000
  C   C3820     1.0  0.63084  0.74649  0.34887  1.0000
  C   C3821     1.0  0.62336  0.75630  0.33813  1.0000
  C   C3822     1.0  0.62185  0.75139  0.32634  1.0000
  H   H3829     1.0  0.63864  0.71509  0.33601  1.0000
  H   H3830     1.0  0.64156  0.72382  0.35662  1.0000
  H   H3831     1.0  0.61863  0.76762  0.33887  1.0000
  H   H3832     1.0  0.61623  0.75906  0.31800  1.0000
  C   C3823     1.0  0.63700  0.62997  0.13796  1.0000
  C   C3824     1.0  0.52968  0.66612  0.22401  1.0000
  C   C3825     1.0  0.61714  0.59851  0.20829  1.0000
  C   C3826     1.0  0.99137  0.60416  0.39362  1.0000
  C   C3827     1.0  0.73944  0.60288  0.10887  1.0000
  C   C3828     1.0  0.63228  0.73783  0.18014  1.0000
  H   H3833     1.0  0.64073  0.66864  0.98406  1.0000
  C   C3829     1.0  0.61181  0.71135  0.12917  1.0000
  H   H3834     1.0  0.64578  0.66149  0.18263  1.0000
  H   H3835     1.0  0.63823  0.62818  0.14915  1.0000
  H   H3836     1.0  0.55071  0.67065  0.23565  1.0000
  H   H3837     1.0  0.62105  0.69780  0.99808  1.0000
  C   C3830     1.0  0.96537  0.60284  0.39921  1.0000
  H   H3838     1.0  0.63161  0.67034  0.13982  1.0000
  H   H3839     1.0  0.97526  0.67637  0.40972  1.0000
  C   C3831     1.0  0.50194  0.67752  0.24026  1.0000
  H   H3840     1.0  0.76010  0.59859  0.11587  1.0000
  C   C3832     1.0  0.54940  0.74492  0.20108  1.0000
  S   S1309     1.0  0.69307  0.61471  0.07324  1.0000
  H   H3841     1.0  0.56971  0.77436  0.30522  1.0000
  C   C3833     1.0  0.62610  0.68188  0.13675  1.0000
  H   H3842     1.0  0.96850  0.64939  0.32209  1.0000
  H   H3843     1.0  0.52511  0.59804  0.12745  1.0000
  C   C3834     1.0  0.62848  0.62199  0.13484  1.0000
  H   H3844     1.0  0.88832  0.72158  0.43857  1.0000
  S   S1310     1.0  0.99330  0.59440  0.26666  1.0000
  H   H3845     1.0  0.59367  0.76512  0.24950  1.0000
  C   C3835     1.0  0.88356  0.68209  0.45915  1.0000
  C   C3836     1.0  0.60100  0.71422  0.23082  1.0000
  C   C3837     1.0  0.61608  0.71062  0.22386  1.0000
  C   C3838     1.0  0.62657  0.71664  0.22661  1.0000
  C   C3839     1.0  0.62201  0.72632  0.23628  1.0000
  C   C3840     1.0  0.60692  0.72989  0.24325  1.0000
  C   C3841     1.0  0.59643  0.72392  0.24045  1.0000
  H   H3846     1.0  0.61970  0.70326  0.21631  1.0000
  H   H3847     1.0  0.63822  0.71393  0.22111  1.0000
  H   H3848     1.0  0.60326  0.73755  0.25047  1.0000
  H   H3849     1.0  0.58469  0.72714  0.24544  1.0000
  C   C3842     1.0  0.63796  0.71062  0.15441  1.0000
  C   C3843     1.0  0.62387  0.72004  0.15401  1.0000
  C   C3844     1.0  0.62258  0.73471  0.14588  1.0000
  C   C3845     1.0  0.63539  0.73997  0.13781  1.0000
  C   C3846     1.0  0.64948  0.73035  0.13762  1.0000
  C   C3847     1.0  0.65076  0.71574  0.14598  1.0000
  H   H3850     1.0  0.61393  0.71597  0.15955  1.0000
  H   H3851     1.0  0.61164  0.74198  0.14576  1.0000
  H   H3852     1.0  0.65944  0.73414  0.13113  1.0000
  H   H3853     1.0  0.66172  0.70848  0.14598  1.0000
  C   C3848     1.0  0.70132  0.69448  0.08424  1.0000
  C   C3849     1.0  0.70856  0.70632  0.07885  1.0000
  C   C3850     1.0  0.70754  0.71570  0.08803  1.0000
  C   C3851     1.0  0.69957  0.71304  0.10271  1.0000
  C   C3852     1.0  0.69200  0.70147  0.10799  1.0000
  C   C3853     1.0  0.69265  0.69237  0.09867  1.0000
  H   H3854     1.0  0.71538  0.70797  0.06775  1.0000
  H   H3855     1.0  0.71352  0.72457  0.08398  1.0000
  H   H3856     1.0  0.68582  0.69942  0.11934  1.0000
  H   H3857     1.0  0.68649  0.68371  0.10269  1.0000
  N   N320      1.0  0.52849  0.67579  0.23248  1.0000
  H   H3858     1.0  0.55141  0.70643  0.19536  1.0000
  C   C3854     1.0  0.55125  0.71732  0.19651  1.0000
  H   H3859     1.0  0.63396  0.71529  0.12019  1.0000
  H   H3860     1.0  0.67284  0.68385  0.00531  1.0000
  C   C3855     1.0  0.51745  0.60876  0.12613  1.0000
  H   H3861     1.0  0.60392  0.67761  0.14606  1.0000
  C   C3856     1.0  0.67346  0.58608  0.10132  1.0000
  C   C3857     1.0  0.50305  0.66769  0.23161  1.0000
  H   H3862     1.0  0.94772  0.76228  0.41848  1.0000
  H   H3863     1.0  0.74998  0.58604  0.06418  1.0000
  S   S1311     1.0  0.59734  0.59973  0.15723  1.0000
  H   H3864     1.0  0.56631  0.63476  0.16563  1.0000
  C   C3858     1.0  0.58207  0.72366  0.28096  1.0000
  H   H3865     1.0  0.96171  0.61833  0.43898  1.0000
  H   H3866     1.0  0.53377  0.73769  0.16973  1.0000
  H   H3867     1.0  0.60897  0.63831  0.18428  1.0000
  C   C3859     1.0  0.63923  0.74281  0.18816  1.0000
  H   H3868     1.0  0.71980  0.69086  0.13265  1.0000
  H   H3869     1.0  0.90185  0.67494  0.44205  1.0000
  H   H3870     1.0  0.96404  0.64011  0.40089  1.0000
  H   H3871     1.0  0.65357  0.74784  0.29895  1.0000
  S   S1312     1.0  0.73169  0.61942  0.11520  1.0000
  H   H3872     1.0  0.64795  0.64982  0.10323  1.0000
  C   C3860     1.0  0.63075  0.74834  0.20056  1.0000
  C   C3861     1.0  0.54295  0.65992  0.18288  1.0000
  C   C3862     1.0  0.55560  0.65758  0.18856  1.0000
  C   C3863     1.0  0.56372  0.66864  0.18472  1.0000
  C   C3864     1.0  0.55915  0.68214  0.17525  1.0000
  C   C3865     1.0  0.54648  0.68453  0.16959  1.0000
  C   C3866     1.0  0.53841  0.67340  0.17339  1.0000
  H   H3873     1.0  0.55907  0.64724  0.19604  1.0000
  H   H3874     1.0  0.57362  0.66661  0.18896  1.0000
  H   H3875     1.0  0.54297  0.69490  0.16216  1.0000
  H   H3876     1.0  0.63856  0.64238  0.20509  1.0000
  C   C3867     1.0  0.87570  0.70851  0.45704  1.0000
  C   C3868     1.0  0.55768  0.73235  0.20891  1.0000
  C   C3869     1.0  0.61790  0.60048  0.19324  1.0000
  H   H3877     1.0  0.98235  0.58911  0.21977  1.0000
  C   C3870     1.0  0.73444  0.68166  0.09925  1.0000
  H   H3878     1.0  0.55783  0.75553  0.37890  1.0000
  C   C3871     1.0  0.65075  0.68780  0.12626  1.0000
  C   C3872     1.0  0.55756  0.73938  0.28023  1.0000
  H   H3879     1.0  0.51379  0.68948  0.24696  1.0000
  Fe  Fe657     1.0  0.93823  0.68031  0.47735  1.0000
  C   C3873     1.0  0.73728  0.60056  0.03233  1.0000
  Fe  Fe658     1.0  0.71104  0.63151  0.10654  1.0000
  C   C3874     1.0  0.72398  0.68403  0.12450  1.0000
  C   C3875     1.0  0.96900  0.60103  0.33143  1.0000
  H   H3880     1.0  0.62324  0.61409  0.14364  1.0000
  H   H3881     1.0  0.52289  0.69621  0.20114  1.0000
  C   C3876     1.0  0.56113  0.76443  0.24206  1.0000
  C   C3877     1.0  0.57649  0.76231  0.24083  1.0000
  C   C3878     1.0  0.58178  0.76702  0.25046  1.0000
  C   C3879     1.0  0.59566  0.75896  0.38305  1.0000
  H   H3882     1.0  0.73034  0.70188  0.10670  1.0000
  C   C3880     1.0  0.65420  0.60557  0.17859  1.0000
  H   H3883     1.0  0.58435  0.75685  0.23252  1.0000
  H   H3884     1.0  0.68910  0.70280  0.02119  1.0000
  H   H3885     1.0  0.97784  0.66149  0.43474  1.0000
  C   C3881     1.0  0.69585  0.70685  0.02627  1.0000
  H   H3886     1.0  0.68191  0.59265  0.09694  1.0000
  S   S1313     1.0  0.98442  0.68866  0.43658  1.0000
  H   H3887     1.0  0.73832  0.68681  0.08777  1.0000
  H   H3888     1.0  0.53912  0.77367  0.25358  1.0000
  C   C3882     1.0  0.51283  0.60414  0.10430  1.0000
  C   C3883     1.0  0.57173  0.77429  0.26114  1.0000
  H   H3889     1.0  0.62277  0.67379  0.99581  1.0000
  C   C3884     1.0  0.89829  0.73287  0.45834  1.0000
  H   H3890     1.0  0.50370  0.63856  0.14203  1.0000
  C   C3885     1.0  0.88698  0.71044  0.44425  1.0000
  C   C3886     1.0  0.55907  0.78157  0.35217  1.0000
  C   C3887     1.0  0.57708  0.62322  0.18370  1.0000
  C   C3888     1.0  0.64259  0.64205  0.11207  1.0000
  C   C3889     1.0  0.75380  0.59475  0.11054  1.0000
  C   C3890     1.0  0.50688  0.71045  0.21474  1.0000
  N   N321      1.0  0.72734  0.61299  0.03598  1.0000
  N   N322      1.0  0.66206  0.75767  0.32614  1.0000
  S   S1314     1.0  0.64386  0.78112  0.97842  1.0000
  H   H3891     1.0  0.52281  0.60612  0.09542  1.0000
  H   H3892     1.0  0.95819  0.61992  0.42135  1.0000
  C   C3891     1.0  0.61046  0.68592  0.14032  1.0000
  N   N323      1.0  0.51001  0.61349  0.11485  1.0000
  C   C3892     1.0  0.72380  0.58591  0.00419  1.0000
  H   H3893     1.0  0.60530  0.74152  0.37126  1.0000
  S   S1315     1.0  0.69384  0.64439  0.99497  1.0000
  C   C3893     1.0  0.66744  0.63175  0.03632  1.0000
  C   C3894     1.0  0.66367  0.63930  0.04775  1.0000
  C   C3895     1.0  0.67171  0.63434  0.05903  1.0000
  C   C3896     1.0  0.68320  0.62159  0.05907  1.0000
  C   C3897     1.0  0.68670  0.61386  0.04785  1.0000
  C   C3898     1.0  0.67903  0.61909  0.03633  1.0000
  H   H3894     1.0  0.65469  0.64909  0.04776  1.0000
  H   H3895     1.0  0.66880  0.64021  0.06782  1.0000
  H   H3896     1.0  0.94378  0.73765  0.43774  1.0000
  H   H3897     1.0  0.68186  0.61313  0.02763  1.0000
  H   H3898     1.0  0.72744  0.64922  0.12075  1.0000
  C   C3899     1.0  0.73137  0.59785  0.10194  1.0000
  H   H3899     1.0  0.56307  0.73325  0.21704  1.0000
  C   C3900     1.0  0.56033  0.70516  0.26771  1.0000
  H   H3900     1.0  0.56652  0.69372  0.27164  1.0000
  H   H3901     1.0  0.54819  0.70516  0.27157  1.0000
  H   H3902     1.0  0.56326  0.70797  0.25542  1.0000
  C   C3901     1.0  0.72316  0.66917  0.12845  1.0000
  C   C3902     1.0  0.51516  0.61758  0.13620  1.0000
  C   C3903     1.0  0.62695  0.62409  0.12034  1.0000
  H   H3903     1.0  0.63226  0.63634  0.09787  1.0000
  H   H3904     1.0  0.95898  0.64383  0.31182  1.0000
  C   C3904     1.0  0.53441  0.72811  0.17931  1.0000
  H   H3905     1.0  0.53941  0.61111  0.17307  1.0000
  C   C3905     1.0  0.96370  0.61590  0.32509  1.0000
  H   H3906     1.0  0.64276  0.61649  0.20315  1.0000
  H   H3907     1.0  0.66053  0.60704  0.07837  1.0000
  C   C3906     1.0  0.96050  0.64250  0.32318  1.0000
  H   H3908     1.0  0.65615  0.69744  0.12224  1.0000
  Fe  Fe659     1.0  0.49920  0.75856  0.24633  1.0000
  H   H3909     1.0  0.65472  0.68102  0.13640  1.0000
  H   H3910     1.0  0.89030  0.75343  0.44392  1.0000
  H   H3911     1.0  0.61264  0.60899  0.22644  1.0000
  C   C3907     1.0  0.90801  0.70084  0.42564  1.0000
  N   N324      1.0  0.89638  0.69847  0.43914  1.0000
  N   N325      1.0  0.68623  0.71755  0.03506  1.0000
  C   C3908     1.0  0.57813  0.61096  0.19549  1.0000
  S   S1316     1.0  0.91939  0.68593  0.46561  1.0000
  H   H3912     1.0  0.70967  0.63152  0.03021  1.0000
  Fe  Fe660     1.0  0.67669  0.77223  0.08695  1.0000
  H   H3913     1.0  0.51804  0.65440  0.21652  1.0000
  C   C3909     1.0  0.65800  0.77274  0.32179  1.0000
  C   C3910     1.0  0.66856  0.75102  0.33921  1.0000
  Fe  Fe661     1.0  0.99262  0.63662  0.36731  1.0000
  H   H3914     1.0  0.97338  0.72897  0.38404  1.0000
  C   C3911     1.0  0.67454  0.72771  0.02994  1.0000
  C   C3912     1.0  0.51216  0.74026  0.30282  1.0000
  C   C3913     1.0  0.49823  0.63641  0.12265  1.0000
  C   C3914     1.0  0.89459  0.68444  0.44622  1.0000
  C   C3915     1.0  0.98968  0.70453  0.43685  1.0000
  H   H3915     1.0  0.72916  0.66165  0.08538  1.0000
  C   C3916     1.0  0.50720  0.74594  0.31574  1.0000
  C   C3917     1.0  0.73807  0.65849  0.09174  1.0000
  S   S1317     1.0  0.67637  0.76538  0.98780  1.0000
  S   S1318     1.0  0.96927  0.58893  0.29837  1.0000
  C   C3918     1.0  0.50061  0.73747  0.32911  1.0000
  H   H3916     1.0  0.64344  0.61153  0.09164  1.0000
  H   H3917     1.0  0.55852  0.77445  0.39131  1.0000
  Fe  Fe662     1.0  0.68118  0.77753  0.11517  1.0000
  H   H3918     1.0  0.63548  0.77826  0.05113  1.0000
  H   H3919     1.0  0.59117  0.70404  0.13970  1.0000
  C   C3919     1.0  0.73499  0.59372  0.99645  1.0000
  C   C3920     1.0  0.59498  0.74863  0.37574  1.0000
  H   H3920     1.0  0.95150  0.77250  0.39147  1.0000
  C   C3921     1.0  0.98433  0.71086  0.44924  1.0000
  H   H3921     1.0  0.94961  0.64677  0.33021  1.0000
  H   H3922     1.0  0.57037  0.59098  0.20700  1.0000
  H   H3923     1.0  0.73988  0.64638  0.09655  1.0000
  C   C3922     1.0  0.92597  0.62678  0.47151  1.0000
  S   S1319     1.0  0.98730  0.66008  0.35484  1.0000
  H   H3924     1.0  0.51717  0.74682  0.29252  1.0000
  H   H3925     1.0  0.57479  0.74512  0.28652  1.0000
  N   N326      1.0  0.96811  0.63675  0.42236  1.0000
  H   H3926     1.0  0.70336  0.69143  0.99323  1.0000
  C   C3923     1.0  0.97469  0.65688  0.42732  1.0000
  S   S1320     1.0  0.53336  0.64565  0.18749  1.0000
  C   C3924     1.0  0.61314  0.61071  0.21476  1.0000
  C   C3925     1.0  0.54195  0.74335  0.19121  1.0000
  N   N327      1.0  0.64083  0.68069  0.99918  1.0000
  C   C3926     1.0  0.65521  0.67684  0.00106  1.0000
  S   S1321     1.0  0.82623  0.77120  0.46396  1.0000
  C   C3927     1.0  0.66141  0.68698  0.00392  1.0000
  C   C3928     1.0  0.63818  0.70503  0.00281  1.0000
  C   C3929     1.0  0.65290  0.70123  0.00458  1.0000
  S   S1322     1.0  0.64965  0.74675  0.99740  1.0000
  H   H3927     1.0  0.66202  0.66590  0.00018  1.0000
  C   C3930     1.0  0.51702  0.66188  0.22347  1.0000
  C   C3931     1.0  0.64610  0.62467  0.19332  1.0000
  H   H3928     1.0  0.58135  0.76910  0.34501  1.0000
  C   C3932     1.0  0.54192  0.68043  0.23228  1.0000
  H   H3929     1.0  0.71851  0.66422  0.13978  1.0000
  C   C3933     1.0  0.66848  0.73842  0.05124  1.0000
  H   H3930     1.0  0.70404  0.71224  0.01721  1.0000
  C   C3934     1.0  0.61693  0.73827  0.18480  1.0000
  H   H3931     1.0  0.68093  0.74926  0.33594  1.0000
  C   C3935     1.0  0.61539  0.74874  0.20482  1.0000
  H   H3932     1.0  0.54293  0.73097  0.27305  1.0000
  H   H3933     1.0  0.63875  0.73362  0.17040  1.0000
  H   H3934     1.0  0.97748  0.70551  0.45913  1.0000
  N   N328      1.0  0.96632  0.62695  0.32969  1.0000
  S   S1323     1.0  0.69651  0.76599  0.09742  1.0000
  H   H3935     1.0  0.98139  0.58597  0.34723  1.0000
  H   H3936     1.0  0.67226  0.72781  0.01951  1.0000
  C   C3936     1.0  0.61474  0.61486  0.18453  1.0000
  H   H3937     1.0  0.67314  0.77992  0.21292  1.0000
  H   H3938     1.0  0.92780  0.64938  0.46761  1.0000
  H   H3939     1.0  0.52090  0.61362  0.14529  1.0000
  C   C3937     1.0  0.65404  0.64599  0.16836  1.0000
  H   H3940     1.0  0.68315  0.72836  0.06647  1.0000
  H   H3941     1.0  0.56457  0.70865  0.21304  1.0000
  C   C3938     1.0  0.97200  0.64259  0.43176  1.0000
  Fe  Fe663     1.0  0.98529  0.60384  0.28705  1.0000
  Fe  Fe664     1.0  0.65217  0.76862  0.99915  1.0000
  H   H3942     1.0  0.95772  0.61854  0.31630  1.0000
  H   H3943     1.0  0.73209  0.60890  0.07046  1.0000
  H   H3944     1.0  0.66158  0.74661  0.05752  1.0000
  H   H3945     1.0  0.60895  0.75288  0.21459  1.0000
  C   C3939     1.0  0.89492  0.72310  0.47194  1.0000
  C   C3940     1.0  0.54856  0.61712  0.16752  1.0000
  C   C3941     1.0  0.61027  0.62508  0.20617  1.0000
  C   C3942     1.0  0.96757  0.73629  0.39157  1.0000
  H   H3946     1.0  0.74869  0.66061  0.08403  1.0000
  H   H3947     1.0  0.65600  0.74607  0.03402  1.0000
  H   H3948     1.0  0.64591  0.77519  0.29109  1.0000
  N   N329      1.0  0.60874  0.74347  0.19712  1.0000
  C   C3943     1.0  0.68940  0.71777  0.04796  1.0000
  C   C3944     1.0  0.73374  0.60650  0.05972  1.0000
  C   C3945     1.0  0.60330  0.70077  0.13665  1.0000
  C   C3946     1.0  0.51115  0.70052  0.20537  1.0000
  C   C3947     1.0  0.68058  0.72819  0.05625  1.0000
  H   H3949     1.0  0.63606  0.75197  0.20708  1.0000
  C   C3948     1.0  0.61103  0.62722  0.19100  1.0000
  C   C3949     1.0  0.87411  0.69423  0.46461  1.0000
  Fe  Fe665     1.0  0.51573  0.73293  0.26574  1.0000
  H   H3950     1.0  0.71237  0.59178  0.00711  1.0000
  H   H3951     1.0  0.71783  0.62600  0.05231  1.0000
  H   H3952     1.0  0.91328  0.70982  0.42549  1.0000
  C   C3950     1.0  0.66077  0.74878  0.31794  1.0000
  Fe  Fe666     1.0  0.50966  0.65315  0.18455  1.0000
  C   C3951     1.0  0.58251  0.76841  0.38858  1.0000
  C   C3952     1.0  0.66537  0.73815  0.03804  1.0000
  H   H3953     1.0  0.96453  0.75586  0.37413  1.0000
  H   H3954     1.0  0.50231  0.71035  0.12518  1.0000
  H   H3955     1.0  0.66392  0.73682  0.32138  1.0000
  S   S1324     1.0  0.73070  0.61311  0.99112  1.0000
  H   H3956     1.0  0.75865  0.59202  0.98764  1.0000
  H   H3957     1.0  0.88246  0.67091  0.46493  1.0000
  H   H3958     1.0  0.97717  0.61378  0.42388  1.0000
  Fe  Fe667     1.0  0.50074  0.76359  0.34735  1.0000
  C   C3953     1.0  0.96536  0.73080  0.40689  1.0000
  H   H3959     1.0  0.97940  0.58651  0.24669  1.0000
  C   C3954     1.0  0.65570  0.60705  0.09025  1.0000
  C   C3955     1.0  0.69664  0.69456  0.98502  1.0000
  C   C3956     1.0  0.58115  0.73713  0.36588  1.0000
  C   C3957     1.0  0.65496  0.75494  0.30521  1.0000
  H   H3960     1.0  0.50829  0.75690  0.31531  1.0000
  S   S1325     1.0  0.51769  0.71794  0.28786  1.0000
  S   S1326     1.0  0.51898  0.77321  0.33076  1.0000
  C   C3958     1.0  0.74557  0.59069  0.04238  1.0000
  C   C3959     1.0  0.95578  0.73439  0.43239  1.0000
  C   C3960     1.0  0.51486  0.68142  0.24063  1.0000
  C   C3961     1.0  0.55100  0.77166  0.25280  1.0000
  C   C3962     1.0  0.65211  0.77927  0.30915  1.0000
  C   C3963     1.0  0.50550  0.63151  0.13440  1.0000
  H   H3961     1.0  0.73402  0.77989  0.40205  1.0000
  C   C3964     1.0  0.65596  0.77837  0.05644  1.0000
  H   H3962     1.0  0.98571  0.60621  0.35578  1.0000
  H   H3963     1.0  0.66425  0.75821  0.34738  1.0000
  C   C3965     1.0  0.98784  0.72417  0.44882  1.0000
  Fe  Fe668     1.0  0.63057  0.77689  0.36117  1.0000
  H   H3964     1.0  0.96689  0.59225  0.32786  1.0000
  S   S1327     1.0  0.68203  0.78056  0.06207  1.0000
  Fe  Fe669     1.0  0.99233  0.78046  0.38501  1.0000
  C   C3966     1.0  0.65055  0.77029  0.30085  1.0000
  H   H3965     1.0  0.54625  0.68651  0.22095  1.0000
  N   N330      1.0  0.65921  0.59201  0.09918  1.0000
  C   C3967     1.0  0.55741  0.77844  0.30854  1.0000
  S   S1328     1.0  0.49904  0.67535  0.17224  1.0000
  H   H3966     1.0  0.58297  0.77690  0.39372  1.0000
  C   C3968     1.0  0.64066  0.59940  0.97888  1.0000
  C   C3969     1.0  0.74372  0.59367  0.05620  1.0000
  C   C3970     1.0  0.64736  0.77771  0.04703  1.0000
  H   H3967     1.0  0.60637  0.75975  0.38420  1.0000
  C   C3971     1.0  0.50464  0.71747  0.31682  1.0000
  C   C3972     1.0  0.65400  0.77642  0.03238  1.0000
  H   H3968     1.0  0.55261  0.77904  0.29909  1.0000
  H   H3969     1.0  0.98419  0.65742  0.27840  1.0000
  S   S1329     1.0  0.99386  0.68205  0.38007  1.0000
  H   H3970     1.0  0.67469  0.77449  0.01603  1.0000
  H   H3971     1.0  0.50373  0.70639  0.31736  1.0000
  S   S1330     1.0  0.99350  0.75616  0.39458  1.0000
  H   H3972     1.0  0.68969  0.77659  0.03230  1.0000
  H   H3973     1.0  0.54848  0.78246  0.27042  1.0000
  C   C3973     1.0  0.67788  0.77678  0.03648  1.0000
  C   C3974     1.0  0.98933  0.65116  0.28761  1.0000
  S   S1331     1.0  0.49746  0.73471  0.25449  1.0000
  C   C3975     1.0  0.49928  0.72329  0.32953  1.0000
  C   C3976     1.0  0.64857  0.58370  0.10462  1.0000
  C   C3977     1.0  0.87040  0.73921  0.47765  1.0000
  H   H3974     1.0  0.89655  0.72765  0.50321  1.0000
  C   C3978     1.0  0.51273  0.76058  0.63968  1.0000
  C   C3979     1.0  0.50542  0.63699  0.90410  1.0000
  H   H3975     1.0  0.62490  0.64030  0.96800  1.0000
  C   C3980     1.0  0.66487  0.60223  0.96306  1.0000
  H   H3976     1.0  0.67314  0.70583  0.95521  1.0000
  H   H3977     1.0  0.97953  0.58760  0.60926  1.0000
  H   H3978     1.0  0.84824  0.74503  0.64675  1.0000
  H   H3979     1.0  0.54351  0.73099  0.85321  1.0000
  Fe  Fe670     1.0  0.63106  0.67572  0.91328  1.0000
  S   S1332     1.0  0.61695  0.67072  0.93607  1.0000
  S   S1333     1.0  0.64941  0.65901  0.90283  1.0000
  Fe  Fe671     1.0  0.61761  0.70884  0.90893  1.0000
  S   S1334     1.0  0.60218  0.70654  0.93130  1.0000
  S   S1335     1.0  0.61931  0.73191  0.89611  1.0000
  Fe  Fe672     1.0  0.62203  0.69084  0.93925  1.0000
  S   S1336     1.0  0.63104  0.69114  0.95840  1.0000
  Fe  Fe673     1.0  0.59853  0.68685  0.92589  1.0000
  S   S1337     1.0  0.57599  0.68124  0.93179  1.0000
  S   S1338     1.0  0.63775  0.69443  0.91725  1.0000
  S   S1339     1.0  0.61237  0.69039  0.90270  1.0000
  Fe  Fe674     1.0  0.50754  0.67331  0.89466  1.0000
  S   S1340     1.0  0.66749  0.75486  0.96241  1.0000
  H   H3980     1.0  0.92430  0.62493  0.48338  1.0000
  S   S1341     1.0  0.97587  0.67202  0.67000  1.0000
  C   C3981     1.0  0.68725  0.68795  0.96736  1.0000
  H   H3981     1.0  0.87715  0.72912  0.51287  1.0000
  H   H3982     1.0  0.98737  0.69545  0.63003  1.0000
  S   S1342     1.0  0.63402  0.60069  0.89894  1.0000
  C   C3982     1.0  0.99299  0.69310  0.65884  1.0000
  C   C3983     1.0  0.89253  0.74864  0.52418  1.0000
  C   C3984     1.0  0.97977  0.68932  0.66800  1.0000
  S   S1343     1.0  0.49745  0.71553  0.87727  1.0000
  H   H3983     1.0  0.64651  0.58730  0.94752  1.0000
  H   H3984     1.0  0.56247  0.63343  0.93290  1.0000
  C   C3985     1.0  0.67969  0.70266  0.96351  1.0000
  N   N331      1.0  0.88726  0.74576  0.51371  1.0000
  N   N332      1.0  0.93424  0.58545  0.53924  1.0000
  C   C3986     1.0  0.88252  0.71239  0.63313  1.0000
  Fe  Fe675     1.0  0.93618  0.67450  0.58713  1.0000
  S   S1344     1.0  0.94374  0.69558  0.57487  1.0000
  S   S1345     1.0  0.95325  0.65299  0.58831  1.0000
  Fe  Fe676     1.0  0.90443  0.69047  0.59821  1.0000
  S   S1346     1.0  0.90914  0.71287  0.58693  1.0000
  S   S1347     1.0  0.88291  0.68528  0.61281  1.0000
  Fe  Fe677     1.0  0.92179  0.70220  0.56779  1.0000
  S   S1348     1.0  0.91863  0.71396  0.54473  1.0000
  Fe  Fe678     1.0  0.93051  0.70420  0.59508  1.0000
  S   S1349     1.0  0.93657  0.71616  0.60881  1.0000
  S   S1350     1.0  0.91530  0.68038  0.57855  1.0000
  S   S1351     1.0  0.92470  0.68256  0.60788  1.0000
  S   S1352     1.0  0.82512  0.73688  0.61553  1.0000
  H   H3985     1.0  0.85324  0.75896  0.63066  1.0000
  H   H3986     1.0  0.60989  0.71905  0.95158  1.0000
  C   C3987     1.0  0.73624  0.78020  0.53884  1.0000
  S   S1353     1.0  0.53651  0.71297  0.88432  1.0000
  N   N333      1.0  0.86735  0.73714  0.63109  1.0000
  S   S1354     1.0  0.98495  0.75584  0.62306  1.0000
  H   H3987     1.0  0.52350  0.71729  0.81815  1.0000
  C   C3988     1.0  0.53360  0.73873  0.83405  1.0000
  Fe  Fe679     1.0  0.84478  0.77706  0.57597  1.0000
  S   S1355     1.0  0.68152  0.60840  0.95868  1.0000
  S   S1356     1.0  0.97243  0.58859  0.56847  1.0000
  N   N334      1.0  0.52804  0.73488  0.82440  1.0000
  Fe  Fe680     1.0  0.50127  0.69638  0.86694  1.0000
  H   H3988     1.0  0.75729  0.77113  0.50097  1.0000
  N   N335      1.0  0.95583  0.65024  0.63141  1.0000
  C   C3989     1.0  0.86713  0.69989  0.61343  1.0000
  C   C3990     1.0  0.86785  0.71410  0.60485  1.0000
  C   C3991     1.0  0.85499  0.72555  0.60545  1.0000
  C   C3992     1.0  0.84140  0.72282  0.61465  1.0000
  C   C3993     1.0  0.84070  0.70861  0.62322  1.0000
  C   C3994     1.0  0.85354  0.69717  0.62262  1.0000
  H   H3989     1.0  0.87823  0.71625  0.59762  1.0000
  H   H3990     1.0  0.85557  0.73633  0.59849  1.0000
  H   H3991     1.0  0.83019  0.70643  0.63032  1.0000
  H   H3992     1.0  0.85293  0.68616  0.62926  1.0000
  C   C3995     1.0  0.92408  0.70190  0.53252  1.0000
  C   C3996     1.0  0.92381  0.70758  0.51752  1.0000
  C   C3997     1.0  0.92737  0.69796  0.50787  1.0000
  C   C3998     1.0  0.93120  0.68263  0.51324  1.0000
  C   C3999     1.0  0.93158  0.67700  0.52818  1.0000
  C   C4000     1.0  0.92824  0.68660  0.53774  1.0000
  H   H3993     1.0  0.92098  0.71941  0.51333  1.0000
  H   H3994     1.0  0.92705  0.70238  0.49633  1.0000
  C   C4001     1.0  0.64929  0.63031  0.93751  1.0000
  H   H3995     1.0  0.92889  0.68210  0.54914  1.0000
  C   C4002     1.0  0.95452  0.71999  0.60431  1.0000
  C   C4003     1.0  0.95879  0.72499  0.61447  1.0000
  C   C4004     1.0  0.97285  0.72847  0.61119  1.0000
  S   S1357     1.0  0.62557  0.75530  0.96722  1.0000
  C   C4005     1.0  0.96451  0.71826  0.59088  1.0000
  H   H3996     1.0  0.95121  0.72615  0.62497  1.0000
  C   C4006     1.0  0.89357  0.73323  0.61954  1.0000
  H   H3997     1.0  0.89762  0.73967  0.53217  1.0000
  H   H3998     1.0  0.93445  0.66516  0.53237  1.0000
  H   H3999     1.0  0.66760  0.73120  0.93889  1.0000
  C   C4007     1.0  0.66501  0.66076  0.93983  1.0000
  C   C4008     1.0  0.85099  0.78220  0.54098  1.0000
  H   H4000     1.0  0.97610  0.73194  0.61929  1.0000
  H   H4001     1.0  0.96132  0.71441  0.58296  1.0000
  H   H4002     1.0  0.59022  0.63236  0.92878  1.0000
  C   C4009     1.0  0.97855  0.72192  0.58752  1.0000
  H   H4003     1.0  0.66681  0.66607  0.92784  1.0000
  H   H4004     1.0  0.87824  0.71843  0.49186  1.0000
  H   H4005     1.0  0.67042  0.59459  0.94287  1.0000
  H   H4006     1.0  0.64901  0.70250  0.96993  1.0000
  H   H4007     1.0  0.96879  0.78123  0.60043  1.0000
  H   H4008     1.0  0.98376  0.68629  0.60991  1.0000
  H   H4009     1.0  0.96779  0.63107  0.53421  1.0000
  C   C4010     1.0  0.93889  0.61054  0.59160  1.0000
  C   C4011     1.0  0.92860  0.62418  0.58968  1.0000
  C   C4012     1.0  0.93273  0.63732  0.58897  1.0000
  C   C4013     1.0  0.94716  0.63681  0.59019  1.0000
  C   C4014     1.0  0.95724  0.62314  0.59253  1.0000
  C   C4015     1.0  0.95311  0.61009  0.59326  1.0000
  H   H4010     1.0  0.91753  0.62460  0.58851  1.0000
  H   H4011     1.0  0.92480  0.64780  0.58731  1.0000
  H   H4012     1.0  0.96835  0.62258  0.59373  1.0000
  H   H4013     1.0  0.96098  0.59963  0.59512  1.0000
  C   C4016     1.0  0.52210  0.74647  0.81267  1.0000
  H   H4014     1.0  0.66787  0.64016  0.92523  1.0000
  C   C4017     1.0  0.50727  0.62266  0.91299  1.0000
  H   H4015     1.0  0.96029  0.77609  0.58873  1.0000
  C   C4018     1.0  0.98648  0.59405  0.61047  1.0000
  H   H4016     1.0  0.95607  0.68215  0.64817  1.0000
  C   C4019     1.0  0.56480  0.69078  0.91894  1.0000
  C   C4020     1.0  0.55023  0.68872  0.92174  1.0000
  C   C4021     1.0  0.54144  0.69555  0.91118  1.0000
  C   C4022     1.0  0.54722  0.70439  0.89776  1.0000
  C   C4023     1.0  0.56178  0.70645  0.89497  1.0000
  C   C4024     1.0  0.57050  0.69979  0.90560  1.0000
  H   H4017     1.0  0.54577  0.68177  0.93206  1.0000
  H   H4018     1.0  0.53018  0.69403  0.91351  1.0000
  H   H4019     1.0  0.56639  0.71312  0.88452  1.0000
  H   H4020     1.0  0.58166  0.70153  0.90337  1.0000
  C   C4025     1.0  0.62964  0.70909  0.96046  1.0000
  H   H4021     1.0  0.61785  0.76469  0.84754  1.0000
  C   C4026     1.0  0.98270  0.72719  0.59761  1.0000
  H   H4022     1.0  0.51350  0.75531  0.81752  1.0000
  H   H4023     1.0  0.54110  0.64196  0.92040  1.0000
  H   H4024     1.0  0.58374  0.74456  0.89676  1.0000
  S   S1358     1.0  0.73965  0.78253  0.57601  1.0000
  H   H4025     1.0  0.66463  0.76537  0.80615  1.0000
  C   C4027     1.0  0.52859  0.59328  0.88595  1.0000
  H   H4026     1.0  0.59659  0.64909  0.91937  1.0000
  C   C4028     1.0  0.64444  0.64318  0.90177  1.0000
  C   C4029     1.0  0.65426  0.63428  0.89234  1.0000
  C   C4030     1.0  0.65085  0.62137  0.89148  1.0000
  C   C4031     1.0  0.63783  0.61701  0.90039  1.0000
  C   C4032     1.0  0.62803  0.62582  0.91000  1.0000
  C   C4033     1.0  0.63124  0.63902  0.91055  1.0000
  H   H4027     1.0  0.66447  0.63743  0.88554  1.0000
  H   H4028     1.0  0.65842  0.61467  0.88399  1.0000
  H   H4029     1.0  0.61789  0.62263  0.91676  1.0000
  H   H4030     1.0  0.62371  0.64582  0.91795  1.0000
  C   C4034     1.0  0.52900  0.60800  0.88434  1.0000
  H   H4031     1.0  0.53355  0.75024  0.83302  1.0000
  H   H4032     1.0  0.95554  0.66619  0.61106  1.0000
  H   H4033     1.0  0.53326  0.69790  0.83809  1.0000
  C   C4035     1.0  0.57649  0.75628  0.87646  1.0000
  H   H4034     1.0  0.95500  0.62773  0.63328  1.0000
  C   C4036     1.0  0.75945  0.77376  0.52158  1.0000
  H   H4035     1.0  0.73177  0.76571  0.50113  1.0000
  H   H4036     1.0  0.97960  0.64176  0.56874  1.0000
  H   H4037     1.0  0.54132  0.66283  0.89841  1.0000
  C   C4037     1.0  0.49624  0.64109  0.89393  1.0000
  H   H4038     1.0  0.67399  0.72439  0.96789  1.0000
  H   H4039     1.0  0.77159  0.77125  0.51863  1.0000
  C   C4038     1.0  0.64007  0.71158  0.96668  1.0000
  H   H4040     1.0  0.95912  0.69664  0.68282  1.0000
  C   C4039     1.0  0.63430  0.64025  0.95859  1.0000
  C   C4040     1.0  0.88109  0.75712  0.50350  1.0000
  S   S1359     1.0  0.60263  0.75228  0.83365  1.0000
  H   H4041     1.0  0.73029  0.78252  0.54957  1.0000
  H   H4042     1.0  0.67600  0.65494  0.94269  1.0000
  S   S1360     1.0  0.93439  0.59415  0.59123  1.0000
  C   C4041     1.0  0.60849  0.74593  0.85041  1.0000
  C   C4042     1.0  0.61538  0.75449  0.85482  1.0000
  C   C4043     1.0  0.61889  0.74994  0.86880  1.0000
  C   C4044     1.0  0.61572  0.73675  0.87832  1.0000
  C   C4045     1.0  0.60907  0.72805  0.87381  1.0000
  C   C4046     1.0  0.60542  0.73267  0.85987  1.0000
  C   C4047     1.0  0.75129  0.77374  0.51159  1.0000
  H   H4043     1.0  0.62405  0.75669  0.87224  1.0000
  H   H4044     1.0  0.60645  0.71795  0.88114  1.0000
  H   H4045     1.0  0.60006  0.72605  0.85649  1.0000
  C   C4048     1.0  0.95646  0.65893  0.65219  1.0000
  H   H4046     1.0  0.54512  0.78296  0.74463  1.0000
  H   H4047     1.0  0.60774  0.74395  0.95545  1.0000
  H   H4048     1.0  0.95504  0.68698  0.62169  1.0000
  C   C4049     1.0  0.55063  0.64716  0.91615  1.0000
  C   C4050     1.0  0.88488  0.77489  0.51460  1.0000
  H   H4049     1.0  0.71557  0.77807  0.50909  1.0000
  H   H4050     1.0  0.65796  0.70310  0.93722  1.0000
  H   H4051     1.0  0.65207  0.75647  0.93923  1.0000
  C   C4051     1.0  0.65849  0.64022  0.93468  1.0000
  C   C4052     1.0  0.56294  0.66564  0.89847  1.0000
  H   H4052     1.0  0.51669  0.74219  0.80642  1.0000
  S   S1361     1.0  0.85315  0.74302  0.48998  1.0000
  C   C4053     1.0  0.95570  0.66413  0.62266  1.0000
  S   S1362     1.0  0.50916  0.77695  0.78712  1.0000
  C   C4054     1.0  0.56263  0.60373  0.89910  1.0000
  S   S1363     1.0  0.98501  0.61744  0.63969  1.0000
  C   C4055     1.0  0.50196  0.77969  0.62040  1.0000
  C   C4056     1.0  0.97202  0.71348  0.67420  1.0000
  C   C4057     1.0  0.55117  0.58556  0.89533  1.0000
  H   H4053     1.0  0.56297  0.67500  0.88908  1.0000
  C   C4058     1.0  0.61682  0.73494  0.95857  1.0000
  C   C4059     1.0  0.64362  0.65018  0.95531  1.0000
  H   H4054     1.0  0.57030  0.76110  0.84515  1.0000
  H   H4055     1.0  0.50190  0.60135  0.91829  1.0000
  H   H4056     1.0  0.63925  0.72359  0.91599  1.0000
  C   C4060     1.0  0.56784  0.76811  0.85329  1.0000
  S   S1364     1.0  0.93555  0.67017  0.50165  1.0000
  H   H4057     1.0  0.53236  0.78283  0.70102  1.0000
  S   S1365     1.0  0.98808  0.73505  0.66320  1.0000
  C   C4061     1.0  0.66331  0.71077  0.92755  1.0000
  S   S1366     1.0  0.52241  0.68422  0.87469  1.0000
  C   C4062     1.0  0.61612  0.78278  0.76126  1.0000
  N   N336      1.0  0.65454  0.72598  0.92714  1.0000
  H   H4058     1.0  0.88347  0.70051  0.63688  1.0000
  H   H4059     1.0  0.56161  0.73308  0.90728  1.0000
  H   H4060     1.0  0.93042  0.60769  0.52664  1.0000
  C   C4063     1.0  0.98207  0.60091  0.62249  1.0000
  C   C4064     1.0  0.65815  0.73507  0.93360  1.0000
  C   C4065     1.0  0.50011  0.61241  0.91162  1.0000
  C   C4066     1.0  0.53368  0.70932  0.83689  1.0000
  H   H4061     1.0  0.85515  0.76399  0.53057  1.0000
  S   S1367     1.0  0.62053  0.58850  0.97184  1.0000
  S   S1368     1.0  0.56678  0.59074  0.93743  1.0000
  H   H4062     1.0  0.87849  0.75457  0.61855  1.0000
  H   H4063     1.0  0.54238  0.73824  0.89255  1.0000
  H   H4064     1.0  0.58388  0.66647  0.90202  1.0000
  C   C4067     1.0  0.85270  0.74707  0.63461  1.0000
  C   C4068     1.0  0.63686  0.75428  0.92764  1.0000
  C   C4069     1.0  0.58662  0.64461  0.92601  1.0000
  C   C4070     1.0  0.68019  0.71320  0.97069  1.0000
  C   C4071     1.0  0.56269  0.64245  0.92317  1.0000
  N   N337      1.0  0.65540  0.65021  0.94334  1.0000
  H   H4065     1.0  0.84466  0.74512  0.62934  1.0000
  N   N338      1.0  0.73598  0.77687  0.51516  1.0000
  C   C4072     1.0  0.86867  0.72218  0.63613  1.0000
  H   H4066     1.0  0.90329  0.73759  0.61296  1.0000
  C   C4073     1.0  0.64946  0.74939  0.93379  1.0000
  H   H4067     1.0  0.53728  0.59420  0.93351  1.0000
  C   C4074     1.0  0.98505  0.71743  0.66483  1.0000
  C   C4075     1.0  0.57475  0.66073  0.90583  1.0000
  H   H4068     1.0  0.66501  0.77410  0.77940  1.0000
  H   H4069     1.0  0.87684  0.75483  0.49525  1.0000
  S   S1369     1.0  0.81877  0.77467  0.49841  1.0000
  H   H4070     1.0  0.54557  0.75450  0.86749  1.0000
  N   N339      1.0  0.57453  0.64925  0.91798  1.0000
  H   H4071     1.0  0.99368  0.58476  0.65230  1.0000
  C   C4076     1.0  0.63326  0.74494  0.92110  1.0000
  H   H4072     1.0  0.50127  0.75900  0.64556  1.0000
  H   H4073     1.0  0.67497  0.70966  0.92842  1.0000
  H   H4074     1.0  0.94763  0.78145  0.62750  1.0000
  H   H4075     1.0  0.59967  0.77590  0.75487  1.0000
  H   H4076     1.0  0.54355  0.70472  0.85569  1.0000
  C   C4077     1.0  0.98154  0.63463  0.56118  1.0000
  C   C4078     1.0  0.87986  0.77184  0.50375  1.0000
  H   H4077     1.0  0.62341  0.74849  0.91639  1.0000
  H   H4078     1.0  0.52962  0.78002  0.63544  1.0000
  H   H4079     1.0  0.58620  0.76115  0.87195  1.0000
  N   N340      1.0  0.51198  0.77507  0.62939  1.0000
  C   C4079     1.0  0.95558  0.67588  0.62856  1.0000
  H   H4080     1.0  0.64119  0.65805  0.96221  1.0000
  C   C4080     1.0  0.52812  0.72038  0.82563  1.0000
  C   C4081     1.0  0.95526  0.63836  0.62501  1.0000
  C   C4082     1.0  0.53931  0.71315  0.84682  1.0000
  H   H4081     1.0  0.98877  0.60896  0.71717  1.0000
  S   S1370     1.0  0.82344  0.76949  0.58085  1.0000
  N   N341      1.0  0.97282  0.63797  0.55108  1.0000
  H   H4082     1.0  0.84231  0.77891  0.51037  1.0000
  C   C4083     1.0  0.63782  0.59333  0.96859  1.0000
  H   H4083     1.0  0.96532  0.63638  0.61601  1.0000
  H   H4084     1.0  0.51846  0.75165  0.63355  1.0000
  Fe  Fe681     1.0  0.68833  0.65173  0.97261  1.0000
  C   C4084     1.0  0.96054  0.65115  0.55056  1.0000
  C   C4085     1.0  0.56272  0.74052  0.89644  1.0000
  S   S1371     1.0  0.81541  0.77959  0.61228  1.0000
  C   C4086     1.0  0.93093  0.59619  0.52716  1.0000
  C   C4087     1.0  0.73605  0.59269  0.95731  1.0000
  H   H4085     1.0  0.56846  0.61154  0.89007  1.0000
  H   H4086     1.0  0.95955  0.65653  0.53897  1.0000
  H   H4087     1.0  0.94985  0.64800  0.55703  1.0000
  H   H4088     1.0  0.96235  0.65955  0.55536  1.0000
  C   C4088     1.0  0.88824  0.73046  0.51323  1.0000
  C   C4089     1.0  0.64226  0.73076  0.92097  1.0000
  C   C4090     1.0  0.63705  0.63043  0.94946  1.0000
  C   C4091     1.0  0.87954  0.74273  0.62276  1.0000
  C   C4092     1.0  0.97497  0.62864  0.54193  1.0000
  H   H4089     1.0  0.95700  0.65672  0.66371  1.0000
  H   H4090     1.0  0.55734  0.60884  0.90883  1.0000
  H   H4091     1.0  0.66403  0.70725  0.91730  1.0000
  Fe  Fe682     1.0  0.60798  0.77433  0.82159  1.0000
  S   S1372     1.0  0.70366  0.63196  0.96468  1.0000
  Fe  Fe683     1.0  0.51747  0.70240  0.88668  1.0000
  H   H4092     1.0  0.85891  0.71771  0.64228  1.0000
  H   H4093     1.0  0.95683  0.63642  0.65285  1.0000
  C   C4093     1.0  0.61809  0.72085  0.95626  1.0000
  S   S1373     1.0  0.50422  0.69053  0.90746  1.0000
  H   H4094     1.0  0.89175  0.72238  0.52307  1.0000
  C   C4094     1.0  0.55382  0.75257  0.87399  1.0000
  S   S1374     1.0  0.68543  0.67490  0.95883  1.0000
  C   C4095     1.0  0.57510  0.74697  0.89057  1.0000
  H   H4095     1.0  0.52031  0.61688  0.88015  1.0000
  C   C4096     1.0  0.65413  0.60398  0.97606  1.0000
  C   C4097     1.0  0.55076  0.65886  0.90375  1.0000
  C   C4098     1.0  0.64863  0.59160  0.95566  1.0000
  C   C4099     1.0  0.89503  0.71799  0.62482  1.0000
  H   H4096     1.0  0.98615  0.72079  0.57703  1.0000
  S   S1375     1.0  0.51499  0.64936  0.90569  1.0000
  Fe  Fe684     1.0  0.82836  0.75959  0.60332  1.0000
  H   H4097     1.0  0.94509  0.64143  0.62039  1.0000
  H   H4098     1.0  0.65163  0.62261  0.93042  1.0000
  C   C4100     1.0  0.96931  0.69954  0.67565  1.0000
  N   N342      1.0  0.56597  0.75891  0.86834  1.0000
  H   H4099     1.0  0.62969  0.76511  0.92833  1.0000
  C   C4101     1.0  0.62722  0.73741  0.96486  1.0000
  H   H4100     1.0  0.90583  0.71052  0.62234  1.0000
  H   H4101     1.0  0.93114  0.60088  0.55263  1.0000
  H   H4102     1.0  0.51883  0.75953  0.64832  1.0000
  S   S1376     1.0  0.60411  0.59959  0.93615  1.0000
  C   C4102     1.0  0.66220  0.59582  0.95301  1.0000
  C   C4103     1.0  0.85015  0.77560  0.53016  1.0000
  N   N343      1.0  0.85451  0.72131  0.57366  1.0000
  C   C4104     1.0  0.84949  0.70894  0.58211  1.0000
  C   C4105     1.0  0.86922  0.72026  0.56653  1.0000
  C   C4106     1.0  0.85942  0.69512  0.58395  1.0000
  C   C4107     1.0  0.87943  0.70658  0.56807  1.0000
  C   C4108     1.0  0.87448  0.69397  0.57693  1.0000
  C   C4109     1.0  0.84399  0.73572  0.57191  1.0000
  H   H4103     1.0  0.83787  0.70981  0.58793  1.0000
  H   H4104     1.0  0.87319  0.73008  0.55985  1.0000
  H   H4105     1.0  0.85557  0.68543  0.59119  1.0000
  H   H4106     1.0  0.89115  0.70579  0.56265  1.0000
  H   H4107     1.0  0.88233  0.68336  0.57863  1.0000
  H   H4108     1.0  0.83455  0.73622  0.58175  1.0000
  H   H4109     1.0  0.84958  0.74477  0.57083  1.0000
  H   H4110     1.0  0.83947  0.73789  0.56191  1.0000
  H   H4111     1.0  0.65996  0.66975  0.94602  1.0000
  C   C4110     1.0  0.66741  0.77594  0.80024  1.0000
  C   C4111     1.0  0.55194  0.74340  0.88816  1.0000
  C   C4112     1.0  0.53930  0.72794  0.84541  1.0000
  H   H4112     1.0  0.55757  0.77687  0.85191  1.0000
  H   H4113     1.0  0.53124  0.75153  0.80481  1.0000
  S   S1377     1.0  0.85047  0.76575  0.59796  1.0000
  H   H4114     1.0  0.77010  0.76778  0.57848  1.0000
  H   H4115     1.0  0.96391  0.72127  0.68024  1.0000
  H   H4116     1.0  0.97168  0.59970  0.63039  1.0000
  C   C4113     1.0  0.98635  0.61576  0.54251  1.0000
  H   H4117     1.0  0.89489  0.76550  0.53357  1.0000
  H   H4118     1.0  0.79051  0.77680  0.58214  1.0000
  H   H4119     1.0  0.58272  0.64880  0.93637  1.0000
  C   C4114     1.0  0.95635  0.64751  0.64597  1.0000
  N   N344      1.0  0.55119  0.60003  0.89416  1.0000
  H   H4120     1.0  0.75792  0.77681  0.54337  1.0000
  H   H4121     1.0  0.98787  0.60820  0.53546  1.0000
  C   C4115     1.0  0.54028  0.61120  0.88877  1.0000
  H   H4122     1.0  0.92565  0.60099  0.50565  1.0000
  C   C4116     1.0  0.75184  0.77693  0.53534  1.0000
  H   H4123     1.0  0.95937  0.76596  0.60744  1.0000
  C   C4117     1.0  0.63892  0.72572  0.96883  1.0000
  C   C4118     1.0  0.88093  0.72619  0.48151  1.0000
  H   H4124     1.0  0.54009  0.62268  0.88810  1.0000
  C   C4119     1.0  0.95600  0.67321  0.64343  1.0000
  C   C4120     1.0  0.99291  0.62179  0.56215  1.0000
  H   H4125     1.0  0.62980  0.62281  0.95171  1.0000
  Fe  Fe685     1.0  0.62145  0.58811  0.91965  1.0000
  C   C4121     1.0  0.99099  0.60930  0.62428  1.0000
  H   H4126     1.0  0.51440  0.61941  0.92085  1.0000
  H   H4127     1.0  0.71353  0.60414  0.95538  1.0000
  C   C4122     1.0  0.76801  0.77890  0.58007  1.0000
  H   H4128     1.0  0.87454  0.78083  0.49592  1.0000
  C   C4123     1.0  0.89127  0.76324  0.52489  1.0000
  C   C4124     1.0  0.93729  0.58948  0.55150  1.0000
  H   H4129     1.0  0.96717  0.58397  0.50804  1.0000
  S   S1378     1.0  0.99439  0.63142  0.66708  1.0000
  C   C4125     1.0  0.72842  0.78026  0.52852  1.0000
  S   S1379     1.0  0.50063  0.69803  0.84344  1.0000
  Fe  Fe686     1.0  0.66799  0.77631  0.96680  1.0000
  S   S1380     1.0  0.86029  0.77177  0.55507  1.0000
  C   C4126     1.0  0.72783  0.77652  0.50449  1.0000
  C   C4127     1.0  0.92824  0.59250  0.51526  1.0000
  H   H4130     1.0  0.67062  0.78335  0.62998  1.0000
  H   H4131     1.0  0.66914  0.78160  0.81970  1.0000
  Fe  Fe687     1.0  0.99416  0.65559  0.65908  1.0000
  C   C4128     1.0  0.72066  0.59394  0.95999  1.0000
  H   H4132     1.0  0.74091  0.60209  0.95096  1.0000
  H   H4133     1.0  0.71628  0.78292  0.53135  1.0000
  C   C4129     1.0  0.95905  0.77722  0.60018  1.0000
  Fe  Fe688     1.0  0.80717  0.78267  0.47949  1.0000
  H   H4134     1.0  0.51950  0.59069  0.88314  1.0000
  H   H4135     1.0  0.57124  0.59377  0.90256  1.0000
  Fe  Fe689     1.0  0.83866  0.76523  0.48223  1.0000
  H   H4136     1.0  0.55555  0.77433  0.82478  1.0000
  S   S1381     1.0  0.63126  0.77782  0.81216  1.0000
  H   H4137     1.0  0.53148  0.78306  0.72633  1.0000
  C   C4130     1.0  0.66776  0.78088  0.78508  1.0000
  Fe  Fe690     1.0  0.68379  0.62156  0.97342  1.0000
  S   S1382     1.0  0.50076  0.78225  0.66790  1.0000
  H   H4138     1.0  0.57734  0.77365  0.85051  1.0000
  H   H4139     1.0  0.64700  0.72756  0.97365  1.0000
  H   H4140     1.0  0.61202  0.77882  0.77292  1.0000
  C   C4131     1.0  0.60920  0.78103  0.75101  1.0000
  H   H4141     1.0  0.94946  0.58879  0.54968  1.0000
  S   S1383     1.0  0.52790  0.77974  0.81630  1.0000
  C   C4132     1.0  0.99410  0.68945  0.60885  1.0000
  Fe  Fe691     1.0  0.64389  0.75877  0.97554  1.0000
  H   H4142     1.0  0.68564  0.84417  0.45528  1.0000
  H   H4143     1.0  0.66524  0.94707  0.13956  1.0000
  Fe  Fe692     1.0  0.65773  0.88487  0.17923  1.0000
  C   C4133     1.0  0.69007  0.81145  0.13916  1.0000
  S   S1384     1.0  0.64910  0.90962  0.17492  1.0000
  S   S1385     1.0  0.66385  0.87445  0.20112  1.0000
  Fe  Fe693     1.0  0.72924  0.87044  0.28399  1.0000
  S   S1386     1.0  0.71096  0.88476  0.29722  1.0000
  S   S1387     1.0  0.75269  0.86891  0.28552  1.0000
  Fe  Fe694     1.0  0.70749  0.86130  0.27227  1.0000
  S   S1388     1.0  0.68743  0.87519  0.28441  1.0000
  S   S1389     1.0  0.70274  0.84588  0.26135  1.0000
  Fe  Fe695     1.0  0.70128  0.89226  0.27702  1.0000
  S   S1390     1.0  0.69286  0.91650  0.26836  1.0000
  Fe  Fe696     1.0  0.69912  0.86626  0.30330  1.0000
  S   S1391     1.0  0.72055  0.87918  0.26309  1.0000
  Fe  Fe697     1.0  0.77419  0.85845  0.35849  1.0000
  S   S1392     1.0  0.76450  0.88087  0.36365  1.0000
  S   S1393     1.0  0.75902  0.84839  0.35213  1.0000
  Fe  Fe698     1.0  0.80284  0.85474  0.36827  1.0000
  S   S1394     1.0  0.79575  0.87690  0.37392  1.0000
  S   S1395     1.0  0.82365  0.84035  0.37545  1.0000
  Fe  Fe699     1.0  0.77354  0.87111  0.38413  1.0000
  S   S1396     1.0  0.76095  0.87686  0.40582  1.0000
  Fe  Fe700     1.0  0.78744  0.88479  0.35292  1.0000
  S   S1397     1.0  0.78914  0.90734  0.33887  1.0000
  S   S1398     1.0  0.78112  0.84820  0.38014  1.0000
  S   S1399     1.0  0.79673  0.86303  0.34597  1.0000
  H   H4144     1.0  0.68068  0.79654  0.18848  1.0000
  H   H4145     1.0  0.63220  0.82247  0.29223  1.0000
  C   C4134     1.0  0.73067  0.80950  0.37320  1.0000
  C   C4135     1.0  0.49955  0.80158  0.20919  1.0000
  S   S1400     1.0  0.84231  0.80365  0.43436  1.0000
  C   C4136     1.0  0.57347  0.80103  0.35694  1.0000
  H   H4146     1.0  0.73774  0.91482  0.39272  1.0000
  H   H4147     1.0  0.52452  0.82221  0.31608  1.0000
  C   C4137     1.0  0.66048  0.83104  0.09538  1.0000
  C   C4138     1.0  0.75473  0.79742  0.45543  1.0000
  H   H4148     1.0  0.71945  0.79135  0.38253  1.0000
  Fe  Fe701     1.0  0.73243  0.80919  0.43097  1.0000
  S   S1401     1.0  0.71964  0.82474  0.44575  1.0000
  C   C4139     1.0  0.66952  0.79915  0.19525  1.0000
  Fe  Fe702     1.0  0.70427  0.80410  0.42602  1.0000
  S   S1402     1.0  0.68892  0.81902  0.44084  1.0000
  Fe  Fe703     1.0  0.70488  0.83401  0.42957  1.0000
  S   S1403     1.0  0.69867  0.85867  0.42361  1.0000
  Fe  Fe704     1.0  0.70505  0.80836  0.45602  1.0000
  S   S1404     1.0  0.71902  0.82011  0.41361  1.0000
  H   H4149     1.0  0.67225  0.83517  0.10940  1.0000
  Fe  Fe705     1.0  0.88450  0.87505  0.37934  1.0000
  S   S1405     1.0  0.86990  0.88651  0.39711  1.0000
  S   S1406     1.0  0.87248  0.87806  0.36138  1.0000
  Fe  Fe706     1.0  0.91157  0.86657  0.39303  1.0000
  S   S1407     1.0  0.89885  0.87789  0.41181  1.0000
  Fe  Fe707     1.0  0.88065  0.86718  0.41246  1.0000
  S   S1408     1.0  0.86704  0.85769  0.43428  1.0000
  Fe  Fe708     1.0  0.88935  0.89634  0.39464  1.0000
  S   S1409     1.0  0.88187  0.92084  0.39424  1.0000
  S   S1410     1.0  0.89383  0.85453  0.39498  1.0000
  S   S1411     1.0  0.90345  0.88617  0.37563  1.0000
  C   C4140     1.0  0.62470  0.95523  0.17596  1.0000
  S   S1412     1.0  0.49980  0.81192  0.31186  1.0000
  S   S1413     1.0  0.66181  0.78520  0.10380  1.0000
  H   H4150     1.0  0.91982  0.81037  0.40371  1.0000
  Fe  Fe709     1.0  0.83407  0.79244  0.45783  1.0000
  C   C4141     1.0  0.56386  0.79719  0.31687  1.0000
  H   H4151     1.0  0.74617  0.96011  0.33863  1.0000
  H   H4152     1.0  0.97781  0.81250  0.39263  1.0000
  Fe  Fe710     1.0  0.70950  0.96542  0.30701  1.0000
  S   S1414     1.0  0.69916  0.94564  0.31642  1.0000
  C   C4142     1.0  0.96705  0.81768  0.38982  1.0000
  S   S1415     1.0  0.72769  0.96684  0.28648  1.0000
  C   C4143     1.0  0.65927  0.82208  0.14240  1.0000
  S   S1416     1.0  0.62208  0.79307  0.34213  1.0000
  Fe  Fe711     1.0  0.68567  0.97163  0.17195  1.0000
  H   H4153     1.0  0.64063  0.83767  0.18629  1.0000
  S   S1417     1.0  0.69258  0.95273  0.16028  1.0000
  H   H4154     1.0  0.49935  0.95896  0.28008  1.0000
  N   N345      1.0  0.68736  0.81239  0.08547  1.0000
  H   H4155     1.0  0.91639  0.84787  0.42683  1.0000
  H   H4156     1.0  0.51197  0.96009  0.24404  1.0000
  H   H4157     1.0  0.64990  0.83804  0.09955  1.0000
  S   S1418     1.0  0.53183  0.98023  0.23009  1.0000
  S   S1419     1.0  0.69946  0.96742  0.21860  1.0000
  H   H4158     1.0  0.89120  0.94194  0.36196  1.0000
  S   S1420     1.0  0.67309  0.96813  0.19543  1.0000
  H   H4159     1.0  0.70207  0.80750  0.13774  1.0000
  C   C4144     1.0  0.65928  0.81199  0.19040  1.0000
  C   C4145     1.0  0.68278  0.82317  0.14643  1.0000
  H   H4160     1.0  0.66969  0.80861  0.42395  1.0000
  C   C4146     1.0  0.91527  0.82484  0.41865  1.0000
  H   H4161     1.0  0.70632  0.79550  0.09007  1.0000
  H   H4162     1.0  0.51129  0.95572  0.32072  1.0000
  H   H4163     1.0  0.61666  0.82931  0.24114  1.0000
  C   C4147     1.0  0.78564  0.79005  0.45360  1.0000
  C   C4148     1.0  0.62623  0.98033  0.22580  1.0000
  H   H4164     1.0  0.62781  0.82657  0.18757  1.0000
  H   H4165     1.0  0.53854  0.79631  0.35997  1.0000
  C   C4149     1.0  0.52543  0.96119  0.20082  1.0000
  H   H4166     1.0  0.76292  0.95905  0.34448  1.0000
  H   H4167     1.0  0.64855  0.95257  0.13212  1.0000
  S   S1421     1.0  0.79940  0.97685  0.38831  1.0000
  S   S1422     1.0  0.70262  0.98125  0.17612  1.0000
  H   H4168     1.0  0.65842  0.96961  0.14884  1.0000
  H   H4169     1.0  0.82017  0.81571  0.41486  1.0000
  C   C4150     1.0  0.76456  0.79811  0.44157  1.0000
  H   H4170     1.0  0.62727  0.83394  0.20313  1.0000
  H   H4171     1.0  0.72117  0.81730  0.47488  1.0000
  C   C4151     1.0  0.70761  0.97017  0.24236  1.0000
  H   H4172     1.0  0.74286  0.93847  0.39364  1.0000
  H   H4173     1.0  0.80177  0.82160  0.39912  1.0000
  C   C4152     1.0  0.64726  0.80312  0.24940  1.0000
  C   C4153     1.0  0.73504  0.97978  0.21219  1.0000
  H   H4174     1.0  0.71178  0.95831  0.24414  1.0000
  C   C4154     1.0  0.52389  0.97654  0.21749  1.0000
  C   C4155     1.0  0.66573  0.95802  0.26889  1.0000
  S   S1423     1.0  0.81051  0.97045  0.35448  1.0000
  H   H4175     1.0  0.68976  0.84405  0.30215  1.0000
  H   H4176     1.0  0.63436  0.80625  0.00377  1.0000
  C   C4156     1.0  0.63469  0.82904  0.19375  1.0000
  S   S1424     1.0  0.93557  0.85540  0.39463  1.0000
  H   H4177     1.0  0.67217  0.84686  0.27808  1.0000
  C   C4157     1.0  0.79860  0.89122  0.40267  1.0000
  C   C4158     1.0  0.89370  0.93074  0.39644  1.0000
  C   C4159     1.0  0.90914  0.92521  0.39475  1.0000
  H   H4178     1.0  0.91408  0.91424  0.39261  1.0000
  S   S1425     1.0  0.67787  0.87223  0.16587  1.0000
  C   C4160     1.0  0.71191  0.86418  0.21746  1.0000
  H   H4179     1.0  0.53164  0.95229  0.19526  1.0000
  H   H4180     1.0  0.71878  0.87155  0.20989  1.0000
  H   H4181     1.0  0.75466  0.82533  0.39316  1.0000
  C   C4161     1.0  0.84831  0.81928  0.43409  1.0000
  C   C4162     1.0  0.84634  0.82366  0.44726  1.0000
  C   C4163     1.0  0.85168  0.83581  0.44712  1.0000
  C   C4164     1.0  0.85902  0.84363  0.43383  1.0000
  C   C4165     1.0  0.86069  0.83948  0.42059  1.0000
  C   C4166     1.0  0.85541  0.82724  0.42074  1.0000
  H   H4182     1.0  0.84089  0.81759  0.45763  1.0000
  H   H4183     1.0  0.85037  0.83898  0.45740  1.0000
  H   H4184     1.0  0.86625  0.84552  0.41028  1.0000
  H   H4185     1.0  0.85702  0.82381  0.41056  1.0000
  C   C4167     1.0  0.88025  0.97911  0.35289  1.0000
  S   S1426     1.0  0.81400  0.80438  0.47182  1.0000
  S   S1427     1.0  0.69913  0.79241  0.41135  1.0000
  C   C4168     1.0  0.87486  0.95327  0.44032  1.0000
  Fe  Fe712     1.0  0.81731  0.98184  0.36812  1.0000
  H   H4186     1.0  0.92602  0.93600  0.42886  1.0000
  C   C4169     1.0  0.53981  0.80187  0.31179  1.0000
  S   S1428     1.0  0.62298  0.81922  0.35712  1.0000
  H   H4187     1.0  0.62362  0.82473  0.98347  1.0000
  H   H4188     1.0  0.87307  0.95152  0.37033  1.0000
  C   C4170     1.0  0.78718  0.91858  0.35099  1.0000
  C   C4171     1.0  0.78111  0.91400  0.36602  1.0000
  C   C4172     1.0  0.78046  0.92230  0.37600  1.0000
  C   C4173     1.0  0.78538  0.93552  0.37094  1.0000
  C   C4174     1.0  0.79082  0.94054  0.35581  1.0000
  C   C4175     1.0  0.79188  0.93195  0.34583  1.0000
  H   H4189     1.0  0.77659  0.90419  0.36998  1.0000
  H   H4190     1.0  0.77579  0.91865  0.38763  1.0000
  H   H4191     1.0  0.71522  0.97212  0.26056  1.0000
  H   H4192     1.0  0.79654  0.93554  0.33419  1.0000
  C   C4176     1.0  0.85905  0.86739  0.36552  1.0000
  C   C4177     1.0  0.84714  0.87257  0.35828  1.0000
  C   C4178     1.0  0.83623  0.86433  0.36135  1.0000
  C   C4179     1.0  0.83744  0.85062  0.37137  1.0000
  C   C4180     1.0  0.84951  0.84528  0.37842  1.0000
  C   C4181     1.0  0.86015  0.85380  0.37575  1.0000
  H   H4193     1.0  0.84642  0.88291  0.35015  1.0000
  H   H4194     1.0  0.82712  0.86839  0.35563  1.0000
  H   H4195     1.0  0.85059  0.83458  0.38600  1.0000
  H   H4196     1.0  0.86945  0.84963  0.38121  1.0000
  C   C4182     1.0  0.74349  0.87218  0.41042  1.0000
  C   C4183     1.0  0.73146  0.87925  0.42002  1.0000
  C   C4184     1.0  0.71746  0.87556  0.42360  1.0000
  C   C4185     1.0  0.71564  0.86445  0.41797  1.0000
  C   C4186     1.0  0.72771  0.85734  0.40847  1.0000
  C   C4187     1.0  0.74154  0.86136  0.40452  1.0000
  H   H4197     1.0  0.73292  0.88768  0.42455  1.0000
  H   H4198     1.0  0.70815  0.88109  0.43094  1.0000
  H   H4199     1.0  0.72634  0.84889  0.40394  1.0000
  H   H4200     1.0  0.75072  0.85594  0.39702  1.0000
  C   C4188     1.0  0.75426  0.86383  0.30408  1.0000
  C   C4189     1.0  0.74286  0.85849  0.31521  1.0000
  C   C4190     1.0  0.74445  0.85376  0.32992  1.0000
  C   C4191     1.0  0.75728  0.85467  0.33363  1.0000
  C   C4192     1.0  0.76855  0.86036  0.32257  1.0000
  C   C4193     1.0  0.76710  0.86480  0.30777  1.0000
  H   H4201     1.0  0.73288  0.85774  0.31250  1.0000
  H   H4202     1.0  0.73567  0.84943  0.33844  1.0000
  H   H4203     1.0  0.77853  0.86100  0.32534  1.0000
  H   H4204     1.0  0.77595  0.86892  0.29919  1.0000
  C   C4194     1.0  0.69319  0.92550  0.28165  1.0000
  C   C4195     1.0  0.68881  0.91931  0.29669  1.0000
  C   C4196     1.0  0.69023  0.92584  0.30734  1.0000
  C   C4197     1.0  0.69611  0.93852  0.30296  1.0000
  C   C4198     1.0  0.69990  0.94508  0.28794  1.0000
  C   C4199     1.0  0.69845  0.93855  0.27729  1.0000
  H   H4205     1.0  0.68438  0.90941  0.30014  1.0000
  H   H4206     1.0  0.68704  0.92087  0.31897  1.0000
  H   H4207     1.0  0.70405  0.95511  0.28447  1.0000
  H   H4208     1.0  0.70168  0.94339  0.26568  1.0000
  S   S1429     1.0  0.71829  0.85113  0.29175  1.0000
  C   C4200     1.0  0.66267  0.91954  0.17290  1.0000
  C   C4201     1.0  0.65927  0.93068  0.18075  1.0000
  C   C4202     1.0  0.66866  0.94059  0.17731  1.0000
  C   C4203     1.0  0.68153  0.93943  0.16600  1.0000
  C   C4204     1.0  0.68538  0.92776  0.15871  1.0000
  C   C4205     1.0  0.67597  0.91780  0.16216  1.0000
  H   H4209     1.0  0.64903  0.93200  0.18913  1.0000
  H   H4210     1.0  0.66552  0.94950  0.18300  1.0000
  H   H4211     1.0  0.69540  0.92670  0.15003  1.0000
  H   H4212     1.0  0.67866  0.90923  0.15602  1.0000
  C   C4206     1.0  0.70276  0.85117  0.24242  1.0000
  C   C4207     1.0  0.68199  0.80494  0.13355  1.0000
  C   C4208     1.0  0.93914  0.83140  0.38251  1.0000
  Fe  Fe713     1.0  0.50312  0.79494  0.33248  1.0000
  N   N346      1.0  0.81844  0.86948  0.40494  1.0000
  S   S1430     1.0  0.58225  0.81339  0.35990  1.0000
  H   H4213     1.0  0.55124  0.81367  0.36382  1.0000
  H   H4214     1.0  0.81982  0.84977  0.42173  1.0000
  C   C4209     1.0  0.71106  0.86126  0.23274  1.0000
  H   H4215     1.0  0.50264  0.94239  0.37671  1.0000
  H   H4216     1.0  0.65272  0.82399  0.34492  1.0000
  C   C4210     1.0  0.68625  0.84607  0.46562  1.0000
  H   H4217     1.0  0.75494  0.83383  0.43031  1.0000
  H   H4218     1.0  0.78671  0.89615  0.40394  1.0000
  Fe  Fe714     1.0  0.68336  0.86088  0.18815  1.0000
  H   H4219     1.0  0.66017  0.80527  0.13111  1.0000
  H   H4220     1.0  0.86970  0.94644  0.45083  1.0000
  N   N347      1.0  0.66650  0.81132  0.97896  1.0000
  S   S1431     1.0  0.70505  0.86117  0.19286  1.0000
  N   N348      1.0  0.89016  0.95321  0.44060  1.0000
  H   H4221     1.0  0.68915  0.82821  0.15052  1.0000
  H   H4222     1.0  0.54278  0.95905  0.21200  1.0000
  C   C4211     1.0  0.89308  0.82459  0.43742  1.0000
  C   C4212     1.0  0.67524  0.81416  0.07970  1.0000
  C   C4213     1.0  0.78698  0.97742  0.32207  1.0000
  H   H4223     1.0  0.81144  0.81928  0.44063  1.0000
  H   H4224     1.0  0.87965  0.80972  0.43788  1.0000
  C   C4214     1.0  0.64167  0.81078  0.99366  1.0000
  H   H4225     1.0  0.64732  0.82627  0.14349  1.0000
  S   S1432     1.0  0.65376  0.81243  0.32005  1.0000
  H   H4226     1.0  0.66574  0.94766  0.26653  1.0000
  H   H4227     1.0  0.89158  0.96480  0.40161  1.0000
  H   H4228     1.0  0.67595  0.80812  0.07150  1.0000
  C   C4215     1.0  0.69485  0.84451  0.23687  1.0000
  C   C4216     1.0  0.64149  0.84521  0.26012  1.0000
  C   C4217     1.0  0.94531  0.83846  0.38942  1.0000
  H   H4229     1.0  0.64891  0.86277  0.24242  1.0000
  H   H4230     1.0  0.84072  0.87301  0.39802  1.0000
  C   C4218     1.0  0.80909  0.90010  0.39700  1.0000
  H   H4231     1.0  0.67005  0.80565  0.24091  1.0000
  C   C4219     1.0  0.64091  0.97246  0.16808  1.0000
  H   H4232     1.0  0.88543  0.82872  0.44679  1.0000
  H   H4233     1.0  0.69603  0.81857  0.10042  1.0000
  H   H4234     1.0  0.61548  0.95085  0.18372  1.0000
  H   H4235     1.0  0.66550  0.79162  0.38151  1.0000
  C   C4220     1.0  0.66375  0.82412  0.32215  1.0000
  C   C4221     1.0  0.90052  0.96415  0.36375  1.0000
  C   C4222     1.0  0.96091  0.81064  0.38288  1.0000
  H   H4236     1.0  0.64878  0.79123  0.30585  1.0000
  C   C4223     1.0  0.65320  0.94680  0.14208  1.0000
  H   H4237     1.0  0.89828  0.84967  0.43893  1.0000
  C   C4224     1.0  0.66080  0.82834  0.33558  1.0000
  C   C4225     1.0  0.95928  0.83155  0.39304  1.0000
  C   C4226     1.0  0.82433  0.89349  0.39534  1.0000
  S   S1433     1.0  0.71901  0.79190  0.44226  1.0000
  C   C4227     1.0  0.50311  0.98011  0.20597  1.0000
  C   C4228     1.0  0.94693  0.81756  0.37924  1.0000
  C   C4229     1.0  0.66651  0.81016  0.13540  1.0000
  C   C4230     1.0  0.65495  0.80813  0.41076  1.0000
  C   C4231     1.0  0.66355  0.84648  0.27295  1.0000
  Fe  Fe715     1.0  0.63207  0.80119  0.37505  1.0000
  C   C4232     1.0  0.68024  0.79207  0.39473  1.0000
  H   H4238     1.0  0.76928  0.80882  0.39215  1.0000
  H   H4239     1.0  0.49606  0.85375  0.17195  1.0000
  C   C4233     1.0  0.65048  0.85549  0.25300  1.0000
  C   C4234     1.0  0.69512  0.84798  0.22171  1.0000
  H   H4240     1.0  0.66556  0.84196  0.34713  1.0000
  H   H4241     1.0  0.66267  0.81917  0.17980  1.0000
  H   H4242     1.0  0.64162  0.81355  0.27688  1.0000
  H   H4243     1.0  0.71723  0.86639  0.23696  1.0000
  H   H4244     1.0  0.65273  0.93491  0.14480  1.0000
  H   H4245     1.0  0.53175  0.79853  0.30812  1.0000
  Fe  Fe716     1.0  0.60695  0.80516  0.35929  1.0000
  C   C4235     1.0  0.66816  0.83843  0.33690  1.0000
  S   S1434     1.0  0.68731  0.85732  0.32630  1.0000
  N   N349      1.0  0.66818  0.84308  0.38266  1.0000
  C   C4236     1.0  0.67909  0.84845  0.37151  1.0000
  C   C4237     1.0  0.66843  0.84155  0.39713  1.0000
  C   C4238     1.0  0.69052  0.85266  0.37473  1.0000
  C   C4239     1.0  0.67970  0.84563  0.40074  1.0000
  C   C4240     1.0  0.69077  0.85126  0.38946  1.0000
  C   C4241     1.0  0.65635  0.83874  0.37896  1.0000
  H   H4246     1.0  0.67897  0.84962  0.36002  1.0000
  H   H4247     1.0  0.65985  0.83722  0.40598  1.0000
  H   H4248     1.0  0.69903  0.85706  0.36583  1.0000
  H   H4249     1.0  0.67981  0.84453  0.41222  1.0000
  H   H4250     1.0  0.69946  0.85460  0.39219  1.0000
  H   H4251     1.0  0.64720  0.83637  0.38876  1.0000
  H   H4252     1.0  0.65117  0.84774  0.37062  1.0000
  H   H4253     1.0  0.66103  0.82854  0.37451  1.0000
  N   N350      1.0  0.69435  0.90873  0.20651  1.0000
  C   C4242     1.0  0.69309  0.90268  0.22133  1.0000
  C   C4243     1.0  0.69671  0.92278  0.20078  1.0000
  C   C4244     1.0  0.69381  0.91089  0.23088  1.0000
  C   C4245     1.0  0.69748  0.93130  0.21004  1.0000
  C   C4246     1.0  0.69597  0.92531  0.22519  1.0000
  C   C4247     1.0  0.69395  0.89985  0.19660  1.0000
  H   H4254     1.0  0.69149  0.89145  0.22583  1.0000
  H   H4255     1.0  0.69802  0.92750  0.18899  1.0000
  H   H4256     1.0  0.69273  0.90613  0.24265  1.0000
  H   H4257     1.0  0.69927  0.94247  0.20550  1.0000
  H   H4258     1.0  0.69653  0.93181  0.23250  1.0000
  H   H4259     1.0  0.68743  0.89118  0.20248  1.0000
  H   H4260     1.0  0.68853  0.90685  0.18743  1.0000
  H   H4261     1.0  0.70548  0.89428  0.19182  1.0000
  N   N351      1.0  0.75416  0.83367  0.27510  1.0000
  C   C4248     1.0  0.75690  0.84489  0.26306  1.0000
  C   C4249     1.0  0.74498  0.82487  0.27551  1.0000
  C   C4250     1.0  0.75060  0.84734  0.25088  1.0000
  C   C4251     1.0  0.73849  0.82702  0.26353  1.0000
  C   C4252     1.0  0.74141  0.83827  0.25113  1.0000
  C   C4253     1.0  0.76040  0.83143  0.28803  1.0000
  H   H4262     1.0  0.76382  0.85218  0.26288  1.0000
  H   H4263     1.0  0.74234  0.81633  0.28526  1.0000
  H   H4264     1.0  0.75264  0.85636  0.24143  1.0000
  H   H4265     1.0  0.73085  0.82033  0.26400  1.0000
  H   H4266     1.0  0.73625  0.84013  0.24188  1.0000
  S   S1435     1.0  0.84817  0.78554  0.47474  1.0000
  C   C4254     1.0  0.65840  0.81075  0.24084  1.0000
  C   C4255     1.0  0.74724  0.79656  0.39484  1.0000
  H   H4267     1.0  0.68671  0.81188  0.98369  1.0000
  C   C4256     1.0  0.63223  0.80973  0.24940  1.0000
  H   H4268     1.0  0.68855  0.83657  0.24429  1.0000
  C   C4257     1.0  0.64878  0.96567  0.15627  1.0000
  Fe  Fe717     1.0  0.66455  0.85470  0.17063  1.0000
  N   N352      1.0  0.66453  0.97193  0.28648  1.0000
  Fe  Fe718     1.0  0.68875  0.97932  0.19924  1.0000
  H   H4269     1.0  0.86791  0.96475  0.43883  1.0000
  C   C4258     1.0  0.89654  0.95378  0.39984  1.0000
  H   H4270     1.0  0.92536  0.82892  0.41336  1.0000
  C   C4259     1.0  0.66155  0.85613  0.25952  1.0000
  C   C4260     1.0  0.49573  0.95218  0.23865  1.0000
  H   H4271     1.0  0.75337  0.79159  0.40359  1.0000
  H   H4272     1.0  0.54273  0.82990  0.32493  1.0000
  C   C4261     1.0  0.54589  0.81964  0.32115  1.0000
  C   C4262     1.0  0.68154  0.79692  0.40664  1.0000
  C   C4263     1.0  0.67301  0.82948  0.10088  1.0000
  H   H4273     1.0  0.87471  0.94881  0.43092  1.0000
  C   C4264     1.0  0.65083  0.79329  0.21736  1.0000
  C   C4265     1.0  0.79800  0.82308  0.41042  1.0000
  C   C4266     1.0  0.74298  0.91937  0.36889  1.0000
  C   C4267     1.0  0.65452  0.82492  0.23205  1.0000
  H   H4274     1.0  0.64512  0.81421  0.41710  1.0000
  C   C4268     1.0  0.74403  0.93588  0.38308  1.0000
  C   C4269     1.0  0.66742  0.97041  0.25743  1.0000
  Fe  Fe719     1.0  0.73882  0.97488  0.29941  1.0000
  H   H4275     1.0  0.78537  0.95694  0.31838  1.0000
  C   C4270     1.0  0.70390  0.85756  0.21194  1.0000
  C   C4271     1.0  0.82315  0.85337  0.40953  1.0000
  C   C4272     1.0  0.63499  0.82415  0.27997  1.0000
  N   N353      1.0  0.88811  0.96545  0.35864  1.0000
  H   H4276     1.0  0.76521  0.81952  0.29201  1.0000
  C   C4273     1.0  0.91828  0.93406  0.39549  1.0000
  H   H4277     1.0  0.56807  0.81371  0.32544  1.0000
  C   C4274     1.0  0.67852  0.84426  0.32484  1.0000
  H   H4278     1.0  0.74329  0.82634  0.36688  1.0000
  C   C4275     1.0  0.55781  0.80393  0.35973  1.0000
  H   H4279     1.0  0.73804  0.96778  0.21455  1.0000
  C   C4276     1.0  0.82884  0.87806  0.39936  1.0000
  S   S1436     1.0  0.84110  0.97478  0.37119  1.0000
  H   H4280     1.0  0.93051  0.95403  0.44026  1.0000
  C   C4277     1.0  0.90517  0.97675  0.36352  1.0000
  H   H4281     1.0  0.93025  0.92982  0.39400  1.0000
  H   H4282     1.0  0.79432  0.95092  0.35177  1.0000
  C   C4278     1.0  0.66886  0.80502  0.41462  1.0000
  N   N354      1.0  0.75092  0.94213  0.35653  1.0000
  C   C4279     1.0  0.74885  0.94560  0.36988  1.0000
  C   C4280     1.0  0.74786  0.92933  0.35590  1.0000
  N   N355      1.0  0.90553  0.83018  0.43031  1.0000
  N   N356      1.0  0.51817  0.97527  0.32001  1.0000
  H   H4283     1.0  0.91407  0.83626  0.44526  1.0000
  C   C4281     1.0  0.75594  0.95244  0.34280  1.0000
  H   H4284     1.0  0.75137  0.95571  0.37040  1.0000
  C   C4282     1.0  0.51105  0.96859  0.19871  1.0000
  C   C4283     1.0  0.76057  0.81682  0.38653  1.0000
  C   C4284     1.0  0.50190  0.85831  0.17755  1.0000
  H   H4285     1.0  0.76944  0.83755  0.28547  1.0000
  H   H4286     1.0  0.75871  0.83067  0.44813  1.0000
  H   H4287     1.0  0.76298  0.94639  0.33409  1.0000
  C   C4285     1.0  0.58189  0.78840  0.35170  1.0000
  C   C4286     1.0  0.78130  0.96881  0.31633  1.0000
  H   H4288     1.0  0.68897  0.84280  0.21750  1.0000
  C   C4287     1.0  0.62499  0.97824  0.24103  1.0000
  H   H4289     1.0  0.62430  0.82717  0.27623  1.0000
  H   H4290     1.0  0.62359  0.80389  0.25607  1.0000
  H   H4291     1.0  0.67722  0.82594  0.29998  1.0000
  C   C4288     1.0  0.90701  0.96321  0.44742  1.0000
  C   C4289     1.0  0.70156  0.80251  0.08042  1.0000
  H   H4292     1.0  0.90882  0.97119  0.45238  1.0000
  C   C4290     1.0  0.64088  0.80623  0.21216  1.0000
  H   H4293     1.0  0.65189  0.82444  0.08037  1.0000
  C   C4291     1.0  0.77020  0.97551  0.30814  1.0000
  C   C4292     1.0  0.91665  0.94336  0.43439  1.0000
  C   C4293     1.0  0.88976  0.81384  0.43244  1.0000
  H   H4294     1.0  0.50742  0.97140  0.26385  1.0000
  N   N357      1.0  0.83612  0.92231  0.36085  1.0000
  C   C4294     1.0  0.85069  0.91618  0.36188  1.0000
  C   C4295     1.0  0.82766  0.93288  0.36855  1.0000
  C   C4296     1.0  0.85715  0.92069  0.37075  1.0000
  C   C4297     1.0  0.83381  0.93775  0.37741  1.0000
  C   C4298     1.0  0.84864  0.93158  0.37853  1.0000
  C   C4299     1.0  0.82931  0.91750  0.35165  1.0000
  H   H4295     1.0  0.85744  0.90778  0.35581  1.0000
  H   H4296     1.0  0.81612  0.93772  0.36778  1.0000
  H   H4297     1.0  0.86870  0.91575  0.37161  1.0000
  H   H4298     1.0  0.82717  0.94640  0.38324  1.0000
  H   H4299     1.0  0.85351  0.93526  0.38539  1.0000
  H   H4300     1.0  0.83766  0.90996  0.34491  1.0000
  H   H4301     1.0  0.82045  0.91157  0.35869  1.0000
  H   H4302     1.0  0.82423  0.92722  0.34382  1.0000
  C   C4300     1.0  0.68645  0.82009  0.09574  1.0000
  C   C4301     1.0  0.66426  0.95899  0.28345  1.0000
  S   S1437     1.0  0.76240  0.96443  0.30208  1.0000
  H   H4303     1.0  0.79539  0.97218  0.32857  1.0000
  H   H4304     1.0  0.49907  0.97301  0.31452  1.0000
  H   H4305     1.0  0.70148  0.86059  0.45517  1.0000
  H   H4306     1.0  0.83546  0.84954  0.40629  1.0000
  H   H4307     1.0  0.51301  0.85078  0.17817  1.0000
  C   C4302     1.0  0.65365  0.80333  0.39880  1.0000
  C   C4303     1.0  0.53175  0.96504  0.21027  1.0000
  C   C4304     1.0  0.53567  0.81532  0.31625  1.0000
  H   H4308     1.0  0.70008  0.79487  0.07444  1.0000
  H   H4309     1.0  0.79524  0.86905  0.41089  1.0000
  C   C4305     1.0  0.68173  0.83973  0.31152  1.0000
  H   H4310     1.0  0.51095  0.80199  0.20340  1.0000
  N   N358      1.0  0.64479  0.95382  0.15448  1.0000
  C   C4306     1.0  0.63275  0.94874  0.16398  1.0000
  H   H4311     1.0  0.79759  0.78713  0.45284  1.0000
  C   C4307     1.0  0.73639  0.78982  0.39399  1.0000
  C   C4308     1.0  0.89930  0.80880  0.42014  1.0000
  C   C4309     1.0  0.51101  0.96725  0.31413  1.0000
  S   S1438     1.0  0.64901  0.78789  0.35958  1.0000
  N   N359      1.0  0.55373  0.79298  0.31220  1.0000
  C   C4310     1.0  0.80345  0.82187  0.43370  1.0000
  H   H4312     1.0  0.76014  0.84821  0.43498  1.0000
  C   C4311     1.0  0.78002  0.79434  0.44068  1.0000
  H   H4313     1.0  0.74081  0.90910  0.36838  1.0000
  H   H4314     1.0  0.78446  0.82846  0.45052  1.0000
  Fe  Fe720     1.0  0.91294  0.98230  0.40294  1.0000
  C   C4312     1.0  0.90875  0.84151  0.43564  1.0000
  C   C4313     1.0  0.80350  0.87585  0.40663  1.0000
  C   C4314     1.0  0.65458  0.83613  0.27958  1.0000
  H   H4315     1.0  0.63281  0.84493  0.25505  1.0000
  H   H4316     1.0  0.92841  0.83664  0.37963  1.0000
  C   C4315     1.0  0.91223  0.81422  0.41325  1.0000
  Fe  Fe721     1.0  0.65183  0.85711  0.20268  1.0000
  Fe  Fe722     1.0  0.79168  0.96698  0.37414  1.0000
  S   S1439     1.0  0.78470  0.94533  0.38389  1.0000
  H   H4317     1.0  0.66872  0.86394  0.25412  1.0000
  H   H4318     1.0  0.87548  0.94915  0.40068  1.0000
  H   H4319     1.0  0.75148  0.83562  0.29705  1.0000
  C   C4316     1.0  0.78819  0.82708  0.43920  1.0000
  C   C4317     1.0  0.67447  0.82956  0.31022  1.0000
  S   S1440     1.0  0.51136  0.79831  0.35053  1.0000
  S   S1441     1.0  0.63426  0.84970  0.22228  1.0000
  C   C4318     1.0  0.55061  0.79415  0.35747  1.0000
  H   H4320     1.0  0.83264  0.90021  0.39108  1.0000
  S   S1442     1.0  0.63610  0.80820  0.39394  1.0000
  C   C4319     1.0  0.66158  0.82342  0.08465  1.0000
  C   C4320     1.0  0.74119  0.92263  0.38256  1.0000
  H   H4321     1.0  0.65637  0.82846  0.28987  1.0000
  H   H4322     1.0  0.80537  0.91206  0.39396  1.0000
  H   H4323     1.0  0.66314  0.83082  0.22553  1.0000
  C   C4321     1.0  0.63948  0.83158  0.23215  1.0000
  H   H4324     1.0  0.94217  0.81223  0.37376  1.0000
  C   C4322     1.0  0.91201  0.94843  0.39790  1.0000
  N   N360      1.0  0.77808  0.83008  0.43053  1.0000
  N   N361      1.0  0.64528  0.81554  0.19899  1.0000
  C   C4323     1.0  0.90198  0.94326  0.43454  1.0000
  S   S1443     1.0  0.67194  0.84217  0.19183  1.0000
  S   S1444     1.0  0.72163  0.97142  0.32047  1.0000
  N   N362      1.0  0.73847  0.90949  0.31351  1.0000
  C   C4324     1.0  0.73949  0.92384  0.30705  1.0000
  C   C4325     1.0  0.74966  0.89980  0.31988  1.0000
  C   C4326     1.0  0.75216  0.92871  0.30651  1.0000
  C   C4327     1.0  0.76246  0.90433  0.31959  1.0000
  C   C4328     1.0  0.76370  0.91889  0.31284  1.0000
  C   C4329     1.0  0.72500  0.90477  0.31401  1.0000
  H   H4325     1.0  0.73048  0.93158  0.30224  1.0000
  H   H4326     1.0  0.74877  0.88846  0.32515  1.0000
  H   H4327     1.0  0.75303  0.94001  0.30115  1.0000
  H   H4328     1.0  0.77141  0.89659  0.32451  1.0000
  H   H4329     1.0  0.77361  0.92255  0.31249  1.0000
  H   H4330     1.0  0.72187  0.90886  0.30306  1.0000
  H   H4331     1.0  0.72672  0.89250  0.31673  1.0000
  H   H4332     1.0  0.71553  0.90936  0.32241  1.0000
  N   N363      1.0  0.74977  0.80942  0.38504  1.0000
  H   H4333     1.0  0.90671  0.95334  0.36840  1.0000
  C   C4330     1.0  0.74155  0.81597  0.37441  1.0000
  S   S1445     1.0  0.69185  0.79114  0.12338  1.0000
  H   H4334     1.0  0.68583  0.79410  0.98150  1.0000
  H   H4335     1.0  0.77474  0.83034  0.40957  1.0000
  N   N364      1.0  0.64368  0.83563  0.27318  1.0000
  S   S1446     1.0  0.64379  0.86877  0.18194  1.0000
  H   H4336     1.0  0.88311  0.97056  0.45240  1.0000
  C   C4331     1.0  0.88744  0.94495  0.39917  1.0000
  C   C4332     1.0  0.91916  0.95353  0.44072  1.0000
  C   C4333     1.0  0.51830  0.97155  0.33473  1.0000
  H   H4337     1.0  0.62969  0.80890  0.21885  1.0000
  S   S1447     1.0  0.92368  0.95946  0.39842  1.0000
  C   C4334     1.0  0.88241  0.95230  0.36042  1.0000
  H   H4338     1.0  0.72411  0.81476  0.36483  1.0000
  C   C4335     1.0  0.89249  0.96284  0.44734  1.0000
  H   H4339     1.0  0.81813  0.84785  0.40407  1.0000
  H   H4340     1.0  0.96411  0.83692  0.39842  1.0000
  C   C4336     1.0  0.56012  0.81059  0.32137  1.0000
  C   C4337     1.0  0.62833  0.82407  0.24094  1.0000
  H   H4341     1.0  0.90018  0.93548  0.42935  1.0000
  C   C4338     1.0  0.66736  0.82868  0.14787  1.0000
  H   H4342     1.0  0.74949  0.92661  0.34531  1.0000
  C   C4339     1.0  0.80835  0.81984  0.41923  1.0000
  Fe  Fe723     1.0  0.63893  0.80510  0.34191  1.0000
  S   S1448     1.0  0.65773  0.84411  0.15587  1.0000
  S   S1449     1.0  0.75758  0.80431  0.42533  1.0000
  S   S1450     1.0  0.50052  0.97101  0.38086  1.0000
  C   C4340     1.0  0.76221  0.83603  0.43629  1.0000
  C   C4341     1.0  0.66637  0.79535  0.39074  1.0000
  C   C4342     1.0  0.72813  0.79632  0.38305  1.0000
  H   H4343     1.0  0.76640  0.82227  0.37551  1.0000
  H   H4344     1.0  0.62970  0.93922  0.16268  1.0000
  H   H4345     1.0  0.68824  0.97606  0.37153  1.0000
  S   S1451     1.0  0.61454  0.78832  0.37855  1.0000
  H   H4346     1.0  0.86430  0.97047  0.38622  1.0000
  H   H4347     1.0  0.51414  0.96203  0.34185  1.0000
  H   H4348     1.0  0.66319  0.94923  0.29227  1.0000
  C   C4343     1.0  0.78280  0.82818  0.41631  1.0000
  H   H4349     1.0  0.87820  0.95293  0.35059  1.0000
  H   H4350     1.0  0.70967  0.80909  0.07292  1.0000
  C   C4344     1.0  0.63566  0.82114  0.98228  1.0000
  H   H4351     1.0  0.74279  0.80015  0.45626  1.0000
  C   C4345     1.0  0.66527  0.78982  0.20889  1.0000
  C   C4346     1.0  0.85943  0.98217  0.38382  1.0000
  H   H4352     1.0  0.57479  0.79001  0.31748  1.0000
  C   C4347     1.0  0.70071  0.97764  0.23048  1.0000
  H   H4353     1.0  0.64744  0.78613  0.22801  1.0000
  C   C4348     1.0  0.62888  0.96713  0.17803  1.0000
  H   H4354     1.0  0.64424  0.98164  0.16972  1.0000
  H   H4355     1.0  0.91477  0.97564  0.36803  1.0000
  H   H4356     1.0  0.87009  0.98018  0.34932  1.0000
  H   H4357     1.0  0.66175  0.79786  0.00068  1.0000
  H   H4358     1.0  0.67469  0.96842  0.30444  1.0000
  H   H4359     1.0  0.68998  0.78570  0.38858  1.0000
  C   C4349     1.0  0.49709  0.96730  0.26992  1.0000
  H   H4360     1.0  0.51660  0.96672  0.30249  1.0000
  H   H4361     1.0  0.65582  0.96569  0.30968  1.0000
  C   C4350     1.0  0.69516  0.85532  0.46558  1.0000
  C   C4351     1.0  0.66346  0.97258  0.30174  1.0000
  S   S1452     1.0  0.97020  0.79313  0.37878  1.0000
  C   C4352     1.0  0.76034  0.79308  0.46833  1.0000
  H   H4362     1.0  0.89663  0.80073  0.41596  1.0000
  C   C4353     1.0  0.52347  0.98014  0.34089  1.0000
  S   S1453     1.0  0.50346  0.96278  0.18718  1.0000
  H   H4363     1.0  0.66853  0.96984  0.24608  1.0000
  H   H4364     1.0  0.62294  0.97215  0.18741  1.0000
  C   C4354     1.0  0.70962  0.97799  0.25162  1.0000
  C   C4355     1.0  0.65720  0.80600  0.99181  1.0000
  H   H4365     1.0  0.74216  0.98149  0.23085  1.0000
  H   H4366     1.0  0.62270  0.97284  0.22168  1.0000
  S   S1454     1.0  0.65230  0.78537  0.26010  1.0000
  H   H4367     1.0  0.78769  0.79472  0.43001  1.0000
  H   H4368     1.0  0.52312  0.97734  0.35269  1.0000
  H   H4369     1.0  0.49985  0.83654  0.20159  1.0000
  H   H4370     1.0  0.62028  0.96926  0.24868  1.0000
  C   C4356     1.0  0.77579  0.78932  0.46746  1.0000
  C   C4357     1.0  0.49636  0.95040  0.36903  1.0000
  H   H4371     1.0  0.72578  0.98150  0.19378  1.0000
  H   H4372     1.0  0.59393  0.78599  0.34961  1.0000
  H   H4373     1.0  0.50369  0.86925  0.17053  1.0000
  H   H4374     1.0  0.50598  0.78500  0.22782  1.0000
  C   C4358     1.0  0.49674  0.79183  0.22292  1.0000
  C   C4359     1.0  0.50084  0.95789  0.24767  1.0000
  H   H4375     1.0  0.50274  0.95026  0.22807  1.0000
  C   C4360     1.0  0.66780  0.98351  0.26061  1.0000
  H   H4376     1.0  0.70263  0.98361  0.34596  1.0000
  H   H4377     1.0  0.79653  0.90273  0.63673  1.0000
  S   S1455     1.0  0.79667  0.93196  0.63761  1.0000
  H   H4378     1.0  0.77993  0.91986  0.67120  1.0000
  C   C4361     1.0  0.86832  0.92338  0.63764  1.0000
  S   S1456     1.0  0.93159  0.92922  0.63854  1.0000
  S   S1457     1.0  0.63859  0.94871  0.76772  1.0000
  Fe  Fe724     1.0  0.50925  0.78881  0.80404  1.0000
  S   S1458     1.0  0.66625  0.95610  0.89149  1.0000
  H   H4379     1.0  0.76263  0.90682  0.66751  1.0000
  Fe  Fe725     1.0  0.67157  0.84516  0.74371  1.0000
  S   S1459     1.0  0.69429  0.84347  0.74718  1.0000
  S   S1460     1.0  0.66988  0.82868  0.73210  1.0000
  Fe  Fe726     1.0  0.65722  0.86942  0.76096  1.0000
  S   S1461     1.0  0.67871  0.86974  0.76591  1.0000
  S   S1462     1.0  0.63520  0.88404  0.76892  1.0000
  Fe  Fe727     1.0  0.68821  0.86826  0.74221  1.0000
  S   S1463     1.0  0.70269  0.88306  0.72609  1.0000
  Fe  Fe728     1.0  0.68261  0.84509  0.77052  1.0000
  S   S1464     1.0  0.69165  0.82898  0.78951  1.0000
  S   S1465     1.0  0.66635  0.86986  0.73681  1.0000
  S   S1466     1.0  0.66031  0.84472  0.76746  1.0000
  H   H4380     1.0  0.54705  0.78891  0.68625  1.0000
  S   S1467     1.0  0.61589  0.81280  0.80038  1.0000
  H   H4381     1.0  0.73022  0.94509  0.74264  1.0000
  C   C4362     1.0  0.88773  0.91402  0.65154  1.0000
  S   S1468     1.0  0.60005  0.79379  0.83234  1.0000
  Fe  Fe729     1.0  0.59393  0.80613  0.81065  1.0000
  S   S1469     1.0  0.57179  0.82121  0.80816  1.0000
  Fe  Fe730     1.0  0.62280  0.79845  0.82110  1.0000
  S   S1470     1.0  0.63896  0.80332  0.83123  1.0000
  C   C4363     1.0  0.69585  0.85766  0.47902  1.0000
  C   C4364     1.0  0.73420  0.94681  0.73076  1.0000
  H   H4382     1.0  0.88846  0.92651  0.67586  1.0000
  H   H4383     1.0  0.84261  0.82218  0.65728  1.0000
  Fe  Fe731     1.0  0.65583  0.88980  0.86440  1.0000
  S   S1471     1.0  0.67212  0.87167  0.87599  1.0000
  S   S1472     1.0  0.65724  0.91397  0.85595  1.0000
  Fe  Fe732     1.0  0.64106  0.86765  0.85929  1.0000
  S   S1473     1.0  0.65623  0.84805  0.87037  1.0000
  S   S1474     1.0  0.62341  0.86479  0.84953  1.0000
  Fe  Fe733     1.0  0.65237  0.86106  0.88746  1.0000
  S   S1475     1.0  0.64400  0.85012  0.91139  1.0000
  Fe  Fe734     1.0  0.67420  0.86036  0.85782  1.0000
  S   S1476     1.0  0.69579  0.84892  0.84521  1.0000
  S   S1477     1.0  0.63580  0.88018  0.87715  1.0000
  S   S1478     1.0  0.65938  0.87900  0.84548  1.0000
  Fe  Fe735     1.0  0.71160  0.83459  0.57348  1.0000
  S   S1479     1.0  0.70471  0.81433  0.58891  1.0000
  S   S1480     1.0  0.71619  0.85238  0.58142  1.0000
  Fe  Fe736     1.0  0.71090  0.82492  0.54582  1.0000
  S   S1481     1.0  0.70369  0.80407  0.55930  1.0000
  S   S1482     1.0  0.71913  0.82976  0.52099  1.0000
  Fe  Fe737     1.0  0.68833  0.81847  0.57472  1.0000
  C   C4365     1.0  0.83162  0.83193  0.67603  1.0000
  Fe  Fe738     1.0  0.72085  0.80230  0.57199  1.0000
  H   H4384     1.0  0.77646  0.92525  0.69587  1.0000
  S   S1483     1.0  0.69427  0.83961  0.56012  1.0000
  S   S1484     1.0  0.72887  0.82233  0.55759  1.0000
  Fe  Fe739     1.0  0.62021  0.82717  0.68323  1.0000
  S   S1485     1.0  0.63248  0.80351  0.68760  1.0000
  S   S1486     1.0  0.62944  0.84556  0.68517  1.0000
  Fe  Fe740     1.0  0.59372  0.81932  0.67704  1.0000
  C   C4366     1.0  0.61440  0.78611  0.73583  1.0000
  S   S1487     1.0  0.56941  0.82872  0.67562  1.0000
  Fe  Fe741     1.0  0.61030  0.79863  0.70029  1.0000
  H   H4385     1.0  0.67536  0.80579  0.80595  1.0000
  Fe  Fe742     1.0  0.62557  0.80251  0.66758  1.0000
  C   C4367     1.0  0.67821  0.83923  0.47901  1.0000
  S   S1488     1.0  0.59841  0.82240  0.69741  1.0000
  S   S1489     1.0  0.61451  0.82668  0.66232  1.0000
  Fe  Fe743     1.0  0.75409  0.87719  0.64640  1.0000
  S   S1490     1.0  0.77307  0.86825  0.65812  1.0000
  S   S1491     1.0  0.74472  0.90170  0.64169  1.0000
  Fe  Fe744     1.0  0.75307  0.84697  0.64389  1.0000
  S   S1492     1.0  0.77245  0.83560  0.65476  1.0000
  S   S1493     1.0  0.74168  0.83164  0.63957  1.0000
  Fe  Fe745     1.0  0.76103  0.85036  0.67068  1.0000
  S   S1494     1.0  0.75986  0.84228  0.69495  1.0000
  Fe  Fe746     1.0  0.78282  0.85460  0.64102  1.0000
  S   S1495     1.0  0.80691  0.85102  0.62868  1.0000
  S   S1496     1.0  0.74085  0.86049  0.66081  1.0000
  S   S1497     1.0  0.76458  0.86461  0.62835  1.0000
  Fe  Fe747     1.0  0.50050  0.79957  0.77433  1.0000
  S   S1498     1.0  0.83371  0.79898  0.58224  1.0000
  S   S1499     1.0  0.79135  0.80599  0.58473  1.0000
  Fe  Fe748     1.0  0.92391  0.98136  0.64601  1.0000
  C   C4368     1.0  0.74814  0.95055  0.72410  1.0000
  C   C4369     1.0  0.66070  0.82170  0.96786  1.0000
  H   H4386     1.0  0.51227  0.81298  0.71866  1.0000
  C   C4370     1.0  0.60789  0.83636  0.87808  1.0000
  C   C4371     1.0  0.58827  0.81567  0.76760  1.0000
  S   S1500     1.0  0.93281  0.97305  0.62494  1.0000
  C   C4372     1.0  0.64482  0.81004  0.88044  1.0000
  H   H4387     1.0  0.58306  0.81549  0.73423  1.0000
  Fe  Fe749     1.0  0.91035  0.84337  0.63702  1.0000
  S   S1501     1.0  0.91386  0.85341  0.61265  1.0000
  S   S1502     1.0  0.92813  0.82689  0.64810  1.0000
  Fe  Fe750     1.0  0.87703  0.85759  0.64249  1.0000
  S   S1503     1.0  0.87819  0.86849  0.61863  1.0000
  S   S1504     1.0  0.85411  0.86159  0.65714  1.0000
  Fe  Fe751     1.0  0.89257  0.84675  0.61441  1.0000
  S   S1505     1.0  0.88972  0.83599  0.59772  1.0000
  Fe  Fe752     1.0  0.89909  0.87401  0.61969  1.0000
  S   S1506     1.0  0.90142  0.89746  0.60913  1.0000
  S   S1507     1.0  0.89008  0.83539  0.63833  1.0000
  S   S1508     1.0  0.89701  0.86456  0.64402  1.0000
  H   H4388     1.0  0.67075  0.79074  0.75674  1.0000
  C   C4373     1.0  0.83231  0.97409  0.66181  1.0000
  S   S1509     1.0  0.82692  0.80962  0.50427  1.0000
  H   H4389     1.0  0.72477  0.90656  0.71127  1.0000
  C   C4374     1.0  0.96992  0.80430  0.61889  1.0000
  C   C4375     1.0  0.96667  0.79862  0.63415  1.0000
  C   C4376     1.0  0.95367  0.80549  0.64305  1.0000
  C   C4377     1.0  0.94382  0.81787  0.63668  1.0000
  C   C4378     1.0  0.94694  0.82322  0.62137  1.0000
  C   C4379     1.0  0.95998  0.81652  0.61251  1.0000
  H   H4390     1.0  0.75267  0.79273  0.47897  1.0000
  H   H4391     1.0  0.95132  0.80128  0.65491  1.0000
  H   H4392     1.0  0.93957  0.83276  0.61634  1.0000
  H   H4393     1.0  0.96246  0.82092  0.60069  1.0000
  H   H4394     1.0  0.76282  0.80363  0.63296  1.0000
  Fe  Fe753     1.0  0.83719  0.78675  0.60494  1.0000
  C   C4380     1.0  0.83684  0.80554  0.52931  1.0000
  C   C4381     1.0  0.83619  0.79902  0.51835  1.0000
  H   H4395     1.0  0.63100  0.79642  0.71923  1.0000
  C   C4382     1.0  0.85716  0.97592  0.66192  1.0000
  H   H4396     1.0  0.84476  0.80224  0.54906  1.0000
  H   H4397     1.0  0.83175  0.81714  0.52898  1.0000
  N   N365      1.0  0.67117  0.79426  0.77761  1.0000
  C   C4383     1.0  0.63778  0.97592  0.84109  1.0000
  C   C4384     1.0  0.85590  0.80620  0.61485  1.0000
  C   C4385     1.0  0.85988  0.81189  0.62467  1.0000
  C   C4386     1.0  0.87011  0.82110  0.61943  1.0000
  C   C4387     1.0  0.87664  0.82458  0.60437  1.0000
  C   C4388     1.0  0.87283  0.81870  0.59453  1.0000
  C   C4389     1.0  0.86242  0.80956  0.59975  1.0000
  H   H4398     1.0  0.85506  0.80914  0.63636  1.0000
  H   H4399     1.0  0.87291  0.82544  0.62712  1.0000
  H   H4400     1.0  0.87784  0.82131  0.58284  1.0000
  H   H4401     1.0  0.85946  0.80515  0.59209  1.0000
  C   C4390     1.0  0.81980  0.85463  0.63640  1.0000
  C   C4391     1.0  0.83513  0.84966  0.63098  1.0000
  C   C4392     1.0  0.84567  0.85209  0.63713  1.0000
  C   C4393     1.0  0.84096  0.85951  0.64872  1.0000
  C   C4394     1.0  0.82566  0.86472  0.65397  1.0000
  C   C4395     1.0  0.81510  0.86229  0.64781  1.0000
  H   H4402     1.0  0.83889  0.84376  0.62211  1.0000
  H   H4403     1.0  0.85745  0.84800  0.63306  1.0000
  H   H4404     1.0  0.82196  0.87053  0.66289  1.0000
  H   H4405     1.0  0.80338  0.86640  0.65192  1.0000
  C   C4396     1.0  0.55929  0.82123  0.66783  1.0000
  C   C4397     1.0  0.54367  0.82619  0.67024  1.0000
  C   C4398     1.0  0.53514  0.82045  0.66438  1.0000
  C   C4399     1.0  0.54219  0.80982  0.65588  1.0000
  C   C4400     1.0  0.55782  0.80483  0.65348  1.0000
  C   C4401     1.0  0.56634  0.81040  0.65955  1.0000
  H   H4406     1.0  0.53815  0.83459  0.67661  1.0000
  H   H4407     1.0  0.52316  0.82455  0.66613  1.0000
  C   C4402     1.0  0.92343  0.80629  0.59996  1.0000
  H   H4408     1.0  0.57838  0.80653  0.65760  1.0000
  C   C4403     1.0  0.71346  0.82108  0.51038  1.0000
  C   C4404     1.0  0.72036  0.82242  0.49537  1.0000
  C   C4405     1.0  0.71555  0.81644  0.48632  1.0000
  C   C4406     1.0  0.70367  0.80923  0.49216  1.0000
  C   C4407     1.0  0.69694  0.80764  0.50727  1.0000
  C   C4408     1.0  0.70182  0.81355  0.51639  1.0000
  H   H4409     1.0  0.72944  0.82815  0.49069  1.0000
  H   H4410     1.0  0.98665  0.83154  0.60117  1.0000
  S   S1510     1.0  0.50264  0.81157  0.79020  1.0000
  H   H4411     1.0  0.69635  0.81258  0.52795  1.0000
  C   C4409     1.0  0.72324  0.84660  0.59763  1.0000
  C   C4410     1.0  0.72431  0.83204  0.60586  1.0000
  C   C4411     1.0  0.72958  0.82770  0.61894  1.0000
  C   C4412     1.0  0.73420  0.83780  0.62368  1.0000
  C   C4413     1.0  0.73331  0.85235  0.61543  1.0000
  C   C4414     1.0  0.72771  0.85677  0.60247  1.0000
  H   H4412     1.0  0.72115  0.82406  0.60217  1.0000
  H   H4413     1.0  0.73033  0.81640  0.62524  1.0000
  H   H4414     1.0  0.73684  0.86022  0.61903  1.0000
  H   H4415     1.0  0.72689  0.86807  0.59616  1.0000
  H   H4416     1.0  0.67862  0.79521  0.60355  1.0000
  C   C4415     1.0  0.75111  0.80250  0.58227  1.0000
  C   C4416     1.0  0.76272  0.80776  0.58378  1.0000
  C   C4417     1.0  0.77697  0.79857  0.58369  1.0000
  S   S1511     1.0  0.98675  0.79709  0.60759  1.0000
  H   H4417     1.0  0.75578  0.91781  0.71626  1.0000
  H   H4418     1.0  0.74006  0.80955  0.58293  1.0000
  H   H4419     1.0  0.76059  0.81902  0.58502  1.0000
  Fe  Fe754     1.0  0.50711  0.80423  0.65770  1.0000
  H   H4420     1.0  0.82429  0.80387  0.65411  1.0000
  C   C4418     1.0  0.66797  0.79990  0.60999  1.0000
  C   C4419     1.0  0.60714  0.84527  0.88752  1.0000
  C   C4420     1.0  0.64954  0.79906  0.63336  1.0000
  C   C4421     1.0  0.64023  0.81172  0.62676  1.0000
  C   C4422     1.0  0.81988  0.81600  0.65104  1.0000
  H   H4421     1.0  0.56338  0.79666  0.64685  1.0000
  H   H4422     1.0  0.64354  0.79907  0.73733  1.0000
  H   H4423     1.0  0.63951  0.82792  0.89883  1.0000
  H   H4424     1.0  0.84177  0.83418  0.67708  1.0000
  C   C4423     1.0  0.66950  0.80759  0.93731  1.0000
  C   C4424     1.0  0.67737  0.81661  0.92533  1.0000
  C   C4425     1.0  0.66967  0.82931  0.91680  1.0000
  C   C4426     1.0  0.65405  0.83328  0.92046  1.0000
  C   C4427     1.0  0.64618  0.82411  0.93225  1.0000
  C   C4428     1.0  0.65386  0.81119  0.94051  1.0000
  S   S1512     1.0  0.60014  0.78633  0.80070  1.0000
  H   H4425     1.0  0.67585  0.83632  0.90777  1.0000
  H   H4426     1.0  0.63409  0.82711  0.93513  1.0000
  H   H4427     1.0  0.64768  0.80433  0.94967  1.0000
  C   C4429     1.0  0.55903  0.81008  0.81107  1.0000
  C   C4430     1.0  0.54574  0.81594  0.80596  1.0000
  C   C4431     1.0  0.53602  0.80675  0.80757  1.0000
  H   H4428     1.0  0.76196  0.80916  0.50720  1.0000
  H   H4429     1.0  0.57248  0.79056  0.82228  1.0000
  C   C4432     1.0  0.56239  0.79511  0.81807  1.0000
  H   H4430     1.0  0.54304  0.82753  0.80063  1.0000
  H   H4431     1.0  0.52580  0.81134  0.80363  1.0000
  Fe  Fe755     1.0  0.69415  0.94853  0.74873  1.0000
  H   H4432     1.0  0.67282  0.83854  0.59833  1.0000
  C   C4433     1.0  0.63430  0.82042  0.83626  1.0000
  C   C4434     1.0  0.62017  0.82982  0.83610  1.0000
  C   C4435     1.0  0.61692  0.84355  0.84000  1.0000
  C   C4436     1.0  0.62779  0.84787  0.84407  1.0000
  C   C4437     1.0  0.64196  0.83854  0.84397  1.0000
  C   C4438     1.0  0.64516  0.82479  0.84025  1.0000
  H   H4433     1.0  0.61177  0.82652  0.83294  1.0000
  H   H4434     1.0  0.60596  0.85079  0.83994  1.0000
  H   H4435     1.0  0.65064  0.84202  0.84639  1.0000
  H   H4436     1.0  0.65621  0.81768  0.84010  1.0000
  H   H4437     1.0  0.66129  0.80867  0.76023  1.0000
  H   H4438     1.0  0.88340  0.78626  0.51534  1.0000
  H   H4439     1.0  0.79556  0.79537  0.55308  1.0000
  S   S1513     1.0  0.77123  0.95668  0.70069  1.0000
  H   H4440     1.0  0.64070  0.83467  0.96031  1.0000
  H   H4441     1.0  0.67206  0.85557  0.60300  1.0000
  C   C4439     1.0  0.96965  0.83680  0.63461  1.0000
  C   C4440     1.0  0.76111  0.81393  0.52799  1.0000
  C   C4441     1.0  0.54219  0.78622  0.72246  1.0000
  H   H4442     1.0  0.68837  0.97194  0.84067  1.0000
  C   C4442     1.0  0.71933  0.87224  0.71789  1.0000
  C   C4443     1.0  0.72565  0.87690  0.70293  1.0000
  C   C4444     1.0  0.73848  0.86794  0.69602  1.0000
  C   C4445     1.0  0.74495  0.85426  0.70404  1.0000
  C   C4446     1.0  0.73892  0.84982  0.71913  1.0000
  C   C4447     1.0  0.72610  0.85882  0.72606  1.0000
  H   H4443     1.0  0.72037  0.88723  0.69657  1.0000
  H   H4444     1.0  0.74325  0.87158  0.68444  1.0000
  H   H4445     1.0  0.74395  0.83928  0.72540  1.0000
  H   H4446     1.0  0.72145  0.85534  0.73773  1.0000
  C   C4448     1.0  0.69264  0.83519  0.80465  1.0000
  C   C4449     1.0  0.68547  0.84949  0.80680  1.0000
  C   C4450     1.0  0.68593  0.85370  0.81949  1.0000
  C   C4451     1.0  0.69405  0.84378  0.82973  1.0000
  C   C4452     1.0  0.70145  0.82966  0.82733  1.0000
  C   C4453     1.0  0.70053  0.82530  0.81500  1.0000
  H   H4447     1.0  0.67960  0.85725  0.79870  1.0000
  H   H4448     1.0  0.68039  0.86472  0.82112  1.0000
  H   H4449     1.0  0.70783  0.82200  0.83511  1.0000
  H   H4450     1.0  0.70615  0.81426  0.81339  1.0000
  C   C4454     1.0  0.65855  0.83378  0.71914  1.0000
  C   C4455     1.0  0.65721  0.82279  0.71304  1.0000
  C   C4456     1.0  0.64821  0.82631  0.70274  1.0000
  C   C4457     1.0  0.64064  0.84091  0.69827  1.0000
  C   C4458     1.0  0.64223  0.85201  0.70414  1.0000
  C   C4459     1.0  0.65107  0.84844  0.71467  1.0000
  H   H4451     1.0  0.66305  0.81144  0.71638  1.0000
  H   H4452     1.0  0.64735  0.81771  0.69815  1.0000
  H   H4453     1.0  0.63645  0.86335  0.70067  1.0000
  H   H4454     1.0  0.65208  0.85701  0.71929  1.0000
  C   C4460     1.0  0.66452  0.94395  0.88161  1.0000
  C   C4461     1.0  0.66659  0.94783  0.86621  1.0000
  C   C4462     1.0  0.66477  0.93827  0.85857  1.0000
  C   C4463     1.0  0.66073  0.92478  0.86617  1.0000
  C   C4464     1.0  0.65908  0.92063  0.88154  1.0000
  C   C4465     1.0  0.66100  0.93019  0.88922  1.0000
  H   H4455     1.0  0.66967  0.95818  0.86017  1.0000
  H   H4456     1.0  0.66646  0.94140  0.84668  1.0000
  H   H4457     1.0  0.65602  0.91023  0.88753  1.0000
  H   H4458     1.0  0.65948  0.92705  0.90113  1.0000
  C   C4466     1.0  0.63797  0.93032  0.76944  1.0000
  C   C4467     1.0  0.65111  0.91954  0.76682  1.0000
  C   C4468     1.0  0.65034  0.90525  0.76679  1.0000
  C   C4469     1.0  0.63646  0.90163  0.76958  1.0000
  C   C4470     1.0  0.62332  0.91230  0.77263  1.0000
  C   C4471     1.0  0.62408  0.92665  0.77246  1.0000
  H   H4459     1.0  0.66186  0.92233  0.76429  1.0000
  H   H4460     1.0  0.66051  0.89723  0.76425  1.0000
  H   H4461     1.0  0.61254  0.90958  0.77480  1.0000
  H   H4462     1.0  0.61388  0.93498  0.77446  1.0000
  C   C4472     1.0  0.76903  0.91950  0.69410  1.0000
  C   C4473     1.0  0.91028  0.90597  0.61712  1.0000
  C   C4474     1.0  0.90875  0.92137  0.61286  1.0000
  C   C4475     1.0  0.91527  0.92857  0.61936  1.0000
  C   C4476     1.0  0.92353  0.92039  0.63003  1.0000
  C   C4477     1.0  0.92526  0.90495  0.63415  1.0000
  C   C4478     1.0  0.91852  0.89775  0.62782  1.0000
  H   H4463     1.0  0.90247  0.92776  0.60452  1.0000
  H   H4464     1.0  0.91417  0.94041  0.61585  1.0000
  H   H4465     1.0  0.93170  0.89858  0.64237  1.0000
  H   H4466     1.0  0.91970  0.88589  0.63116  1.0000
  C   C4479     1.0  0.73517  0.90429  0.71535  1.0000
  H   H4467     1.0  0.74188  0.89996  0.68796  1.0000
  C   C4480     1.0  0.78205  0.92416  0.63793  1.0000
  C   C4481     1.0  0.76731  0.93246  0.63897  1.0000
  C   C4482     1.0  0.75578  0.92575  0.63962  1.0000
  C   C4483     1.0  0.75908  0.91085  0.63888  1.0000
  C   C4484     1.0  0.77390  0.90289  0.63704  1.0000
  C   C4485     1.0  0.78527  0.90934  0.63709  1.0000
  H   H4468     1.0  0.76478  0.94403  0.63924  1.0000
  H   H4469     1.0  0.74432  0.93202  0.64088  1.0000
  H   H4470     1.0  0.77663  0.89170  0.63563  1.0000
  N   N366      1.0  0.63266  0.86755  0.80775  1.0000
  C   C4486     1.0  0.64606  0.85807  0.80938  1.0000
  C   C4487     1.0  0.62274  0.86362  0.80254  1.0000
  C   C4488     1.0  0.64960  0.84403  0.80625  1.0000
  C   C4489     1.0  0.62584  0.84961  0.79944  1.0000
  C   C4490     1.0  0.63929  0.83971  0.80149  1.0000
  C   C4491     1.0  0.62912  0.88223  0.81107  1.0000
  H   H4471     1.0  0.65389  0.86117  0.81356  1.0000
  H   H4472     1.0  0.61238  0.87136  0.80069  1.0000
  H   H4473     1.0  0.66008  0.83640  0.80791  1.0000
  H   H4474     1.0  0.61784  0.84645  0.79552  1.0000
  H   H4475     1.0  0.64174  0.82868  0.79946  1.0000
  H   H4476     1.0  0.61705  0.88544  0.81621  1.0000
  H   H4477     1.0  0.63537  0.88234  0.81917  1.0000
  H   H4478     1.0  0.63197  0.89054  0.80075  1.0000
  N   N367      1.0  0.77673  0.81618  0.61596  1.0000
  C   C4492     1.0  0.78996  0.81334  0.62022  1.0000
  C   C4493     1.0  0.77177  0.82954  0.60716  1.0000
  C   C4494     1.0  0.79885  0.82382  0.61528  1.0000
  C   C4495     1.0  0.78027  0.84035  0.60215  1.0000
  C   C4496     1.0  0.79394  0.83740  0.60618  1.0000
  C   C4497     1.0  0.76792  0.80476  0.62097  1.0000
  H   H4479     1.0  0.79380  0.80281  0.62729  1.0000
  H   H4480     1.0  0.76132  0.83180  0.60373  1.0000
  H   H4481     1.0  0.80951  0.82145  0.61839  1.0000
  H   H4482     1.0  0.77630  0.85086  0.59512  1.0000
  H   H4483     1.0  0.65337  0.81506  0.87151  1.0000
  H   H4484     1.0  0.97646  0.82740  0.64074  1.0000
  C   C4498     1.0  0.95151  0.86034  0.61919  1.0000
  H   H4485     1.0  0.63724  0.82780  0.60654  1.0000
  Fe  Fe756     1.0  0.78854  0.95239  0.64692  1.0000
  C   C4499     1.0  0.84473  0.96952  0.66840  1.0000
  H   H4486     1.0  0.67328  0.80493  0.64705  1.0000
  C   C4500     1.0  0.68952  0.96244  0.80887  1.0000
  Fe  Fe757     1.0  0.89398  0.97268  0.65204  1.0000
  C   C4501     1.0  0.63805  0.95109  0.84018  1.0000
  H   H4487     1.0  0.93636  0.86142  0.64034  1.0000
  H   H4488     1.0  0.68954  0.84125  0.66365  1.0000
  C   C4502     1.0  0.94704  0.85595  0.63451  1.0000
  C   C4503     1.0  0.67125  0.79956  0.76181  1.0000
  H   H4489     1.0  0.58013  0.79769  0.70906  1.0000
  H   H4490     1.0  0.63504  0.94047  0.84542  1.0000
  H   H4491     1.0  0.97434  0.78919  0.63914  1.0000
  C   C4504     1.0  0.56144  0.79454  0.70285  1.0000
  C   C4505     1.0  0.79151  0.80147  0.52334  1.0000
  H   H4492     1.0  0.76378  0.81727  0.54814  1.0000
  C   C4506     1.0  0.61845  0.84204  0.89521  1.0000
  C   C4507     1.0  0.68826  0.85406  0.50601  1.0000
  N   N368      1.0  0.97384  0.84100  0.61955  1.0000
  H   H4493     1.0  0.68594  0.84476  0.51557  1.0000
  N   N369      1.0  0.88528  0.92759  0.65468  1.0000
  H   H4494     1.0  0.70001  0.82243  0.66853  1.0000
  H   H4495     1.0  0.89638  0.90495  0.65550  1.0000
  S   S1514     1.0  0.70929  0.93822  0.73017  1.0000
  H   H4496     1.0  0.68832  0.84092  0.60410  1.0000
  H   H4497     1.0  0.74867  0.95227  0.68839  1.0000
  C   C4508     1.0  0.66340  0.79316  0.62492  1.0000
  C   C4509     1.0  0.75351  0.95249  0.70875  1.0000
  C   C4510     1.0  0.87425  0.93898  0.64982  1.0000
  H   H4498     1.0  0.50988  0.81320  0.60209  1.0000
  Fe  Fe758     1.0  0.66133  0.95294  0.76453  1.0000
  H   H4499     1.0  0.85695  0.94621  0.63733  1.0000
  C   C4511     1.0  0.86563  0.93709  0.64119  1.0000
  H   H4500     1.0  0.68836  0.95041  0.83150  1.0000
  H   H4501     1.0  0.69725  0.97061  0.71284  1.0000
  Fe  Fe759     1.0  0.92205  0.95370  0.63728  1.0000
  C   C4512     1.0  0.50104  0.79344  0.61044  1.0000
  C   C4513     1.0  0.87935  0.91173  0.64292  1.0000
  H   H4502     1.0  0.64961  0.80469  0.89041  1.0000
  H   H4503     1.0  0.60679  0.82211  0.77061  1.0000
  C   C4514     1.0  0.62684  0.79257  0.73091  1.0000
  C   C4515     1.0  0.76825  0.80849  0.51525  1.0000
  Fe  Fe760     1.0  0.77795  0.96263  0.67576  1.0000
  N   N370      1.0  0.64652  0.97796  0.82710  1.0000
  Fe  Fe761     1.0  0.81276  0.79025  0.58910  1.0000
  C   C4516     1.0  0.73109  0.94666  0.70680  1.0000
  Fe  Fe762     1.0  0.62267  0.79181  0.79219  1.0000
  H   H4504     1.0  0.86189  0.92176  0.63079  1.0000
  C   C4517     1.0  0.53957  0.79171  0.81431  1.0000
  N   N371      1.0  0.81458  0.89502  0.60753  1.0000
  C   C4518     1.0  0.82640  0.88309  0.60718  1.0000
  C   C4519     1.0  0.81588  0.90774  0.61026  1.0000
  C   C4520     1.0  0.83989  0.88358  0.60989  1.0000
  C   C4521     1.0  0.82906  0.90846  0.61341  1.0000
  C   C4522     1.0  0.84114  0.89628  0.61323  1.0000
  C   C4523     1.0  0.80050  0.89395  0.60502  1.0000
  H   H4505     1.0  0.82537  0.87299  0.60505  1.0000
  H   H4506     1.0  0.80656  0.91728  0.61051  1.0000
  H   H4507     1.0  0.84919  0.87403  0.60968  1.0000
  H   H4508     1.0  0.82975  0.91837  0.61620  1.0000
  H   H4509     1.0  0.85142  0.89661  0.61574  1.0000
  H   H4510     1.0  0.80217  0.89247  0.59363  1.0000
  H   H4511     1.0  0.79652  0.88432  0.61309  1.0000
  H   H4512     1.0  0.79149  0.90399  0.60649  1.0000
  H   H4513     1.0  0.66804  0.82588  0.95761  1.0000
  H   H4514     1.0  0.75877  0.80753  0.61497  1.0000
  C   C4524     1.0  0.93671  0.79643  0.59527  1.0000
  S   S1515     1.0  0.67956  0.79283  0.94886  1.0000
  H   H4515     1.0  0.73244  0.91061  0.72413  1.0000
  H   H4516     1.0  0.73815  0.89227  0.72036  1.0000
  N   N372      1.0  0.66927  0.83707  0.62132  1.0000
  C   C4525     1.0  0.65691  0.84520  0.62903  1.0000
  C   C4526     1.0  0.67520  0.82281  0.62767  1.0000
  C   C4527     1.0  0.65041  0.83918  0.64362  1.0000
  C   C4528     1.0  0.66895  0.81644  0.64222  1.0000
  C   C4529     1.0  0.65649  0.82470  0.65021  1.0000
  C   C4530     1.0  0.67591  0.84335  0.60596  1.0000
  H   H4517     1.0  0.65192  0.85636  0.62389  1.0000
  H   H4518     1.0  0.68458  0.81615  0.62135  1.0000
  H   H4519     1.0  0.64057  0.84558  0.64977  1.0000
  C   C4531     1.0  0.63394  0.79404  0.74118  1.0000
  H   H4520     1.0  0.65131  0.81975  0.66135  1.0000
  H   H4521     1.0  0.59798  0.85483  0.88864  1.0000
  H   H4522     1.0  0.65841  0.96826  0.80860  1.0000
  H   H4523     1.0  0.59934  0.83899  0.87176  1.0000
  C   C4532     1.0  0.69124  0.91352  0.83455  1.0000
  C   C4533     1.0  0.70163  0.88405  0.84706  1.0000
  C   C4534     1.0  0.69690  0.90989  0.84731  1.0000
  C   C4535     1.0  0.70206  0.89505  0.85363  1.0000
  H   H4524     1.0  0.70548  0.87243  0.85192  1.0000
  H   H4525     1.0  0.69684  0.91855  0.85248  1.0000
  H   H4526     1.0  0.70617  0.89206  0.86370  1.0000
  N   N373      1.0  0.60782  0.82412  0.74780  1.0000
  C   C4536     1.0  0.60113  0.82254  0.73767  1.0000
  C   C4537     1.0  0.60149  0.82089  0.76259  1.0000
  C   C4538     1.0  0.58800  0.81721  0.74230  1.0000
  S   S1516     1.0  0.60438  0.79505  0.68081  1.0000
  H   H4527     1.0  0.62095  0.81801  0.86838  1.0000
  C   C4539     1.0  0.62155  0.82978  0.74281  1.0000
  H   H4528     1.0  0.60617  0.82503  0.72595  1.0000
  C   C4540     1.0  0.72581  0.94461  0.72211  1.0000
  S   S1517     1.0  0.50894  0.80729  0.74991  1.0000
  C   C4541     1.0  0.64708  0.95323  0.82597  1.0000
  H   H4529     1.0  0.61886  0.84180  0.74254  1.0000
  H   H4530     1.0  0.62755  0.82803  0.73157  1.0000
  C   C4542     1.0  0.96508  0.85273  0.61185  1.0000
  H   H4531     1.0  0.62944  0.82379  0.75022  1.0000
  C   C4543     1.0  0.91881  0.80702  0.61481  1.0000
  H   H4532     1.0  0.69952  0.85547  0.50573  1.0000
  H   H4533     1.0  0.50350  0.80228  0.70301  1.0000
  H   H4534     1.0  0.92417  0.79874  0.63633  1.0000
  S   S1518     1.0  0.76578  0.95843  0.66117  1.0000
  H   H4535     1.0  0.67980  0.86427  0.50803  1.0000
  C   C4544     1.0  0.68889  0.97313  0.82907  1.0000
  H   H4536     1.0  0.67161  0.83166  0.47916  1.0000
  C   C4545     1.0  0.55272  0.78595  0.81964  1.0000
  C   C4546     1.0  0.67397  0.80309  0.78492  1.0000
  H   H4537     1.0  0.77513  0.79401  0.61877  1.0000
  H   H4538     1.0  0.74921  0.81888  0.52983  1.0000
  H   H4539     1.0  0.58334  0.81301  0.77934  1.0000
  H   H4540     1.0  0.65110  0.94432  0.82007  1.0000
  C   C4547     1.0  0.78354  0.80215  0.51293  1.0000
  N   N374      1.0  0.66606  0.92332  0.72923  1.0000
  C   C4548     1.0  0.66232  0.91061  0.72930  1.0000
  C   C4549     1.0  0.65516  0.93563  0.73167  1.0000
  C   C4550     1.0  0.64730  0.91008  0.73168  1.0000
  C   C4551     1.0  0.64005  0.93550  0.73404  1.0000
  C   C4552     1.0  0.63613  0.92260  0.73410  1.0000
  C   C4553     1.0  0.68175  0.92342  0.72761  1.0000
  H   H4541     1.0  0.67097  0.90074  0.72781  1.0000
  H   H4542     1.0  0.65806  0.94549  0.73230  1.0000
  H   H4543     1.0  0.64430  0.89986  0.73223  1.0000
  H   H4544     1.0  0.63146  0.94511  0.73655  1.0000
  H   H4545     1.0  0.62444  0.92214  0.73654  1.0000
  H   H4546     1.0  0.68409  0.93446  0.72165  1.0000
  H   H4547     1.0  0.68447  0.92059  0.73869  1.0000
  H   H4548     1.0  0.68945  0.91525  0.72121  1.0000
  N   N375      1.0  0.81916  0.82300  0.66295  1.0000
  C   C4554     1.0  0.67908  0.84189  0.49223  1.0000
  C   C4555     1.0  0.76118  0.90933  0.67815  1.0000
  S   S1519     1.0  0.69700  0.80214  0.48090  1.0000
  H   H4549     1.0  0.88162  0.90106  0.64011  1.0000
  H   H4550     1.0  0.57144  0.80948  0.76117  1.0000
  S   S1520     1.0  0.89977  0.96431  0.63132  1.0000
  C   C4556     1.0  0.77094  0.91654  0.68027  1.0000
  H   H4551     1.0  0.80418  0.80973  0.54007  1.0000
  N   N376      1.0  0.78452  0.80723  0.53558  1.0000
  H   H4552     1.0  0.78743  0.81459  0.55338  1.0000
  H   H4553     1.0  0.82276  0.96909  0.66679  1.0000
  C   C4557     1.0  0.52097  0.79748  0.61859  1.0000
  C   C4558     1.0  0.50068  0.79865  0.71483  1.0000
  S   S1521     1.0  0.60471  0.78487  0.72333  1.0000
  S   S1522     1.0  0.80091  0.95457  0.66255  1.0000
  S   S1523     1.0  0.53183  0.80282  0.64787  1.0000
  H   H4554     1.0  0.90856  0.81468  0.61852  1.0000
  C   C4559     1.0  0.67334  0.79866  0.80014  1.0000
  Fe  Fe763     1.0  0.66720  0.97964  0.87898  1.0000
  H   H4555     1.0  0.67287  0.83644  0.50260  1.0000
  C   C4560     1.0  0.74477  0.95082  0.70014  1.0000
  H   H4556     1.0  0.52839  0.80440  0.61816  1.0000
  C   C4561     1.0  0.80580  0.82693  0.67241  1.0000
  C   C4562     1.0  0.80496  0.83380  0.68368  1.0000
  C   C4563     1.0  0.81797  0.83637  0.68543  1.0000
  H   H4557     1.0  0.79564  0.82489  0.67126  1.0000
  H   H4558     1.0  0.79423  0.83717  0.69093  1.0000
  H   H4559     1.0  0.81747  0.84191  0.69396  1.0000
  H   H4560     1.0  0.80874  0.81817  0.64842  1.0000
  N   N377      1.0  0.70353  0.83751  0.67879  1.0000
  C   C4564     1.0  0.69198  0.84250  0.68960  1.0000
  C   C4565     1.0  0.71803  0.83479  0.68007  1.0000
  C   C4566     1.0  0.69487  0.84549  0.70177  1.0000
  C   C4567     1.0  0.72129  0.83748  0.69221  1.0000
  C   C4568     1.0  0.70961  0.84295  0.70306  1.0000
  C   C4569     1.0  0.70039  0.83429  0.66613  1.0000
  H   H4561     1.0  0.68043  0.84418  0.68890  1.0000
  H   H4562     1.0  0.72719  0.83058  0.67164  1.0000
  H   H4563     1.0  0.68572  0.84957  0.71026  1.0000
  H   H4564     1.0  0.73279  0.83536  0.69319  1.0000
  H   H4565     1.0  0.71198  0.84511  0.71252  1.0000
  H   H4566     1.0  0.61810  0.84902  0.90243  1.0000
  H   H4567     1.0  0.68777  0.80202  0.51189  1.0000
  C   C4570     1.0  0.50573  0.80460  0.72371  1.0000
  N   N378      1.0  0.74748  0.90862  0.70326  1.0000
  C   C4571     1.0  0.75726  0.91530  0.70559  1.0000
  C   C4572     1.0  0.74945  0.90545  0.68980  1.0000
  C   C4573     1.0  0.58155  0.81375  0.75737  1.0000
  H   H4568     1.0  0.68680  0.92505  0.82997  1.0000
  H   H4569     1.0  0.62683  0.96072  0.85909  1.0000
  H   H4570     1.0  0.80072  0.84563  0.60232  1.0000
  H   H4571     1.0  0.89478  0.94140  0.66155  1.0000
  C   C4574     1.0  0.83202  0.82521  0.66479  1.0000
  C   C4575     1.0  0.69582  0.88807  0.83435  1.0000
  C   C4576     1.0  0.92750  0.79797  0.62480  1.0000
  S   S1524     1.0  0.87313  0.96958  0.66945  1.0000
  C   C4577     1.0  0.67000  0.78500  0.80783  1.0000
  S   S1525     1.0  0.68853  0.94734  0.80273  1.0000
  N   N379      1.0  0.69070  0.90267  0.82828  1.0000
  C   C4578     1.0  0.56376  0.79002  0.72807  1.0000
  H   H4572     1.0  0.68150  0.80374  0.75570  1.0000
  H   H4573     1.0  0.69526  0.87941  0.82952  1.0000
  Fe  Fe764     1.0  0.76658  0.98167  0.64879  1.0000
  C   C4579     1.0  0.63054  0.83006  0.89314  1.0000
  H   H4574     1.0  0.72465  0.94491  0.70007  1.0000
  H   H4575     1.0  0.82732  0.82061  0.64064  1.0000
  H   H4576     1.0  0.91674  0.81339  0.59213  1.0000
  C   C4580     1.0  0.65850  0.81233  0.60330  1.0000
  N   N380      1.0  0.63134  0.82156  0.88362  1.0000
  S   S1526     1.0  0.66304  0.96954  0.77582  1.0000
  S   S1527     1.0  0.68185  0.93640  0.77004  1.0000
  N   N381      1.0  0.94509  0.78746  0.60517  1.0000
  C   C4581     1.0  0.62017  0.82451  0.87620  1.0000
  H   H4577     1.0  0.53224  0.80235  0.69457  1.0000
  C   C4582     1.0  0.84416  0.79711  0.54068  1.0000
  C   C4583     1.0  0.62840  0.78944  0.75638  1.0000
  C   C4584     1.0  0.79331  0.80669  0.54605  1.0000
  H   H4578     1.0  0.69078  0.97732  0.78744  1.0000
  H   H4579     1.0  0.56603  0.79802  0.69114  1.0000
  S   S1528     1.0  0.66367  0.82056  0.58442  1.0000
  H   H4580     1.0  0.75483  0.95184  0.73085  1.0000
  H   H4581     1.0  0.68948  0.81389  0.92277  1.0000
  H   H4582     1.0  0.62951  0.81629  0.63315  1.0000
  H   H4583     1.0  0.64236  0.80123  0.87671  1.0000
  N   N382      1.0  0.54804  0.79033  0.70764  1.0000
  N   N383      1.0  0.68792  0.85092  0.49212  1.0000
  H   H4584     1.0  0.68875  0.80857  0.96560  1.0000
  H   H4585     1.0  0.84476  0.96090  0.67839  1.0000
  C   C4585     1.0  0.68375  0.90678  0.81553  1.0000
  H   H4586     1.0  0.67140  0.91003  0.81930  1.0000
  C   C4586     1.0  0.68889  0.96095  0.82386  1.0000
  Fe  Fe765     1.0  0.67682  0.97867  0.75403  1.0000
  C   C4587     1.0  0.51058  0.80241  0.60960  1.0000
  S   S1529     1.0  0.64451  0.79054  0.65218  1.0000
  H   H4587     1.0  0.68778  0.91628  0.80730  1.0000
  S   S1530     1.0  0.69881  0.96463  0.75877  1.0000
  Fe  Fe766     1.0  0.68459  0.95388  0.77968  1.0000
  S   S1531     1.0  0.78820  0.97534  0.63295  1.0000
  H   H4588     1.0  0.68351  0.97286  0.90236  1.0000
  Fe  Fe767     1.0  0.79900  0.97806  0.64961  1.0000
  C   C4588     1.0  0.64463  0.81822  0.61170  1.0000
  S   S1532     1.0  0.67329  0.96342  0.74232  1.0000
  H   H4589     1.0  0.94440  0.86945  0.61305  1.0000
  H   H4590     1.0  0.68647  0.89752  0.80984  1.0000
  H   H4591     1.0  0.90559  0.92298  0.66200  1.0000
  H   H4592     1.0  0.78922  0.79792  0.50306  1.0000
  S   S1533     1.0  0.63656  0.79281  0.76902  1.0000
  C   C4589     1.0  0.89393  0.92967  0.66402  1.0000
  H   H4593     1.0  0.87211  0.94964  0.65254  1.0000
  H   H4594     1.0  0.72964  0.78548  0.49447  1.0000
  H   H4595     1.0  0.70921  0.83666  0.65598  1.0000
  C   C4590     1.0  0.64522  0.82672  0.96932  1.0000
  S   S1534     1.0  0.91554  0.96088  0.65881  1.0000
  S   S1535     1.0  0.84277  0.79496  0.62189  1.0000
  C   C4591     1.0  0.98801  0.83321  0.61162  1.0000
  C   C4592     1.0  0.65124  0.96680  0.81957  1.0000
  C   C4593     1.0  0.50247  0.79966  0.73909  1.0000
  H   H4596     1.0  0.67666  0.81368  0.77898  1.0000
  C   C4594     1.0  0.76943  0.81309  0.53820  1.0000
  C   C4595     1.0  0.67729  0.97157  0.91408  1.0000
  C   C4596     1.0  0.63345  0.96245  0.84786  1.0000
  H   H4597     1.0  0.96845  0.85611  0.59992  1.0000
  Fe  Fe768     1.0  0.82728  0.79548  0.48937  1.0000
  C   C4597     1.0  0.94074  0.78824  0.61974  1.0000
  C   C4598     1.0  0.56950  0.79440  0.71296  1.0000
  H   H4598     1.0  0.57006  0.78972  0.73596  1.0000
  H   H4599     1.0  0.66548  0.97221  0.91404  1.0000
  H   H4600     1.0  0.70277  0.86489  0.47892  1.0000
  H   H4601     1.0  0.95255  0.84044  0.65416  1.0000
  H   H4602     1.0  0.80338  0.79646  0.52151  1.0000
  C   C4599     1.0  0.95620  0.84420  0.64230  1.0000
  C   C4600     1.0  0.69031  0.97610  0.79903  1.0000
  H   H4603     1.0  0.94024  0.79603  0.58367  1.0000
  H   H4604     1.0  0.99190  0.82193  0.61818  1.0000
  H   H4605     1.0  0.68188  0.96038  0.92028  1.0000
  C   C4601     1.0  0.53949  0.79111  0.69687  1.0000
  C   C4602     1.0  0.54992  0.78605  0.73290  1.0000
  C   C4603     1.0  0.75380  0.78824  0.57995  1.0000
  H   H4606     1.0  0.71236  0.98359  0.72784  1.0000
  C   C4604     1.0  0.69683  0.98270  0.70927  1.0000
  N   N384      1.0  0.67851  0.98300  0.92071  1.0000
  C   C4605     1.0  0.84280  0.78403  0.51879  1.0000
  H   H4607     1.0  0.88819  0.98342  0.68312  1.0000
  C   C4606     1.0  0.77956  0.78401  0.58213  1.0000
  C   C4607     1.0  0.52157  0.78367  0.62843  1.0000
  S   S1536     1.0  0.78253  0.78370  0.48380  1.0000
  C   C4608     1.0  0.68275  0.80628  0.97740  1.0000
  H   H4608     1.0  0.70083  0.98358  0.90847  1.0000
