data_image0
_chemical_formula_structural       FeS2FeS2FeSFeS3FeCSFeS2CFeCHCHS2FeCSHC2FeCFeSC3H2CHC4NSH7C2SHCHC2HCHSC6H4C7H3C6H4C2HSHCHCHCH3NC2H2CSH4C4FeCHCNC5HSHC2H2CSCH4NH2C2HC2H3C2H3CSCHNHC2HCH2C2H2CHNCH3CH2C2HCHCNHC2HCH2CSHCFeS2FeS2FeSFeS3FeS2FeS2FeSFeS3FeSFeS2FeS2NCFeS2FeSFeS2CFeS2FeSFeSFeS2HCH3SCSC3H2SHCHFeS2H3C6H4C7H4C6H4C6H3SC3SCH2C7H4C6H4C6H4C6H4C6H4C6H2C2HNC7H11C5H3C2HC2HCHCH2CSH2NS2CFeHCHCNHCHCHNC6H2CH7CSH2CHNSH2FeHCHCHNH2CHC2SCH2CH3CH3CNC6H8FeCHC6Fe2HS2HNSH3C2H2CHCSC2HCH5CHCHC2HN2H3C4H2S2FeS2FeS2FeSFeS3FeS2FeS2FeSFeS3FeS2FeS2FeSFeS3FeS2HSHFe3CS2HSC2SHSC7H2C2HC4H2C6H4CSCFeCSNCHC2H2SH3C6H3SCH2C8H2C6H4C6H4C6H4C6H5NC6H8FeH3SH7CSCHC2NC2SCH2FeCHCH2CHCHC3H5CH4C2H2NHC2NHC3H2CH2CNCHSHCHFeHNCH3NC6H9CHSCHFeCHC4HCHCH2NC2H2CH3C2NCNH2CHCHC2H3FeSCHCSC2NCH10CHCFeCHC3HC2SC4SHN2HFeS2FeSFeSHS4FeS2FeS2FeSFeS3CSHS2HN2FeS2FeS2HFeSCS2CHC6H5CH2CHCH2C4HNCH4C6H4C6H2CHC6H4C6H4C2SH2C2HSHCHC6H5NCHCFeHC2H4CFeH2CH4C4HCNC6H4NHCH2C2H3C5HC3HNH2FeCH2SHFeHC2SFe2SHCSCH2SH2C2SH2CSCH3C2H3FeHSNH3SC2H8CHNHC2H2C2HS2HCH2SHCHFeHSH2C2H3CFeCH2SHCHC2HS2H4FeH2CFeC2FeHFeS2Fe2S3FeHS3FeS2HSNFeS2NFeSHSFeCSFeHSFeSH2SH3SHSCHCHC3H3C6H3C6H4C2SCNHCHC6H4C6H4C6H4CNC3HFeCHCSHC2NS2C3HSH2C2H3FeH3CH3SH4CHC3HCFeCNCH3CHCHSCSCSH2C2HC2HC3NC5SNH3NH2FeCSNC6H8NC6H3C2H5CHS2CSHCFeHCHSHCH2CFeH2CHS2C2H2C2H2CHCH5FeSCFeH3CHCSCHCH2FeCHFeSHC2H3SHFeS2H2SHFeSC2FeS2CFeCSFeS2FeS2FeSFeS3FeS2FeS2FeSFeS3CFeS2FeSFeSFeS3CHCHC3NCHC3FeH2C6H4C6H4C6H4C2HC3HC3HCH2C6H4C6H4CHC2HCH4NC4NH3CNC2HCHC2HC2HC2HFeHCHC2HCHCH3CHNC4H4CH2CHCH2C2H2CHFe3HFeC2SHCHSCHC2H6CHCS2NC6H8SHCSHCH4FeHCSC2NH2CH4CH4SHSHC2HFeHCNC6H3C2NH4CHCHC2H2C2HC2HNC3H4CHC3HC2H2CHCNH2NHC2SHCH3SHCH2SHSCH2CFeSHFeS2FeSFeS3FeS2FeS2FeSFeS3FeS2FeS2FeCFeS3FeHSFe2S2FeS2FeS2FeSFeS3CFeS2HCH3SC6H4C6H4C6H4CHC2HC3N2H2SC6H4CHSCHCHC2H3C3SH3C7H4SC8H4C3NHC2FeC4HSHFeCSCHCHC3H4CHCH2CHC2H2CH2CHC2H2C2SHC3NCH3CH4NC5H2CH2CHCHC3H3NC2H2CHCHNC3H2CH3SH14C2HNCHNH2CH4NC2H3CH2C3NH2C2H2CNC6H2NHSHCH2C2HCHC2SHCHCSCH3CSHC2H2C3HCFeS2FeS2FeCFeSFe2S2H2CHS2HC3H2C2H4C2SCH4SFeS2CHSHSFeCS3H3C2SCFeC5HNH3C2HC2SHC4H2NCFeHSC3SHC7NH3C2HFeCS2C3H3C2SH2C6H2SC5H2CSC3H2C6H4NC2S2HCH3FeC3HC3H5CH2C2HNC6H2SNHFeCHC2H7CHCHCH3CHCHCH2FeH3NCNHC3H2SCH2FeCNCH2SH2CHFeCHFe2H2CNHSCH5C2SHCFeCFeSCHSCH4CH2CHCSCHFeH2C2SH3FeS2FeS2FeSFeS3FeS2FeSCFeSFeS3FeS2FeS2FeS2FeSFeS3FeSCSFeSHSFeS2C2FeSFeS2CH2C6H4C6H4C2H7C6H4C6H4C6H4C4HCH3FeC6H6C2HC2FeHC6H3CH2C3H5CH3CSC2NHCHC2H4CH2FeCHCH2SC3HCH2CHSCSHNC6H8NC6H8NC6H8SHC3H2NSNHCSCH4S3HCNC6H8CHC2HCHSH4C2N2C5HNCH5CSHSH3FeH3CH3NCHS2FeS2CSNFeSFeS2HFeS2FeHSFeSFeCS2H2CSHC3HCSCHSC3FeHC6H4C6H2CHC6H4C6H5C3H3CFeC4SH4NH2C2H2C2HNC5H4C3HCHC2SC2HCHC2HC3H5C2HCH2CH3NHCH2C2N2HFeHNH2CH7NCH3CH2CHCH3CHFeSFeS2FeSFeS3FeS2FeS2FeSFeS3C2FeS2FeCFe2S3FeSFeS2FeSFeS2NC6H3C3HC7H4C2H2C6H4C6H4CH2C2HSHC4H3SC3SH2CHC4SH5CHC2H2C2H2CH2CH4NHC4H6CHCH2C2H3CHC2H2CHC3SHC2HNH2CSCHCHNSC3H3CFeC5H2NC6H8S2HCSNC6H8C3HNC6H4FeCH5CH3CH3C2H3C3SCH3CFeS2FeSFeSFeS3FeSCFeS2FeSFeS3FeS2FeS2FeSFeS3CS2CH3FeS2C2HNH2NSFeH3SHC3HFeS2CFeHFeSNCFeS2FeS2FeSFeS2HCHNH2CHC2HC4H7CHC3H2C6H4C6H4C6H5C10H5C5SH3CHC4H2C6H4C6H8CH2CH2C4H8C4HFeNHSHCH2CSC2H3NCNC6H6CH2CHC2H3C3HC2HC7HNCH3CSNC2HC2H4C3NC6H9C2H2SC2H2C2NSCH2NHCH4C2HCHCFeSHCFeNH3C2H5C2HCFe2S2FeS2FeSFeS3FeSNFeS2FeSFeS3FeS2FeS2FeHFeS3HCH2C3NCFeS2FeS2FeSFeS3FeS2H2FeH2SHFeS2FeC2FeSHS2HCH2NC8H4CH2C2H2C6HCH2C2H2CH2SC2SC2SCH2CH2CH3C6H4C3H3C7H4C6H4C6H4C6H4C6H4CHFe2HCHNC5H4SCHNHNCHCHC2H2SHSHCH3SC2H2SHCHC2HC2HCHC2HCH3NC6H12CNH2C2NH4C3HCH4C3HCNCHNC3NC4HC2HCH4CSHC2H3SFeC3H2CH3C3SHNCNCSHC2H4C3HCH5C2HCH8CHCHC2H3CHCSFeCHFeS2FeS2Fe2S3FeS3C2FeHFeSHS2C2FeHSC2SFeH3CHC3HSHSFeCH2C6H4NFeH2SHC2HFeHSH2C3SC6H4C6H3C3HC2HFeH2SC3SH4C2SH3C2FeHSH2C4H4S4HCFeCHCSHC3SH4CFeC3H5CHSC3H2N2H3CHC4SCH4SHCHNCHSH4CNC6H8NC5HNH2SHC2H2S2H2CNHFe2CH2FeSHFe3S3FeS2FeS2FeSFeS3CHS2CHCH2SFeSFeS2FeS2FeSFeS3FeSHS2CH2SFeS2FeSFeS3C2HC3HCH5FeC4H2C6H4Fe2HC2HSC2H3C4HNH2CH2CHC7H4C6H2SHC6H4C6H4CHC6HNC5H6CH2CHFeS2H4CH2SFeCH2CSHC2HSNCNH4CH2CS2HC2H2C6H3NC2HCHCH2C4SCSNC6H8NC5H7NC6H2CH2C2HCHC6H6NH2NCNH3SH3C6HC2FeCH4CHCH2CH2CHSFeSFeS3FeS3HSHFeS2FeSFeSFeS2FeS2FeSFeS3FeSHFeS2FeSFeHS2FeS2FeS2CFeS3C3HC2HNH7C6H4C6H4C6H6C6HCH2C2FeH2CSHC4H2C6HC6H4C4H6C3H2C2H2NCSH3C4H2CHCH4C2H2FeHCH2CFeHCHCHCH2SHCHS2CHCHCFeCNC6H7NC6H8NC6H3CH2SHC3HCH2CHN2C3NCHS2H2C2H2SC2H4CH3C2HC5HCNHCHFe2H2CH2CHCHC2H2CHC2FeSCSH4CH4CHSH2S3CHFeS2H2FeSCSFeS2FeS2FeSFeS3FeS2FeS2FeSFeS3HCHCFeCFeSFeS3CFeS2FeS2FeSFeS3HC3HC4H4C2HSC6H4C6H4C2H2C6H3C6H4C6H5SHC6H4C6H4NCHFeCH2C3FeHCH3C2FeNH5CHCSFeHFeCHCNC2HFeCSH4CHSN2CSCHCH2CH3C2SHS2HS2HSCS2H2NC6H8SHC3NC2NHC2H5NC6H6CHNC6H5CH2C2SHCHFeH5C2H2CHC2HCHC2HC3HNCHFeHCHCHCHSHCH2C3FeHSH3C2HC3HSHCHS2CHSC2HS2HNHFeC2HNSHCS2HFeSCFeS2FeSHFeSFeS3FeSCH2FeSFeH2CH2SC6H5CHC2HCHCHC6H5NFeSHCSC2HSC3FeCHSH2SC6H4FeHSHC4HC2SH2C3H2CHC2H2C2HCH2CH3CH4CH2CHC2HCH4SNH3Fe2CFeCH2C2HNC6H8C2H2C2HCS2CSFeC3FeCHC2NH3C3NHCH2CSHCFeH3C3H2CFeHS2HFeSHSFeS2FeSHSHNC3HC2SCS3FeS2FeS2FeSFeCS3C3H2FeS2H3FeSCSHCH2SHFeHC2SC6H4C5HC6H5CH2CSH2SHCH2CHC3H3C2NC2SHC3HCH2C6H4NCH2CHC2SCHCHCHCSH2CHFeCFeHCH2CH3FeC2H2SH3CHSC2NH3NCHC3H3CH4NH2FeC2H4FeCFeC4H2CFeHCHCHNC5H3C2HFe2S2FeS2FeSFeS3FeSFeCSFeSHSHCHCHFeS2FeS2FeS2FeSFeS3C2HFeS2FeSCH2FeS3H3FeS2H2FeSCSCHSHCH2C5NH2SH3C5SHC6H4C6H4C6H5CNH2C6H2C6H2CHC6H4C3H2NHCHC7SH3C2NCH2CH2CH4CHSCH2C4H5CHC3H2NC6H4CHCHNC6H8CHCNCHC2H2SH2NC2H2SH3SFeH2CHCNH2C2SHCSHC3HCH2Fe2HNC3HCHC2H3C2HNHC2HCH2CHCH4CHCHC2HSH2SHC2H2CH2CHSCHCH2CH3SC2HCH2C2HCHCHCSNC3NH2CH2FeS2FeS2FeHFeS3FeS2FeS2FeSFeS3FeHSHCHSC2HCHCHC6H4C6H4C5H5SCH4C6H4C3NHC2HCH2CH2C2H4CSC3SHC2H3CHC2HC3HCHNC6H3CH3NC5H3C3NHCH3CHCH2C2H3CH5SCFeS2FeS2FeSFeS3FeS2FeS2FeSFeS3C2HCHNCHFeSCFeS2FeSFeHSCFeS2FeS2FeSFeS3H2FeS2FeSFe2SFeS3FeS2FeSFeSFe2S2H2CHS2CHC3H3C3H3CH2C3H3C3H2C6H4C2SC2HC6H4SC3SCH3C7H4C6H3C3HC2H2CHC6H4C6H4CHC6H4C6H4C2H3C2HSC2H2NC6H9CSCHC2HC2H2CFeHCH3C3H2C3HFeC2H7CFeCHC3NC6H7NC6H8CH2CSCHSH2NC6H7SCH2CH4C2HNC4HC2H3NH2C2NCN2C2H2CNH5CH5SN2C2SC2HC3H2C2H2CHC3HCHC2HSC2H7CH3NHC2SH3FeNS2FeS2FeS2FeSFeS3HCHCNH2SHFeS2FeSNFeSFeS3CSHSCFeHFeSHSH4CHSHCHCNHC2HC3SHC7H4CFeH3CHC2HC6H5CHSNHC2HC2HCFeH3NC3HC2H3C6H4C6H4C6H4CHCSNC6H8SC4HCH2CH3CHC3H4NC2HCHSH3FeC2H2C6HS2HCHFeCH2FeHCH2SH2C2FeC2H3C2H2C2H2SH3C2SC2H4SC3SH3SFeSHFeS2FeSFeS3FeS2FeS2FeSFeS3HCH4CSHCFeHNC4H5C4HC4HCNSC6H4C6H4FeCHC6H4CSC4H2NHCHNCNH2CH3CHNC2H6C2HCH2CH2CH2C3HCHC6H2SH2CHC3H3C2HC2HC2H2CHCHCH2CH2NC2NC2H3C
_chemical_formula_sum              "Fe480 S960 C2880 H2880 N240"
_cell_length_a       78.5044
_cell_length_b       78.6238
_cell_length_c       78.8153
_cell_angle_alpha    75.1694
_cell_angle_beta     74.9986
_cell_angle_gamma    75.2026

_space_group_name_H-M_alt    "P 1"
_space_group_IT_number       1

loop_
  _space_group_symop_operation_xyz
  'x, y, z'

loop_
  _atom_site_type_symbol
  _atom_site_label
  _atom_site_symmetry_multiplicity
  _atom_site_fract_x
  _atom_site_fract_y
  _atom_site_fract_z
  _atom_site_occupancy
  Fe  Fe1       1.0  0.42402  0.14548  0.11432  1.0000
  S   S1        1.0  0.41483  0.13793  0.09307  1.0000
  S   S2        1.0  0.45299  0.14498  0.11353  1.0000
  Fe  Fe2       1.0  0.38788  0.14438  0.14062  1.0000
  S   S3        1.0  0.37552  0.13730  0.12141  1.0000
  S   S4        1.0  0.37289  0.14580  0.16899  1.0000
  Fe  Fe3       1.0  0.40182  0.11809  0.11534  1.0000
  S   S5        1.0  0.40453  0.08808  0.11992  1.0000
  Fe  Fe4       1.0  0.38937  0.15797  0.10095  1.0000
  S   S6        1.0  0.37678  0.17728  0.07877  1.0000
  S   S7        1.0  0.41328  0.12406  0.13582  1.0000
  S   S8        1.0  0.39960  0.16682  0.12077  1.0000
  Fe  Fe5       1.0  0.34880  0.30363  0.02546  1.0000
  C   C1        1.0  0.47275  0.19756  0.10062  1.0000
  S   S9        1.0  0.31224  0.27206  0.00620  1.0000
  Fe  Fe6       1.0  0.43278  0.01870  0.06346  1.0000
  S   S10       1.0  0.45644  0.01569  0.07564  1.0000
  S   S11       1.0  0.41582  0.04647  0.05765  1.0000
  C   C2        1.0  0.42171  0.15579  0.16045  1.0000
  Fe  Fe7       1.0  0.33513  0.27710  0.05870  1.0000
  C   C3        1.0  0.14337  0.30312  0.22297  1.0000
  H   H1        1.0  0.26060  0.29846  0.13510  1.0000
  C   C4        1.0  0.47149  0.07248  0.07216  1.0000
  H   H2        1.0  0.40327  0.01174  0.11321  1.0000
  S   S12       1.0  0.30684  0.28408  0.05409  1.0000
  S   S13       1.0  0.34289  0.25852  0.08376  1.0000
  Fe  Fe8       1.0  0.47125  0.99839  0.05567  1.0000
  C   C5        1.0  0.42738  0.10175  0.18933  1.0000
  S   S14       1.0  0.48059  0.21766  0.09547  1.0000
  H   H3        1.0  0.27489  0.30439  0.07492  1.0000
  C   C6        1.0  0.39490  0.22964  0.05248  1.0000
  C   C7        1.0  0.30655  0.29424  0.10197  1.0000
  Fe  Fe9       1.0  0.31046  0.31260  0.04750  1.0000
  C   C8        1.0  0.47396  0.24643  0.05295  1.0000
  Fe  Fe10      1.0  0.32027  0.28410  0.02518  1.0000
  S   S15       1.0  0.33786  0.30579  0.05423  1.0000
  C   C9        1.0  0.15175  0.28985  0.21289  1.0000
  C   C10       1.0  0.16070  0.29473  0.19506  1.0000
  C   C11       1.0  0.47829  0.16502  0.10773  1.0000
  H   H4        1.0  0.39261  0.20044  0.04171  1.0000
  H   H5        1.0  0.41464  0.19200  0.07752  1.0000
  C   C12       1.0  0.16155  0.31276  0.18738  1.0000
  H   H6        1.0  0.16719  0.28449  0.18721  1.0000
  C   C13       1.0  0.09918  0.24415  0.22332  1.0000
  C   C14       1.0  0.45468  0.07441  0.06821  1.0000
  C   C15       1.0  0.37054  0.07221  0.15690  1.0000
  C   C16       1.0  0.36185  0.09022  0.15401  1.0000
  N   N1        1.0  0.42382  0.13713  0.17042  1.0000
  S   S16       1.0  0.37658  0.06894  0.21983  1.0000
  H   H7        1.0  0.33167  0.10787  0.19779  1.0000
  H   H8        1.0  0.37328  0.04719  0.17620  1.0000
  H   H9        1.0  0.40774  0.30035  0.05266  1.0000
  H   H10       1.0  0.40728  0.16162  0.16008  1.0000
  H   H11       1.0  0.24948  0.31006  0.05459  1.0000
  H   H12       1.0  0.34275  0.11109  0.16580  1.0000
  H   H13       1.0  0.35088  0.05973  0.20061  1.0000
  C   C17       1.0  0.44820  0.18195  0.10566  1.0000
  C   C18       1.0  0.28279  0.28031  0.12214  1.0000
  S   S17       1.0  0.15197  0.26698  0.22226  1.0000
  H   H14       1.0  0.44528  0.21083  0.09964  1.0000
  C   C19       1.0  0.46684  0.04985  0.03048  1.0000
  H   H15       1.0  0.41032  0.02191  0.13740  1.0000
  C   C20       1.0  0.47498  0.27939  0.00926  1.0000
  C   C21       1.0  0.48512  0.05657  0.04796  1.0000
  H   H16       1.0  0.40990  0.18544  0.05204  1.0000
  C   C22       1.0  0.33214  0.09332  0.19923  1.0000
  H   H17       1.0  0.24870  0.30014  0.10000  1.0000
  S   S18       1.0  0.44174  0.31007  0.03471  1.0000
  C   C23       1.0  0.36550  0.19923  0.08137  1.0000
  C   C24       1.0  0.36483  0.20551  0.09666  1.0000
  C   C25       1.0  0.35732  0.22362  0.09752  1.0000
  C   C26       1.0  0.35052  0.23553  0.08309  1.0000
  C   C27       1.0  0.35069  0.22913  0.06804  1.0000
  C   C28       1.0  0.35810  0.21102  0.06723  1.0000
  H   H18       1.0  0.37031  0.19651  0.10770  1.0000
  H   H19       1.0  0.35711  0.22847  0.10925  1.0000
  H   H20       1.0  0.34525  0.23814  0.05695  1.0000
  H   H21       1.0  0.35833  0.20618  0.05548  1.0000
  C   C29       1.0  0.37476  0.09054  0.20628  1.0000
  C   C30       1.0  0.36454  0.10584  0.21273  1.0000
  C   C31       1.0  0.36377  0.12287  0.20121  1.0000
  C   C32       1.0  0.37281  0.12449  0.18318  1.0000
  C   C33       1.0  0.38247  0.10906  0.17677  1.0000
  C   C34       1.0  0.38384  0.09225  0.18835  1.0000
  C   C35       1.0  0.39767  0.23572  0.08003  1.0000
  H   H22       1.0  0.35622  0.13477  0.20628  1.0000
  H   H23       1.0  0.38889  0.10994  0.16287  1.0000
  H   H24       1.0  0.39168  0.08045  0.18326  1.0000
  C   C36       1.0  0.40723  0.07702  0.10236  1.0000
  C   C37       1.0  0.40269  0.08616  0.08591  1.0000
  C   C38       1.0  0.40477  0.07661  0.07239  1.0000
  C   C39       1.0  0.41167  0.05802  0.07520  1.0000
  C   C40       1.0  0.41628  0.04898  0.09163  1.0000
  C   C41       1.0  0.41393  0.05843  0.10520  1.0000
  H   H25       1.0  0.39739  0.10049  0.08369  1.0000
  H   H26       1.0  0.40121  0.08367  0.05968  1.0000
  H   H27       1.0  0.42169  0.03469  0.09389  1.0000
  H   H28       1.0  0.41759  0.05136  0.11785  1.0000
  C   C42       1.0  0.46015  0.16543  0.10861  1.0000
  C   C43       1.0  0.45449  0.19803  0.10180  1.0000
  H   H29       1.0  0.33574  0.08653  0.21244  1.0000
  S   S19       1.0  0.32166  0.31318  0.01814  1.0000
  H   H30       1.0  0.38501  0.25551  0.06007  1.0000
  C   C44       1.0  0.40432  0.01020  0.14058  1.0000
  H   H31       1.0  0.48763  0.21869  0.05735  1.0000
  C   C45       1.0  0.18627  0.29953  0.22492  1.0000
  H   H32       1.0  0.27694  0.26853  0.12833  1.0000
  C   C46       1.0  0.40765  0.30480  0.03850  1.0000
  H   H33       1.0  0.38061  0.06695  0.14615  1.0000
  H   H34       1.0  0.47636  0.29079  0.01436  1.0000
  H   H35       1.0  0.40041  0.14284  0.19068  1.0000
  N   N2        1.0  0.46851  0.05786  0.04470  1.0000
  C   C47       1.0  0.41173  0.13272  0.18597  1.0000
  C   C48       1.0  0.40861  0.20604  0.07338  1.0000
  H   H36       1.0  0.39507  0.24486  0.08907  1.0000
  H   H37       1.0  0.28720  0.30522  0.01234  1.0000
  C   C49       1.0  0.24184  0.30312  0.03334  1.0000
  S   S20       1.0  0.42267  0.99502  0.08224  1.0000
  H   H38       1.0  0.47256  0.07780  0.08317  1.0000
  H   H39       1.0  0.39006  0.23429  0.04005  1.0000
  H   H40       1.0  0.44049  0.06904  0.05089  1.0000
  H   H41       1.0  0.44261  0.08130  0.07605  1.0000
  C   C50       1.0  0.48491  0.23096  0.04749  1.0000
  C   C51       1.0  0.43991  0.10644  0.17368  1.0000
  C   C52       1.0  0.22991  0.30798  0.02169  1.0000
  C   C53       1.0  0.40047  0.00441  0.12694  1.0000
  Fe  Fe11      1.0  0.44756  0.99065  0.09290  1.0000
  C   C54       1.0  0.43803  0.12435  0.16444  1.0000
  H   H42       1.0  0.19170  0.29391  0.21294  1.0000
  C   C55       1.0  0.39180  0.31176  0.01408  1.0000
  N   N3        1.0  0.29737  0.31066  0.10558  1.0000
  C   C56       1.0  0.29444  0.28526  0.99602  1.0000
  C   C57       1.0  0.41333  0.11499  0.19566  1.0000
  C   C58       1.0  0.11028  0.25622  0.22130  1.0000
  C   C59       1.0  0.47081  0.26223  0.04012  1.0000
  C   C60       1.0  0.40606  0.21779  0.08491  1.0000
  H   H43       1.0  0.31859  0.09134  0.19940  1.0000
  S   S21       1.0  0.37214  0.31446  0.00605  1.0000
  H   H44       1.0  0.48743  0.15227  0.11049  1.0000
  C   C61       1.0  0.35444  0.99461  0.21643  1.0000
  C   C62       1.0  0.26657  0.31577  0.08039  1.0000
  H   H45       1.0  0.45085  0.09624  0.16858  1.0000
  H   H46       1.0  0.48474  0.27917  0.99622  1.0000
  C   C63       1.0  0.39208  0.24173  0.06371  1.0000
  S   S22       1.0  0.34833  0.27439  0.03039  1.0000
  C   C64       1.0  0.28130  0.31215  0.11769  1.0000
  H   H47       1.0  0.46235  0.27426  0.04446  1.0000
  H   H48       1.0  0.36523  0.09895  0.14104  1.0000
  H   H49       1.0  0.43418  0.18232  0.10644  1.0000
  H   H50       1.0  0.47756  0.03765  0.02889  1.0000
  N   N4        1.0  0.34544  0.08609  0.18461  1.0000
  H   H51       1.0  0.31947  0.29293  0.09268  1.0000
  H   H52       1.0  0.42680  0.16394  0.16691  1.0000
  C   C65       1.0  0.28415  0.30095  0.00165  1.0000
  C   C66       1.0  0.36643  0.06115  0.17370  1.0000
  H   H53       1.0  0.45373  0.04546  0.03381  1.0000
  C   C67       1.0  0.48464  0.18103  0.10351  1.0000
  C   C68       1.0  0.42288  0.31015  0.02649  1.0000
  H   H54       1.0  0.42921  0.15673  0.14628  1.0000
  H   H55       1.0  0.42840  0.08787  0.19648  1.0000
  H   H56       1.0  0.46815  0.24622  0.06707  1.0000
  C   C69       1.0  0.34916  0.09697  0.16807  1.0000
  C   C70       1.0  0.35369  0.06833  0.18746  1.0000
  H   H57       1.0  0.44771  0.12786  0.15215  1.0000
  H   H58       1.0  0.30662  0.26592  0.10693  1.0000
  H   H59       1.0  0.35555  0.00357  0.20343  1.0000
  C   C71       1.0  0.39210  0.30567  0.03233  1.0000
  S   S23       1.0  0.44815  0.00315  0.04197  1.0000
  C   C72       1.0  0.26952  0.31085  0.99378  1.0000
  H   H60       1.0  0.41580  0.20307  0.03313  1.0000
  N   N5        1.0  0.40296  0.21203  0.05744  1.0000
  H   H61       1.0  0.46776  0.05974  0.01757  1.0000
  C   C73       1.0  0.40556  0.19967  0.04543  1.0000
  C   C74       1.0  0.24011  0.31386  0.04562  1.0000
  H   H62       1.0  0.23125  0.29990  0.01191  1.0000
  C   C75       1.0  0.27372  0.29704  0.12607  1.0000
  H   H63       1.0  0.41013  0.21289  0.09773  1.0000
  H   H64       1.0  0.38027  0.30191  0.04171  1.0000
  C   C76       1.0  0.45350  0.06722  0.05415  1.0000
  C   C77       1.0  0.25172  0.31340  0.09458  1.0000
  H   H65       1.0  0.06580  0.23652  0.22275  1.0000
  H   H66       1.0  0.10417  0.23308  0.21630  1.0000
  C   C78       1.0  0.42269  0.31582  0.00820  1.0000
  H   H67       1.0  0.46106  0.28201  0.00699  1.0000
  N   N6        1.0  0.47845  0.26261  0.02236  1.0000
  C   C79       1.0  0.29936  0.27886  0.11008  1.0000
  H   H68       1.0  0.25251  0.29123  0.03266  1.0000
  H   H69       1.0  0.40337  0.11145  0.20769  1.0000
  H   H70       1.0  0.40385  0.00490  0.16891  1.0000
  C   C80       1.0  0.48900  0.24742  0.01685  1.0000
  H   H71       1.0  0.16869  0.31637  0.17370  1.0000
  H   H72       1.0  0.35754  0.10460  0.22663  1.0000
  C   C81       1.0  0.40082  0.00059  0.15821  1.0000
  C   C82       1.0  0.39368  0.98870  0.13103  1.0000
  H   H73       1.0  0.12375  0.25449  0.21297  1.0000
  C   C83       1.0  0.29048  0.27990  0.98208  1.0000
  H   H74       1.0  0.35248  0.30264  0.98474  1.0000
  C   C84       1.0  0.40722  0.31655  0.00202  1.0000
  N   N7        1.0  0.18523  0.31734  0.22415  1.0000
  H   H75       1.0  0.48557  0.98582  0.01281  1.0000
  C   C85       1.0  0.48687  0.06373  0.06182  1.0000
  C   C86       1.0  0.39369  0.98513  0.16188  1.0000
  H   H76       1.0  0.11260  0.27980  0.22901  1.0000
  C   C87       1.0  0.26528  0.30518  0.98017  1.0000
  H   H77       1.0  0.00798  0.08158  0.36954  1.0000
  H   H78       1.0  0.13273  0.30168  0.27379  1.0000
  C   C88       1.0  0.17159  0.31369  0.25557  1.0000
  S   S24       1.0  0.45103  0.07436  0.44351  1.0000
  H   H79       1.0  0.07012  0.08972  0.41524  1.0000
  C   C89       1.0  0.09656  0.19694  0.31815  1.0000
  Fe  Fe12      1.0  0.20053  0.08560  0.38268  1.0000
  S   S25       1.0  0.21943  0.07256  0.36094  1.0000
  S   S26       1.0  0.20315  0.07266  0.41115  1.0000
  Fe  Fe13      1.0  0.18072  0.11411  0.35630  1.0000
  S   S27       1.0  0.19829  0.10355  0.33222  1.0000
  S   S28       1.0  0.15755  0.13812  0.35614  1.0000
  Fe  Fe14      1.0  0.19507  0.07653  0.34947  1.0000
  S   S29       1.0  0.19339  0.05389  0.33789  1.0000
  Fe  Fe15      1.0  0.22102  0.10047  0.34580  1.0000
  S   S30       1.0  0.24848  0.10655  0.33285  1.0000
  S   S31       1.0  0.17580  0.08714  0.37259  1.0000
  S   S32       1.0  0.20387  0.11349  0.36846  1.0000
  Fe  Fe16      1.0  0.09423  0.04377  0.36920  1.0000
  S   S33       1.0  0.09375  0.06610  0.38215  1.0000
  S   S34       1.0  0.12032  0.02590  0.35937  1.0000
  Fe  Fe17      1.0  0.05331  0.04948  0.37602  1.0000
  S   S35       1.0  0.04980  0.07205  0.39013  1.0000
  S   S36       1.0  0.02709  0.04289  0.37507  1.0000
  Fe  Fe18      1.0  0.07164  0.08108  0.36755  1.0000
  S   S37       1.0  0.07119  0.10957  0.35245  1.0000
  Fe  Fe19      1.0  0.07222  0.05487  0.40339  1.0000
  S   S38       1.0  0.07120  0.05136  0.43296  1.0000
  S   S39       1.0  0.07394  0.05964  0.35252  1.0000
  S   S40       1.0  0.07386  0.03138  0.39143  1.0000
  Fe  Fe20      1.0  0.34370  0.02791  0.26533  1.0000
  S   S41       1.0  0.36570  0.04036  0.26705  1.0000
  Fe  Fe21      1.0  0.31663  0.06370  0.26295  1.0000
  S   S42       1.0  0.33665  0.07934  0.26357  1.0000
  S   S43       1.0  0.28731  0.07542  0.26287  1.0000
  Fe  Fe22      1.0  0.34449  0.05609  0.28551  1.0000
  S   S44       1.0  0.34419  0.05916  0.31321  1.0000
  S   S45       1.0  0.32331  0.04155  0.28589  1.0000
  N   N8        1.0  0.39504  0.99698  0.31913  1.0000
  C   C90       1.0  0.99822  0.26334  0.33387  1.0000
  Fe  Fe23      1.0  0.40788  0.01165  0.41103  1.0000
  S   S46       1.0  0.39278  0.03441  0.39323  1.0000
  S   S47       1.0  0.41759  0.01248  0.43537  1.0000
  Fe  Fe24      1.0  0.37295  0.01657  0.39889  1.0000
  S   S48       1.0  0.34305  0.02667  0.40168  1.0000
  Fe  Fe25      1.0  0.40753  0.01894  0.37151  1.0000
  S   S49       1.0  0.41618  0.03078  0.34229  1.0000
  S   S50       1.0  0.00593  0.27249  0.34789  1.0000
  C   C91       1.0  0.41167  0.99351  0.32574  1.0000
  Fe  Fe26      1.0  0.10860  0.24829  0.28016  1.0000
  S   S51       1.0  0.12422  0.23777  0.30205  1.0000
  S   S52       1.0  0.07872  0.25012  0.28671  1.0000
  Fe  Fe27      1.0  0.14097  0.25834  0.25179  1.0000
  S   S53       1.0  0.15930  0.24872  0.27138  1.0000
  Fe  Fe28      1.0  0.14575  0.22503  0.28150  1.0000
  S   S54       1.0  0.16227  0.19674  0.28425  1.0000
  Fe  Fe29      1.0  0.13606  0.26242  0.28988  1.0000
  S   S55       1.0  0.12911  0.23366  0.26038  1.0000
  S   S56       1.0  0.11872  0.27393  0.26948  1.0000
  H   H80       1.0  0.07826  0.11155  0.38537  1.0000
  C   C92       1.0  0.10631  0.04235  0.46549  1.0000
  H   H81       1.0  0.17784  0.08451  0.44479  1.0000
  H   H82       1.0  0.16025  0.07401  0.46083  1.0000
  H   H83       1.0  0.11851  0.00402  0.45386  1.0000
  S   S57       1.0  0.42464  0.99764  0.38871  1.0000
  C   C93       1.0  0.38491  0.06274  0.46766  1.0000
  S   S58       1.0  0.26084  0.09554  0.43942  1.0000
  C   C94       1.0  0.12352  0.10725  0.37819  1.0000
  C   C95       1.0  0.03054  0.08512  0.33831  1.0000
  C   C96       1.0  0.07830  0.09681  0.41962  1.0000
  H   H84       1.0  0.06283  0.26170  0.25165  1.0000
  H   H85       1.0  0.18116  0.03656  0.45121  1.0000
  S   S59       1.0  0.01330  0.16275  0.28560  1.0000
  H   H86       1.0  0.02146  0.24179  0.33141  1.0000
  C   C97       1.0  0.12583  0.09948  0.39568  1.0000
  H   H87       1.0  0.13917  0.09613  0.39870  1.0000
  Fe  Fe30      1.0  0.02605  0.18587  0.28360  1.0000
  S   S60       1.0  0.05601  0.18323  0.27539  1.0000
  S   S61       1.0  0.01212  0.19113  0.31095  1.0000
  H   H88       1.0  0.09024  0.14450  0.31798  1.0000
  H   H89       1.0  0.03619  0.07435  0.34823  1.0000
  H   H90       1.0  0.13505  0.10997  0.36755  1.0000
  C   C98       1.0  0.07248  0.23166  0.28321  1.0000
  C   C99       1.0  0.08556  0.21739  0.27740  1.0000
  C   C100      1.0  0.08042  0.20268  0.27464  1.0000
  C   C101      1.0  0.06218  0.20217  0.27781  1.0000
  C   C102      1.0  0.04906  0.21649  0.28350  1.0000
  C   C103      1.0  0.05421  0.23123  0.28621  1.0000
  H   H91       1.0  0.09964  0.21745  0.27540  1.0000
  H   H92       1.0  0.09059  0.19157  0.27032  1.0000
  H   H93       1.0  0.03493  0.21623  0.28584  1.0000
  H   H94       1.0  0.04403  0.24225  0.29073  1.0000
  C   C104      1.0  0.36349  0.01001  0.32145  1.0000
  C   C105      1.0  0.33150  0.02482  0.42404  1.0000
  C   C106      1.0  0.34085  0.01911  0.43804  1.0000
  C   C107      1.0  0.33136  0.01663  0.45590  1.0000
  C   C108      1.0  0.31252  0.02027  0.45971  1.0000
  C   C109      1.0  0.30316  0.02655  0.44572  1.0000
  C   C110      1.0  0.31266  0.02857  0.42788  1.0000
  H   H95       1.0  0.35536  0.01661  0.43517  1.0000
  H   H96       1.0  0.08502  0.01372  0.42610  1.0000
  H   H97       1.0  0.28858  0.02950  0.44869  1.0000
  H   H98       1.0  0.30540  0.03294  0.41707  1.0000
  C   C111      1.0  0.36470  0.05294  0.32041  1.0000
  C   C112      1.0  0.36425  0.05087  0.33867  1.0000
  C   C113      1.0  0.38016  0.04469  0.34522  1.0000
  C   C114      1.0  0.39669  0.04067  0.33353  1.0000
  C   C115      1.0  0.39728  0.04326  0.31512  1.0000
  C   C116      1.0  0.38125  0.04925  0.30856  1.0000
  H   H99       1.0  0.35155  0.05369  0.34790  1.0000
  H   H100      1.0  0.37957  0.04292  0.35939  1.0000
  H   H101      1.0  0.41005  0.04023  0.30601  1.0000
  H   H102      1.0  0.38168  0.05094  0.29441  1.0000
  C   C117      1.0  0.02322  0.03668  0.35659  1.0000
  C   C118      1.0  0.03642  0.03542  0.34094  1.0000
  C   C119      1.0  0.03281  0.03023  0.32662  1.0000
  C   C120      1.0  0.01602  0.02624  0.32784  1.0000
  C   C121      1.0  0.00272  0.02780  0.34337  1.0000
  C   C122      1.0  0.00633  0.03299  0.35768  1.0000
  H   H103      1.0  0.04949  0.03821  0.33995  1.0000
  H   H104      1.0  0.04317  0.02904  0.31463  1.0000
  H   H105      1.0  0.42674  0.01931  0.46511  1.0000
  S   S62       1.0  0.38667  0.99496  0.41839  1.0000
  C   C123      1.0  0.09104  0.04919  0.44053  1.0000
  C   C124      1.0  0.10710  0.05217  0.42855  1.0000
  C   C125      1.0  0.12264  0.05048  0.43506  1.0000
  S   S63       1.0  0.01252  0.01843  0.31014  1.0000
  C   C126      1.0  0.09068  0.04439  0.45901  1.0000
  H   H106      1.0  0.10761  0.05570  0.41430  1.0000
  H   H107      1.0  0.13505  0.05272  0.42571  1.0000
  C   C127      1.0  0.20871  0.05029  0.47767  1.0000
  C   C128      1.0  0.04968  0.12073  0.34869  1.0000
  C   C129      1.0  0.04806  0.13413  0.33330  1.0000
  C   C130      1.0  0.03101  0.14289  0.32985  1.0000
  C   C131      1.0  0.01549  0.13840  0.34188  1.0000
  C   C132      1.0  0.01708  0.12521  0.35744  1.0000
  C   C133      1.0  0.03417  0.11633  0.36079  1.0000
  H   H108      1.0  0.05997  0.13742  0.32379  1.0000
  H   H109      1.0  0.02994  0.15288  0.31770  1.0000
  H   H110      1.0  0.00511  0.12182  0.36685  1.0000
  H   H111      1.0  0.03526  0.10633  0.37290  1.0000
  C   C134      1.0  0.27647  0.08470  0.28193  1.0000
  C   C135      1.0  0.25760  0.08892  0.28652  1.0000
  C   C136      1.0  0.24886  0.09538  0.30229  1.0000
  C   C137      1.0  0.25899  0.09815  0.31321  1.0000
  C   C138      1.0  0.27782  0.09437  0.30836  1.0000
  C   C139      1.0  0.28654  0.08734  0.29296  1.0000
  H   H112      1.0  0.24977  0.08692  0.27800  1.0000
  H   H113      1.0  0.23432  0.09839  0.30586  1.0000
  H   H114      1.0  0.28574  0.09675  0.31655  1.0000
  H   H115      1.0  0.30108  0.08415  0.28954  1.0000
  C   C140      1.0  0.15728  0.15400  0.33585  1.0000
  C   C141      1.0  0.16737  0.14951  0.31964  1.0000
  C   C142      1.0  0.16793  0.16260  0.30374  1.0000
  C   C143      1.0  0.15870  0.18036  0.30398  1.0000
  C   C144      1.0  0.14819  0.18482  0.32010  1.0000
  C   C145      1.0  0.14735  0.17159  0.33600  1.0000
  H   H116      1.0  0.17478  0.13597  0.31929  1.0000
  H   H117      1.0  0.17601  0.15906  0.29128  1.0000
  H   H118      1.0  0.14122  0.19854  0.32044  1.0000
  H   H119      1.0  0.13953  0.17514  0.34854  1.0000
  C   C146      1.0  0.17273  0.04681  0.34396  1.0000
  C   C147      1.0  0.15674  0.05748  0.35148  1.0000
  C   C148      1.0  0.14043  0.05144  0.35589  1.0000
  C   C149      1.0  0.14014  0.03463  0.35303  1.0000
  C   C150      1.0  0.15618  0.02402  0.34561  1.0000
  C   C151      1.0  0.17236  0.03015  0.34094  1.0000
  H   H120      1.0  0.15689  0.07048  0.35361  1.0000
  H   H121      1.0  0.12816  0.05983  0.36140  1.0000
  H   H122      1.0  0.15608  0.01103  0.34337  1.0000
  H   H123      1.0  0.18466  0.02187  0.33509  1.0000
  C   C152      1.0  0.21962  0.07888  0.41845  1.0000
  C   C153      1.0  0.22412  0.09577  0.41148  1.0000
  C   C154      1.0  0.23664  0.10080  0.41815  1.0000
  C   C155      1.0  0.24479  0.08897  0.43176  1.0000
  C   C156      1.0  0.24056  0.07193  0.43843  1.0000
  C   C157      1.0  0.22796  0.06695  0.43185  1.0000
  H   H124      1.0  0.21767  0.10512  0.40125  1.0000
  H   H125      1.0  0.23991  0.11397  0.41286  1.0000
  H   H126      1.0  0.24726  0.06244  0.44836  1.0000
  H   H127      1.0  0.22488  0.05370  0.43693  1.0000
  C   C158      1.0  0.43961  0.05841  0.44183  1.0000
  C   C159      1.0  0.43492  0.05928  0.42555  1.0000
  C   C160      1.0  0.42749  0.04560  0.42345  1.0000
  C   C161      1.0  0.42481  0.03101  0.43764  1.0000
  C   C162      1.0  0.42887  0.03054  0.45406  1.0000
  C   C163      1.0  0.43620  0.04417  0.45615  1.0000
  H   H128      1.0  0.43746  0.07030  0.41439  1.0000
  H   H129      1.0  0.42434  0.04608  0.41073  1.0000
  C   C164      1.0  0.20126  0.02731  0.46731  1.0000
  C   C165      1.0  0.47532  0.00780  0.46855  1.0000
  H   H130      1.0  0.07550  0.21858  0.32667  1.0000
  N   N9        1.0  0.24169  0.04964  0.30256  1.0000
  C   C166      1.0  0.24211  0.05298  0.31863  1.0000
  C   C167      1.0  0.25733  0.04354  0.29135  1.0000
  C   C168      1.0  0.25852  0.05085  0.32358  1.0000
  C   C169      1.0  0.27396  0.04102  0.29599  1.0000
  C   C170      1.0  0.27455  0.04490  0.31211  1.0000
  C   C171      1.0  0.22428  0.05216  0.29769  1.0000
  C   C172      1.0  0.35083  0.98984  0.24877  1.0000
  H   H131      1.0  0.25711  0.04098  0.27854  1.0000
  H   H132      1.0  0.25878  0.05419  0.33604  1.0000
  H   H133      1.0  0.28633  0.03678  0.28674  1.0000
  H   H134      1.0  0.28742  0.04367  0.31550  1.0000
  H   H135      1.0  0.21757  0.04082  0.30536  1.0000
  H   H136      1.0  0.35119  0.01761  0.32826  1.0000
  H   H137      1.0  0.21529  0.06483  0.30103  1.0000
  H   H138      1.0  0.06980  0.10966  0.42287  1.0000
  H   H139      1.0  0.11438  0.17407  0.30873  1.0000
  H   H140      1.0  0.99706  0.07306  0.35695  1.0000
  H   H141      1.0  0.10740  0.20320  0.31809  1.0000
  C   C173      1.0  0.09089  0.15584  0.30618  1.0000
  C   C174      1.0  0.10040  0.18050  0.31276  1.0000
  C   C175      1.0  0.10404  0.27044  0.23035  1.0000
  C   C176      1.0  0.00086  0.08529  0.35820  1.0000
  C   C177      1.0  0.36384  0.00486  0.30570  1.0000
  H   H142      1.0  0.19437  0.07712  0.46942  1.0000
  H   H143      1.0  0.07377  0.28220  0.31357  1.0000
  H   H144      1.0  0.08798  0.30726  0.31277  1.0000
  C   C178      1.0  0.10631  0.11158  0.37447  1.0000
  C   C179      1.0  0.18894  0.04051  0.45854  1.0000
  H   H145      1.0  0.11277  0.08999  0.42278  1.0000
  C   C180      1.0  0.37995  0.99591  0.29659  1.0000
  C   C181      1.0  0.07865  0.20549  0.32312  1.0000
  H   H146      1.0  0.18005  0.27444  0.24135  1.0000
  C   C182      1.0  0.19622  0.06314  0.46881  1.0000
  H   H147      1.0  0.03804  0.98984  0.33163  1.0000
  C   C183      1.0  0.00523  0.10567  0.32877  1.0000
  H   H148      1.0  0.07829  0.21959  0.23788  1.0000
  H   H149      1.0  0.05832  0.17492  0.31697  1.0000
  C   C184      1.0  0.37931  0.00593  0.32802  1.0000
  S   S64       1.0  0.14237  0.04217  0.46111  1.0000
  H   H150      1.0  0.05087  0.20409  0.32643  1.0000
  H   H151      1.0  0.01047  0.12350  0.30302  1.0000
  N   N10       1.0  0.18664  0.05817  0.45929  1.0000
  S   S65       1.0  0.99227  0.31347  0.37161  1.0000
  S   S66       1.0  0.47964  0.07963  0.47633  1.0000
  C   C185      1.0  0.09161  0.10814  0.38836  1.0000
  Fe  Fe31      1.0  0.45454  0.07508  0.47094  1.0000
  H   H152      1.0  0.10433  0.11745  0.36090  1.0000
  C   C186      1.0  0.11903  0.01169  0.40978  1.0000
  H   H153      1.0  0.17024  0.06728  0.43964  1.0000
  C   C187      1.0  0.03655  0.31156  0.32937  1.0000
  N   N11       1.0  0.08674  0.17290  0.31216  1.0000
  H   H154      1.0  0.04346  0.11114  0.29750  1.0000
  C   C188      1.0  0.06483  0.19738  0.32297  1.0000
  H   H155      1.0  0.48931  0.02679  0.41227  1.0000
  C   C189      1.0  0.07607  0.26017  0.24290  1.0000
  H   H156      1.0  0.00971  0.22771  0.31317  1.0000
  N   N12       1.0  0.29921  0.07617  0.39416  1.0000
  C   C190      1.0  0.31206  0.06883  0.38112  1.0000
  C   C191      1.0  0.28280  0.08555  0.39070  1.0000
  C   C192      1.0  0.30860  0.07087  0.36406  1.0000
  C   C193      1.0  0.27882  0.08773  0.37386  1.0000
  C   C194      1.0  0.29185  0.08036  0.36046  1.0000
  C   C195      1.0  0.30282  0.07422  0.41199  1.0000
  H   H157      1.0  0.32512  0.06138  0.38380  1.0000
  H   H158      1.0  0.27274  0.09147  0.40100  1.0000
  C   C196      1.0  0.07076  0.23373  0.23536  1.0000
  H   H159      1.0  0.26575  0.09514  0.37116  1.0000
  H   H160      1.0  0.28896  0.08208  0.34731  1.0000
  H   H161      1.0  0.29287  0.06733  0.42246  1.0000
  H   H162      1.0  0.31653  0.06627  0.41321  1.0000
  H   H163      1.0  0.30156  0.08766  0.41489  1.0000
  H   H164      1.0  0.22574  0.05304  0.28311  1.0000
  H   H165      1.0  0.35225  0.01534  0.23071  1.0000
  C   C197      1.0  0.13670  0.01421  0.40271  1.0000
  S   S67       1.0  0.29606  0.06765  0.46830  1.0000
  H   H166      1.0  0.20290  0.01329  0.46690  1.0000
  H   H167      1.0  0.40883  0.99289  0.34043  1.0000
  C   C198      1.0  0.09413  0.00545  0.43516  1.0000
  H   H168      1.0  0.43980  0.04321  0.46867  1.0000
  N   N13       1.0  0.11261  0.00827  0.42794  1.0000
  S   S68       1.0  0.13902  0.27899  0.30789  1.0000
  H   H169      1.0  0.31885  0.06521  0.35364  1.0000
  H   H170      1.0  0.34916  0.98999  0.39560  1.0000
  Fe  Fe32      1.0  0.99176  0.18388  0.27409  1.0000
  H   H171      1.0  0.08205  0.28310  0.24881  1.0000
  C   C199      1.0  0.12359  0.00670  0.43945  1.0000
  H   H172      1.0  0.38032  0.99218  0.28413  1.0000
  C   C200      1.0  0.12233  0.04538  0.45353  1.0000
  H   H173      1.0  0.10448  0.15364  0.29736  1.0000
  N   N14       1.0  0.09402  0.10026  0.40541  1.0000
  H   H174      1.0  0.14975  0.00855  0.44203  1.0000
  H   H175      1.0  0.11051  0.01261  0.40057  1.0000
  C   C201      1.0  0.11084  0.09608  0.40923  1.0000
  H   H176      1.0  0.16718  0.28713  0.26902  1.0000
  C   C202      1.0  0.00182  0.23975  0.31764  1.0000
  C   C203      1.0  0.06914  0.18091  0.31754  1.0000
  S   S69       1.0  0.99418  0.14862  0.33709  1.0000
  C   C204      1.0  0.04197  0.09177  0.32251  1.0000
  H   H177      1.0  0.99604  0.03395  0.36976  1.0000
  H   H178      1.0  0.13650  0.29948  0.23675  1.0000
  C   C205      1.0  0.08688  0.27239  0.24131  1.0000
  H   H179      1.0  0.08112  0.15582  0.29814  1.0000
  H   H180      1.0  0.33858  0.01204  0.46675  1.0000
  H   H181      1.0  0.08221  0.08805  0.43209  1.0000
  C   C206      1.0  0.14133  0.00915  0.43283  1.0000
  H   H182      1.0  0.07829  0.04208  0.46836  1.0000
  H   H183      1.0  0.14166  0.01708  0.38830  1.0000
  H   H184      1.0  0.36682  0.05226  0.45835  1.0000
  C   C207      1.0  0.35246  0.00132  0.23189  1.0000
  N   N15       1.0  0.20323  0.16430  0.32469  1.0000
  C   C208      1.0  0.21609  0.14922  0.32210  1.0000
  C   C209      1.0  0.19937  0.17763  0.31036  1.0000
  C   C210      1.0  0.22501  0.14690  0.30477  1.0000
  C   C211      1.0  0.20789  0.17566  0.29284  1.0000
  C   C212      1.0  0.22075  0.16015  0.29006  1.0000
  C   C213      1.0  0.19403  0.16636  0.34299  1.0000
  H   H185      1.0  0.21948  0.13884  0.33346  1.0000
  H   H186      1.0  0.18919  0.18963  0.31233  1.0000
  H   H187      1.0  0.23514  0.13485  0.30281  1.0000
  H   H188      1.0  0.20416  0.18595  0.28152  1.0000
  H   H189      1.0  0.22737  0.15838  0.27653  1.0000
  H   H190      1.0  0.19031  0.15352  0.35112  1.0000
  H   H191      1.0  0.20292  0.17044  0.34947  1.0000
  H   H192      1.0  0.18123  0.17652  0.34313  1.0000
  Fe  Fe33      1.0  0.35593  0.06226  0.24497  1.0000
  C   C214      1.0  0.17975  0.28841  0.24101  1.0000
  H   H193      1.0  0.39571  0.06082  0.45607  1.0000
  C   C215      1.0  0.13274  0.30237  0.30092  1.0000
  C   C216      1.0  0.06556  0.29436  0.31784  1.0000
  C   C217      1.0  0.48673  0.03787  0.44581  1.0000
  C   C218      1.0  0.14786  0.01304  0.41433  1.0000
  C   C219      1.0  0.13069  0.31007  0.28330  1.0000
  C   C220      1.0  0.01624  0.11255  0.31275  1.0000
  Fe  Fe34      1.0  0.26743  0.08013  0.46614  1.0000
  Fe  Fe35      1.0  0.99774  0.16963  0.31195  1.0000
  H   H194      1.0  0.04059  0.28490  0.32455  1.0000
  S   S70       1.0  0.33506  0.04876  0.24220  1.0000
  S   S71       1.0  0.00605  0.20652  0.26944  1.0000
  H   H195      1.0  0.16150  0.01525  0.40897  1.0000
  N   N16       1.0  0.01249  0.09233  0.34142  1.0000
  S   S72       1.0  0.38651  0.00282  0.37600  1.0000
  H   H196      1.0  0.22971  0.05769  0.32754  1.0000
  H   H197      1.0  0.40812  0.98544  0.29619  1.0000
  H   H198      1.0  0.08853  0.00972  0.44825  1.0000
  C   C221      1.0  0.17303  0.07172  0.45080  1.0000
  C   C222      1.0  0.36863  0.05783  0.46888  1.0000
  H   H199      1.0  0.35170  0.00807  0.30036  1.0000
  H   H200      1.0  0.37901  0.01039  0.34002  1.0000
  C   C223      1.0  0.00847  0.24776  0.32791  1.0000
  H   H201      1.0  0.41107  0.07898  0.46523  1.0000
  C   C224      1.0  0.39556  0.99215  0.30347  1.0000
  S   S73       1.0  0.34820  0.99785  0.26843  1.0000
  C   C225      1.0  0.04697  0.29587  0.32394  1.0000
  C   C226      1.0  0.03474  0.10564  0.30970  1.0000
  H   H202      1.0  0.09381  0.99106  0.43693  1.0000
  C   C227      1.0  0.21126  0.03228  0.47681  1.0000
  H   H203      1.0  0.05635  0.08634  0.32035  1.0000
  H   H204      1.0  0.41916  0.00450  0.31901  1.0000
  H   H205      1.0  0.47054  0.99617  0.47740  1.0000
  H   H206      1.0  0.02209  0.31283  0.33420  1.0000
  H   H207      1.0  0.46532  0.02765  0.41928  1.0000
  C   C228      1.0  0.47311  0.01282  0.45075  1.0000
  H   H208      1.0  0.01810  0.99195  0.36145  1.0000
  C   C229      1.0  0.17240  0.29556  0.25643  1.0000
  H   H209      1.0  0.46652  0.00493  0.44595  1.0000
  C   C230      1.0  0.07348  0.30862  0.31733  1.0000
  C   C231      1.0  0.47674  0.03261  0.42094  1.0000
  H   H210      1.0  0.32159  0.98903  0.42157  1.0000
  N   N17       1.0  0.08232  0.24621  0.23403  1.0000
  N   N18       1.0  0.47866  0.02779  0.43970  1.0000
  H   H211      1.0  0.47379  0.04747  0.41630  1.0000
  H   H212      1.0  0.13199  0.30760  0.32666  1.0000
  H   H213      1.0  0.05889  0.23488  0.24665  1.0000
  C   C232      1.0  0.48357  0.01799  0.47487  1.0000
  C   C233      1.0  0.13034  0.31350  0.31303  1.0000
  C   C234      1.0  0.48936  0.03309  0.46345  1.0000
  C   C235      1.0  0.40423  0.07498  0.47944  1.0000
  H   H214      1.0  0.49085  0.04991  0.43715  1.0000
  H   H215      1.0  0.31303  0.98553  0.45462  1.0000
  S   S74       1.0  0.40681  0.07023  0.52450  1.0000
  S   S75       1.0  0.45792  0.07694  0.51902  1.0000
  Fe  Fe36      1.0  0.33957  0.13882  0.57346  1.0000
  S   S76       1.0  0.33053  0.16486  0.55535  1.0000
  S   S77       1.0  0.36956  0.12980  0.57061  1.0000
  Fe  Fe37      1.0  0.30161  0.13795  0.59533  1.0000
  S   S78       1.0  0.29001  0.16454  0.57960  1.0000
  S   S79       1.0  0.28349  0.12189  0.61685  1.0000
  Fe  Fe38      1.0  0.30712  0.15320  0.55592  1.0000
  S   S80       1.0  0.29357  0.15652  0.53307  1.0000
  Fe  Fe39      1.0  0.31464  0.17337  0.58087  1.0000
  S   S81       1.0  0.31577  0.20121  0.58295  1.0000
  S   S82       1.0  0.31763  0.12613  0.57160  1.0000
  S   S83       1.0  0.32463  0.14780  0.59905  1.0000
  Fe  Fe40      1.0  0.37671  0.23318  0.62684  1.0000
  S   S84       1.0  0.39819  0.24305  0.60419  1.0000
  S   S85       1.0  0.36727  0.20745  0.63026  1.0000
  Fe  Fe41      1.0  0.37418  0.26226  0.64689  1.0000
  S   S86       1.0  0.39583  0.27436  0.62649  1.0000
  S   S87       1.0  0.35609  0.27572  0.66892  1.0000
  Fe  Fe42      1.0  0.38219  0.27070  0.60647  1.0000
  S   S88       1.0  0.37842  0.29163  0.58162  1.0000
  Fe  Fe43      1.0  0.41031  0.24591  0.62583  1.0000
  S   S89       1.0  0.44048  0.23913  0.62191  1.0000
  S   S90       1.0  0.35926  0.26058  0.62683  1.0000
  S   S91       1.0  0.39006  0.23398  0.64861  1.0000
  Fe  Fe44      1.0  0.20793  0.08387  0.60645  1.0000
  S   S92       1.0  0.18140  0.09176  0.62462  1.0000
  S   S93       1.0  0.22338  0.10423  0.58770  1.0000
  Fe  Fe45      1.0  0.20666  0.04436  0.61701  1.0000
  S   S94       1.0  0.18019  0.04858  0.63627  1.0000
  S   S95       1.0  0.22397  0.01811  0.61167  1.0000
  Fe  Fe46      1.0  0.17242  0.07189  0.61453  1.0000
  S   S96       1.0  0.14464  0.07914  0.60874  1.0000
  Fe  Fe47      1.0  0.19149  0.06788  0.64475  1.0000
  S   S97       1.0  0.18957  0.06585  0.67428  1.0000
  S   S98       1.0  0.19806  0.06613  0.59450  1.0000
  S   S99       1.0  0.21886  0.06149  0.62728  1.0000
  Fe  Fe48      1.0  0.13655  0.04811  0.52507  1.0000
  S   S100      1.0  0.14484  0.02082  0.54132  1.0000
  S   S101      1.0  0.12825  0.07312  0.53645  1.0000
  H   H216      1.0  0.16059  0.04437  0.68150  1.0000
  S   S102      1.0  0.15043  0.00544  0.50443  1.0000
  H   H217      1.0  0.20515  0.12058  0.64792  1.0000
  Fe  Fe49      1.0  0.12787  0.01209  0.52744  1.0000
  Fe  Fe50      1.0  0.28480  0.04412  0.48571  1.0000
  Fe  Fe51      1.0  0.16643  0.01684  0.51699  1.0000
  C   C236      1.0  0.16569  0.03186  0.69068  1.0000
  S   S103      1.0  0.11746  0.04000  0.51320  1.0000
  S   S104      1.0  0.15942  0.04494  0.50161  1.0000
  H   H218      1.0  0.29431  0.23757  0.56750  1.0000
  S   S105      1.0  0.28035  0.05337  0.51134  1.0000
  C   C237      1.0  0.37258  0.27036  0.72174  1.0000
  C   C238      1.0  0.16683  0.00618  0.67788  1.0000
  S   S106      1.0  0.22797  0.06733  0.52704  1.0000
  H   H219      1.0  0.23175  0.00840  0.51482  1.0000
  S   S107      1.0  0.47227  0.16998  0.58779  1.0000
  C   C239      1.0  0.20425  0.02176  0.52292  1.0000
  C   C240      1.0  0.22293  0.02017  0.51928  1.0000
  C   C241      1.0  0.23025  0.03408  0.52081  1.0000
  C   C242      1.0  0.21891  0.04936  0.52646  1.0000
  C   C243      1.0  0.20026  0.05058  0.53089  1.0000
  C   C244      1.0  0.19292  0.03691  0.52884  1.0000
  C   C245      1.0  0.38314  0.19013  0.58367  1.0000
  H   H220      1.0  0.19148  0.06222  0.53551  1.0000
  H   H221      1.0  0.17850  0.03808  0.53184  1.0000
  C   C246      1.0  0.18387  0.08581  0.68254  1.0000
  C   C247      1.0  0.18530  0.08507  0.70011  1.0000
  H   H222      1.0  0.36616  0.31520  0.68530  1.0000
  C   C248      1.0  0.17615  0.11754  0.69585  1.0000
  C   C249      1.0  0.17436  0.11824  0.67844  1.0000
  C   C250      1.0  0.17820  0.10242  0.67179  1.0000
  C   C251      1.0  0.22252  0.11417  0.66666  1.0000
  H   H223      1.0  0.17005  0.13108  0.67003  1.0000
  H   H224      1.0  0.17679  0.10310  0.65835  1.0000
  C   C252      1.0  0.14036  0.07541  0.58932  1.0000
  C   C253      1.0  0.15285  0.06434  0.57842  1.0000
  C   C254      1.0  0.14893  0.06263  0.56250  1.0000
  C   C255      1.0  0.13281  0.07244  0.55732  1.0000
  C   C256      1.0  0.12038  0.08322  0.56840  1.0000
  C   C257      1.0  0.12400  0.08447  0.58445  1.0000
  H   H225      1.0  0.16548  0.05728  0.58219  1.0000
  H   H226      1.0  0.15862  0.05432  0.55394  1.0000
  H   H227      1.0  0.10792  0.09084  0.56449  1.0000
  H   H228      1.0  0.11428  0.09298  0.59285  1.0000
  C   C258      1.0  0.21309  0.00098  0.61234  1.0000
  S   S108      1.0  0.26177  0.09303  0.49005  1.0000
  C   C259      1.0  0.18626  0.98853  0.61850  1.0000
  Fe  Fe52      1.0  0.25321  0.06734  0.50564  1.0000
  C   C260      1.0  0.30710  0.21913  0.54253  1.0000
  S   S109      1.0  0.31121  0.08595  0.50207  1.0000
  N   N19       1.0  0.20002  0.99699  0.56598  1.0000
  C   C261      1.0  0.32132  0.25658  0.69606  1.0000
  H   H229      1.0  0.37719  0.14749  0.59598  1.0000
  C   C262      1.0  0.44351  0.28707  0.59853  1.0000
  C   C263      1.0  0.13343  0.10818  0.72202  1.0000
  H   H230      1.0  0.45671  0.30668  0.60182  1.0000
  H   H231      1.0  0.37390  0.16914  0.56051  1.0000
  S   S110      1.0  0.46665  0.12483  0.49376  1.0000
  H   H232      1.0  0.24471  0.03293  0.51767  1.0000
  H   H233      1.0  0.21475  0.10506  0.67647  1.0000
  H   H234      1.0  0.35909  0.18957  0.56652  1.0000
  C   C264      1.0  0.30830  0.26677  0.70741  1.0000
  C   C265      1.0  0.36305  0.27339  0.68895  1.0000
  C   C266      1.0  0.38030  0.26431  0.69154  1.0000
  C   C267      1.0  0.38510  0.26289  0.70796  1.0000
  C   C268      1.0  0.46276  0.11351  0.55712  1.0000
  C   C269      1.0  0.35056  0.28053  0.70282  1.0000
  H   H235      1.0  0.38999  0.25868  0.68085  1.0000
  H   H236      1.0  0.22865  0.02916  0.56874  1.0000
  H   H237      1.0  0.12016  0.04458  0.59114  1.0000
  S   S111      1.0  0.30062  0.01693  0.48191  1.0000
  C   C270      1.0  0.08277  0.99782  0.58830  1.0000
  H   H238      1.0  0.34800  0.23233  0.72460  1.0000
  H   H239      1.0  0.20012  0.02763  0.67353  1.0000
  C   C271      1.0  0.44945  0.21965  0.61287  1.0000
  C   C272      1.0  0.46799  0.21512  0.60601  1.0000
  C   C273      1.0  0.47516  0.19990  0.59822  1.0000
  C   C274      1.0  0.46380  0.18910  0.59745  1.0000
  C   C275      1.0  0.44532  0.19353  0.60453  1.0000
  C   C276      1.0  0.43815  0.20875  0.61223  1.0000
  C   C277      1.0  0.19334  0.01774  0.67222  1.0000
  C   C278      1.0  0.34887  0.23359  0.69039  1.0000
  H   H240      1.0  0.43654  0.18514  0.60410  1.0000
  H   H241      1.0  0.42391  0.21189  0.61790  1.0000
  C   C279      1.0  0.26736  0.11643  0.60840  1.0000
  C   C280      1.0  0.26474  0.12435  0.59099  1.0000
  C   C281      1.0  0.25118  0.12056  0.58475  1.0000
  C   C282      1.0  0.24025  0.10877  0.59585  1.0000
  C   C283      1.0  0.24291  0.10082  0.61325  1.0000
  C   C284      1.0  0.25651  0.10455  0.61946  1.0000
  H   H242      1.0  0.27310  0.13346  0.58230  1.0000
  H   H243      1.0  0.24921  0.12675  0.57127  1.0000
  H   H244      1.0  0.23442  0.09191  0.62200  1.0000
  H   H245      1.0  0.25849  0.09839  0.63295  1.0000
  C   C285      1.0  0.32972  0.20304  0.59646  1.0000
  C   C286      1.0  0.33509  0.21936  0.59406  1.0000
  C   C287      1.0  0.34650  0.22100  0.60445  1.0000
  C   C288      1.0  0.35243  0.20634  0.61740  1.0000
  C   C289      1.0  0.34696  0.19009  0.61984  1.0000
  C   C290      1.0  0.33568  0.18842  0.60940  1.0000
  H   H246      1.0  0.33049  0.23077  0.58412  1.0000
  H   H247      1.0  0.35068  0.23359  0.60247  1.0000
  H   H248      1.0  0.35150  0.17871  0.62986  1.0000
  H   H249      1.0  0.33143  0.17590  0.61160  1.0000
  C   C291      1.0  0.29867  0.13714  0.52405  1.0000
  C   C292      1.0  0.28676  0.13439  0.51495  1.0000
  C   C293      1.0  0.29050  0.11874  0.50801  1.0000
  C   C294      1.0  0.30629  0.10595  0.50999  1.0000
  C   C295      1.0  0.31833  0.10886  0.51884  1.0000
  C   C296      1.0  0.31447  0.12436  0.52596  1.0000
  H   H250      1.0  0.27458  0.14432  0.51333  1.0000
  H   H251      1.0  0.28129  0.11669  0.50098  1.0000
  H   H252      1.0  0.19537  0.03680  0.57743  1.0000
  H   H253      1.0  0.32391  0.12656  0.53264  1.0000
  C   C297      1.0  0.39640  0.08692  0.53712  1.0000
  C   C298      1.0  0.40672  0.09673  0.54135  1.0000
  C   C299      1.0  0.39835  0.10979  0.55176  1.0000
  C   C300      1.0  0.37960  0.11338  0.55759  1.0000
  C   C301      1.0  0.36922  0.10377  0.55313  1.0000
  C   C302      1.0  0.37765  0.09039  0.54307  1.0000
  H   H254      1.0  0.42117  0.09400  0.53687  1.0000
  H   H255      1.0  0.40635  0.11713  0.55535  1.0000
  H   H256      1.0  0.35477  0.10641  0.55767  1.0000
  H   H257      1.0  0.36963  0.08277  0.53990  1.0000
  H   H258      1.0  0.33061  0.09906  0.52032  1.0000
  N   N20       1.0  0.26897  0.08578  0.55675  1.0000
  C   C303      1.0  0.26090  0.07402  0.57061  1.0000
  C   C304      1.0  0.28255  0.09259  0.55876  1.0000
  C   C305      1.0  0.26643  0.06879  0.58703  1.0000
  C   C306      1.0  0.28844  0.08762  0.57496  1.0000
  C   C307      1.0  0.28028  0.07568  0.58918  1.0000
  C   C308      1.0  0.26320  0.09125  0.53955  1.0000
  H   H259      1.0  0.24989  0.06888  0.56917  1.0000
  H   H260      1.0  0.28873  0.10212  0.54788  1.0000
  H   H261      1.0  0.25973  0.05977  0.59810  1.0000
  H   H262      1.0  0.29899  0.09334  0.57660  1.0000
  H   H263      1.0  0.28444  0.07209  0.60196  1.0000
  H   H264      1.0  0.25854  0.10607  0.53638  1.0000
  H   H265      1.0  0.27466  0.08721  0.52870  1.0000
  H   H266      1.0  0.25201  0.08493  0.53962  1.0000
  Fe  Fe53      1.0  0.28950  0.07803  0.49368  1.0000
  H   H267      1.0  0.27234  0.24314  0.56200  1.0000
  H   H268      1.0  0.36266  0.23400  0.69128  1.0000
  H   H269      1.0  0.43930  0.15353  0.52560  1.0000
  S   S112      1.0  0.19509  0.00516  0.51937  1.0000
  H   H270      1.0  0.43390  0.12304  0.52880  1.0000
  H   H271      1.0  0.21678  0.00501  0.65501  1.0000
  H   H272      1.0  0.10594  0.03835  0.47975  1.0000
  H   H273      1.0  0.29744  0.27675  0.70232  1.0000
  H   H274      1.0  0.34796  0.23894  0.67606  1.0000
  H   H275      1.0  0.32046  0.25893  0.68210  1.0000
  H   H276      1.0  0.17182  0.98990  0.62274  1.0000
  C   C309      1.0  0.30168  0.19887  0.52704  1.0000
  S   S113      1.0  0.12717  0.99075  0.67785  1.0000
  C   C310      1.0  0.22898  0.00401  0.56232  1.0000
  H   H277      1.0  0.09699  0.99795  0.61555  1.0000
  C   C311      1.0  0.20285  0.00497  0.66180  1.0000
  C   C312      1.0  0.20191  0.02445  0.57278  1.0000
  N   N21       1.0  0.09282  0.01082  0.58918  1.0000
  C   C313      1.0  0.30964  0.26432  0.72523  1.0000
  C   C314      1.0  0.43274  0.28369  0.58870  1.0000
  S   S114      1.0  0.43650  0.09602  0.48577  1.0000
  C   C315      1.0  0.18148  0.10092  0.70676  1.0000
  H   H278      1.0  0.42898  0.27068  0.59187  1.0000
  H   H279      1.0  0.18963  0.07225  0.70853  1.0000
  Fe  Fe54      1.0  0.47514  0.05821  0.50107  1.0000
  C   C316      1.0  0.22091  0.14378  0.62135  1.0000
  H   H280      1.0  0.39337  0.30741  0.60305  1.0000
  C   C317      1.0  0.21713  0.12303  0.65051  1.0000
  H   H281      1.0  0.12300  0.00941  0.70599  1.0000
  H   H282      1.0  0.41323  0.06352  0.48637  1.0000
  C   C318      1.0  0.19433  0.00292  0.61747  1.0000
  H   H283      1.0  0.21099  0.15633  0.62343  1.0000
  C   C319      1.0  0.19174  0.01260  0.57185  1.0000
  H   H284      1.0  0.24354  0.00048  0.55866  1.0000
  C   C320      1.0  0.44553  0.14230  0.53477  1.0000
  C   C321      1.0  0.39396  0.18974  0.59541  1.0000
  C   C322      1.0  0.39849  0.17394  0.60769  1.0000
  H   H285      1.0  0.37917  0.20266  0.57462  1.0000
  H   H286      1.0  0.39815  0.20183  0.59556  1.0000
  H   H287      1.0  0.40633  0.17372  0.61728  1.0000
  H   H288      1.0  0.31636  0.22599  0.54490  1.0000
  H   H289      1.0  0.10870  0.04743  0.56366  1.0000
  C   C323      1.0  0.27838  0.21137  0.54981  1.0000
  H   H290      1.0  0.11441  0.01945  0.61712  1.0000
  H   H291      1.0  0.21463  0.13509  0.61669  1.0000
  H   H292      1.0  0.33717  0.28744  0.70093  1.0000
  H   H293      1.0  0.22083  0.02214  0.48367  1.0000
  C   C324      1.0  0.22063  0.02013  0.56791  1.0000
  C   C325      1.0  0.35515  0.27857  0.71929  1.0000
  H   H294      1.0  0.23246  0.14710  0.61038  1.0000
  H   H295      1.0  0.32711  0.20677  0.52228  1.0000
  N   N22       1.0  0.22692  0.13447  0.63809  1.0000
  H   H296      1.0  0.44870  0.09727  0.54943  1.0000
  C   C326      1.0  0.28410  0.20046  0.53709  1.0000
  C   C327      1.0  0.38186  0.15942  0.59579  1.0000
  N   N23       1.0  0.17562  0.01803  0.68031  1.0000
  H   H297      1.0  0.41805  0.29455  0.56753  1.0000
  C   C328      1.0  0.11258  0.03503  0.59055  1.0000
  C   C329      1.0  0.35470  0.06018  0.48377  1.0000
  C   C330      1.0  0.45097  0.11066  0.54797  1.0000
  H   H298      1.0  0.48365  0.14538  0.55814  1.0000
  H   H299      1.0  0.17453  0.03506  0.69793  1.0000
  C   C331      1.0  0.09633  0.02430  0.57465  1.0000
  H   H300      1.0  0.26479  0.21227  0.55780  1.0000
  H   H301      1.0  0.35477  0.16820  0.57893  1.0000
  C   C332      1.0  0.45724  0.14470  0.54427  1.0000
  N   N24       1.0  0.37706  0.17513  0.58414  1.0000
  C   C333      1.0  0.17594  0.99313  0.66771  1.0000
  H   H302      1.0  0.39593  0.14628  0.61737  1.0000
  S   S115      1.0  0.17186  0.13768  0.70342  1.0000
  H   H303      1.0  0.39860  0.25638  0.70983  1.0000
  C   C334      1.0  0.39253  0.15862  0.60783  1.0000
  H   H304      1.0  0.27511  0.19292  0.53526  1.0000
  Fe  Fe55      1.0  0.43475  0.07324  0.50949  1.0000
  H   H305      1.0  0.15264  0.00683  0.68373  1.0000
  N   N25       1.0  0.46594  0.13033  0.55498  1.0000
  C   C335      1.0  0.31330  0.20824  0.52976  1.0000
  H   H306      1.0  0.44818  0.27664  0.60933  1.0000
  H   H307      1.0  0.30637  0.19008  0.51743  1.0000
  H   H308      1.0  0.09164  0.02548  0.56252  1.0000
  N   N26       1.0  0.16972  0.10225  0.54093  1.0000
  C   C336      1.0  0.18790  0.09967  0.53951  1.0000
  C   C337      1.0  0.15801  0.10703  0.55594  1.0000
  C   C338      1.0  0.19479  0.10205  0.55325  1.0000
  C   C339      1.0  0.16442  0.10947  0.56996  1.0000
  C   C340      1.0  0.18293  0.10708  0.56852  1.0000
  C   C341      1.0  0.16291  0.09908  0.52659  1.0000
  H   H309      1.0  0.19721  0.09563  0.52774  1.0000
  H   H310      1.0  0.14361  0.10873  0.55728  1.0000
  H   H311      1.0  0.20924  0.09978  0.55218  1.0000
  H   H312      1.0  0.15510  0.11279  0.58205  1.0000
  H   H313      1.0  0.18808  0.10885  0.57934  1.0000
  H   H314      1.0  0.16997  0.10538  0.51322  1.0000
  H   H315      1.0  0.16495  0.08441  0.52734  1.0000
  H   H316      1.0  0.14823  0.10473  0.52770  1.0000
  H   H317      1.0  0.13210  0.13628  0.71003  1.0000
  C   C342      1.0  0.47828  0.13299  0.56474  1.0000
  H   H318      1.0  0.14229  0.10359  0.71029  1.0000
  S   S116      1.0  0.45158  0.05211  0.49431  1.0000
  C   C343      1.0  0.44821  0.30386  0.59439  1.0000
  H   H319      1.0  0.46959  0.10213  0.56568  1.0000
  Fe  Fe56      1.0  0.46115  0.09808  0.49382  1.0000
  C   C344      1.0  0.37378  0.07175  0.49573  1.0000
  H   H320      1.0  0.07482  0.99276  0.60173  1.0000
  C   C345      1.0  0.24193  0.13770  0.64146  1.0000
  C   C346      1.0  0.37929  0.31383  0.58139  1.0000
  C   C347      1.0  0.24782  0.12892  0.65736  1.0000
  C   C348      1.0  0.23799  0.11713  0.67006  1.0000
  H   H321      1.0  0.49012  0.12164  0.56507  1.0000
  C   C349      1.0  0.12190  0.99565  0.71210  1.0000
  H   H322      1.0  0.24983  0.14664  0.63157  1.0000
  C   C350      1.0  0.42667  0.29724  0.57491  1.0000
  H   H323      1.0  0.26010  0.13107  0.65964  1.0000
  H   H324      1.0  0.24235  0.11026  0.68249  1.0000
  N   N27       1.0  0.43107  0.31378  0.57116  1.0000
  C   C351      1.0  0.33671  0.24179  0.71977  1.0000
  C   C352      1.0  0.36573  0.17562  0.57182  1.0000
  H   H325      1.0  0.18610  0.01533  0.62096  1.0000
  H   H326      1.0  0.47121  0.13425  0.57867  1.0000
  C   C353      1.0  0.44248  0.12515  0.53658  1.0000
  H   H327      1.0  0.45973  0.15804  0.54263  1.0000
  H   H328      1.0  0.47677  0.22336  0.60675  1.0000
  H   H329      1.0  0.27848  0.22368  0.57918  1.0000
  C   C354      1.0  0.48746  0.13957  0.50672  1.0000
  C   C355      1.0  0.21841  0.99247  0.56150  1.0000
  N   N28       1.0  0.33533  0.24432  0.70230  1.0000
  C   C356      1.0  0.19412  0.99243  0.65979  1.0000
  N   N29       1.0  0.28983  0.22055  0.55238  1.0000
  H   H330      1.0  0.48737  0.09498  0.51489  1.0000
  H   H331      1.0  0.17720  0.01597  0.57584  1.0000
  C   C357      1.0  0.10611  0.03668  0.57517  1.0000
  H   H332      1.0  0.37578  0.07695  0.50643  1.0000
  C   C358      1.0  0.28337  0.23188  0.56585  1.0000
  H   H333      1.0  0.15415  0.02739  0.70093  1.0000
  C   C359      1.0  0.09940  0.00889  0.60419  1.0000
  C   C360      1.0  0.10931  0.02099  0.60514  1.0000
  H   H334      1.0  0.18287  0.10032  0.72020  1.0000
  H   H335      1.0  0.34710  0.21945  0.69404  1.0000
  H   H336      1.0  0.48120  0.15236  0.49956  1.0000
  Fe  Fe57      1.0  0.14127  0.03413  0.49103  1.0000
  S   S117      1.0  0.25666  0.05559  0.48156  1.0000
  C   C361      1.0  0.12760  0.12654  0.72183  1.0000
  H   H337      1.0  0.21633  0.05423  0.48520  1.0000
  C   C362      1.0  0.48271  0.12374  0.50613  1.0000
  S   S118      1.0  0.10868  0.99475  0.54515  1.0000
  C   C363      1.0  0.44189  0.31711  0.58053  1.0000
  C   C364      1.0  0.35734  0.06701  0.49737  1.0000
  N   N30       1.0  0.38714  0.06995  0.48082  1.0000
  C   C365      1.0  0.38776  0.31792  0.59307  1.0000
  H   H338      1.0  0.36546  0.31027  0.65558  1.0000
  H   H339      1.0  0.17607  0.99216  0.56176  1.0000
  H   H340      1.0  0.40201  0.08662  0.48588  1.0000
  H   H341      1.0  0.07334  0.00379  0.57899  1.0000
  H   H342      1.0  0.34665  0.06875  0.50906  1.0000
  H   H343      1.0  0.48534  0.01436  0.48867  1.0000
  H   H344      1.0  0.34185  0.05674  0.48483  1.0000
  H   H345      1.0  0.09233  0.98618  0.58342  1.0000
  H   H346      1.0  0.49086  0.06083  0.53017  1.0000
  H   H347      1.0  0.48943  0.19645  0.59296  1.0000
  C   C366      1.0  0.49083  0.10725  0.51538  1.0000
  H   H348      1.0  0.12934  0.26240  0.90622  1.0000
  C   C367      1.0  0.22569  0.17050  0.81294  1.0000
  Fe  Fe58      1.0  0.36191  0.29498  0.75197  1.0000
  C   C368      1.0  0.04285  0.15408  0.82408  1.0000
  H   H349      1.0  0.09953  0.09284  0.77697  1.0000
  C   C369      1.0  0.11157  0.11951  0.75250  1.0000
  C   C370      1.0  0.24167  0.18336  0.77780  1.0000
  C   C371      1.0  0.02450  0.17016  0.80243  1.0000
  H   H350      1.0  0.10715  0.17315  0.83185  1.0000
  C   C372      1.0  0.27604  0.28994  0.97402  1.0000
  C   C373      1.0  0.38515  0.26806  0.78606  1.0000
  S   S119      1.0  0.34015  0.29392  0.77683  1.0000
  C   C374      1.0  0.19385  0.03761  0.80332  1.0000
  C   C375      1.0  0.11333  0.08845  0.76929  1.0000
  C   C376      1.0  0.07128  0.99955  0.76087  1.0000
  C   C377      1.0  0.05244  0.01357  0.79089  1.0000
  S   S120      1.0  0.02710  0.09119  0.81931  1.0000
  H   H351      1.0  0.04532  0.01925  0.80259  1.0000
  N   N31       1.0  0.05919  0.99549  0.79262  1.0000
  N   N32       1.0  0.26398  0.28400  0.83272  1.0000
  H   H352      1.0  0.00055  0.28265  0.85100  1.0000
  Fe  Fe59      1.0  0.14351  0.14423  0.76631  1.0000
  S   S121      1.0  0.16429  0.13740  0.78317  1.0000
  S   S122      1.0  0.11399  0.14996  0.77865  1.0000
  Fe  Fe60      1.0  0.18072  0.15260  0.75909  1.0000
  S   S123      1.0  0.19622  0.17355  0.75848  1.0000
  Fe  Fe61      1.0  0.17579  0.11394  0.76946  1.0000
  S   S124      1.0  0.18067  0.08568  0.78545  1.0000
  H   H353      1.0  0.23762  0.22022  0.78204  1.0000
  S   S125      1.0  0.15379  0.11972  0.75443  1.0000
  S   S126      1.0  0.10269  0.01369  0.77628  1.0000
  S   S127      1.0  0.14112  0.04100  0.75742  1.0000
  S   S128      1.0  0.07287  0.01164  0.82529  1.0000
  Fe  Fe62      1.0  0.20335  0.23491  0.81860  1.0000
  S   S129      1.0  0.21300  0.25333  0.79290  1.0000
  S   S130      1.0  0.18975  0.21164  0.82222  1.0000
  Fe  Fe63      1.0  0.21560  0.25395  0.84140  1.0000
  S   S131      1.0  0.22617  0.27396  0.81773  1.0000
  S   S132      1.0  0.21925  0.25212  0.86930  1.0000
  Fe  Fe64      1.0  0.20093  0.27513  0.80875  1.0000
  S   S133      1.0  0.18587  0.30143  0.79578  1.0000
  Fe  Fe65      1.0  0.23736  0.25056  0.80405  1.0000
  S   S134      1.0  0.26608  0.24542  0.78877  1.0000
  S   S135      1.0  0.18921  0.25704  0.83369  1.0000
  S   S136      1.0  0.22886  0.23021  0.82852  1.0000
  C   C378      1.0  0.02395  0.30661  0.79063  1.0000
  S   S137      1.0  0.01545  0.23860  0.84362  1.0000
  H   H354      1.0  0.14981  0.17737  0.78526  1.0000
  S   S138      1.0  0.10997  0.27578  0.87529  1.0000
  S   S139      1.0  0.08803  0.31005  0.90876  1.0000
  H   H355      1.0  0.02034  0.18216  0.79279  1.0000
  N   N33       1.0  0.33196  0.31102  0.94973  1.0000
  N   N34       1.0  0.15586  0.26451  0.89122  1.0000
  Fe  Fe66      1.0  0.03523  0.21355  0.83791  1.0000
  S   S140      1.0  0.03682  0.22082  0.80818  1.0000
  S   S141      1.0  0.03252  0.18587  0.85352  1.0000
  Fe  Fe67      1.0  0.03986  0.25005  0.84010  1.0000
  S   S142      1.0  0.04218  0.26026  0.81055  1.0000
  S   S143      1.0  0.03814  0.26985  0.85699  1.0000
  H   H356      1.0  0.31773  0.29128  0.94968  1.0000
  Fe  Fe68      1.0  0.05963  0.23331  0.80789  1.0000
  S   S144      1.0  0.08554  0.23038  0.78750  1.0000
  C   C379      1.0  0.17552  0.01961  0.82679  1.0000
  S   S145      1.0  0.05946  0.22407  0.83728  1.0000
  S   S146      1.0  0.99339  0.10924  0.85992  1.0000
  C   C380      1.0  0.22639  0.16149  0.79958  1.0000
  H   H357      1.0  0.17764  0.99259  0.78936  1.0000
  C   C381      1.0  0.05834  0.27121  0.86179  1.0000
  C   C382      1.0  0.05811  0.28438  0.87096  1.0000
  C   C383      1.0  0.07394  0.28570  0.87521  1.0000
  C   C384      1.0  0.09007  0.27378  0.87039  1.0000
  C   C385      1.0  0.09038  0.26065  0.86112  1.0000
  C   C386      1.0  0.07453  0.25942  0.85674  1.0000
  H   H358      1.0  0.04564  0.29352  0.87488  1.0000
  H   H359      1.0  0.07360  0.29577  0.88246  1.0000
  H   H360      1.0  0.10285  0.25142  0.85733  1.0000
  H   H361      1.0  0.07480  0.24924  0.84964  1.0000
  H   H362      1.0  0.18443  0.28439  0.90133  1.0000
  C   C387      1.0  0.15462  0.25617  0.87706  1.0000
  H   H363      1.0  0.15663  0.21745  0.78495  1.0000
  H   H364      1.0  0.16885  0.01608  0.84073  1.0000
  C   C388      1.0  0.12322  0.29184  0.82703  1.0000
  H   H365      1.0  0.36327  0.26001  0.82815  1.0000
  C   C389      1.0  0.03258  0.30690  0.80392  1.0000
  H   H366      1.0  0.25221  0.21094  0.79788  1.0000
  H   H367      1.0  0.10353  0.12410  0.76455  1.0000
  C   C390      1.0  0.99795  0.30036  0.81356  1.0000
  C   C391      1.0  0.21981  0.27218  0.87492  1.0000
  C   C392      1.0  0.22732  0.27143  0.88950  1.0000
  C   C393      1.0  0.22821  0.28732  0.89402  1.0000
  H   H368      1.0  0.03086  0.30860  0.77667  1.0000
  N   N35       1.0  0.03451  0.13984  0.82788  1.0000
  C   C394      1.0  0.21277  0.28887  0.86514  1.0000
  H   H369      1.0  0.23268  0.25853  0.89718  1.0000
  H   H370      1.0  0.23424  0.28666  0.90513  1.0000
  H   H371      1.0  0.05261  0.12307  0.84443  1.0000
  H   H372      1.0  0.20685  0.28959  0.85393  1.0000
  C   C395      1.0  0.19233  0.18508  0.77602  1.0000
  C   C396      1.0  0.18391  0.17825  0.79350  1.0000
  C   C397      1.0  0.18255  0.18697  0.80745  1.0000
  C   C398      1.0  0.18978  0.20241  0.80405  1.0000
  C   C399      1.0  0.19773  0.20952  0.78649  1.0000
  C   C400      1.0  0.19899  0.20086  0.77253  1.0000
  H   H373      1.0  0.17906  0.16590  0.79638  1.0000
  H   H374      1.0  0.17642  0.18140  0.82104  1.0000
  H   H375      1.0  0.20317  0.22149  0.78370  1.0000
  H   H376      1.0  0.20548  0.20622  0.75901  1.0000
  C   C401      1.0  0.16958  0.07317  0.77791  1.0000
  C   C402      1.0  0.15810  0.06255  0.79015  1.0000
  C   C403      1.0  0.14945  0.05240  0.78403  1.0000
  C   C404      1.0  0.15221  0.05295  0.76565  1.0000
  C   C405      1.0  0.16363  0.06364  0.75345  1.0000
  C   C406      1.0  0.17227  0.07374  0.75956  1.0000
  H   H377      1.0  0.15576  0.06231  0.80435  1.0000
  H   H378      1.0  0.14038  0.04451  0.79352  1.0000
  C   C407      1.0  0.25688  0.29336  0.84622  1.0000
  H   H379      1.0  0.18118  0.08187  0.75009  1.0000
  C   C408      1.0  0.10518  0.17257  0.77985  1.0000
  C   C409      1.0  0.09001  0.17695  0.79311  1.0000
  C   C410      1.0  0.08371  0.19478  0.79528  1.0000
  C   C411      1.0  0.09235  0.20832  0.78395  1.0000
  C   C412      1.0  0.10714  0.20401  0.77031  1.0000
  C   C413      1.0  0.11361  0.18613  0.76831  1.0000
  H   H380      1.0  0.08353  0.16646  0.80211  1.0000
  H   H381      1.0  0.07253  0.19795  0.80607  1.0000
  H   H382      1.0  0.11373  0.21448  0.76143  1.0000
  H   H383      1.0  0.12513  0.18288  0.75788  1.0000
  C   C414      1.0  0.03963  0.06900  0.82102  1.0000
  C   C415      1.0  0.05648  0.06550  0.80947  1.0000
  C   C416      1.0  0.06686  0.04794  0.81069  1.0000
  C   C417      1.0  0.06045  0.03385  0.82357  1.0000
  C   C418      1.0  0.04357  0.03733  0.83501  1.0000
  C   C419      1.0  0.03316  0.05486  0.83374  1.0000
  H   H384      1.0  0.11404  0.07504  0.76660  1.0000
  H   H385      1.0  0.15531  0.20542  0.76886  1.0000
  H   H386      1.0  0.03856  0.02646  0.84499  1.0000
  H   H387      1.0  0.02023  0.05746  0.84273  1.0000
  C   C420      1.0  0.23438  0.16795  0.78188  1.0000
  C   C421      1.0  0.01363  0.17948  0.85107  1.0000
  S   S147      1.0  0.37866  0.27040  0.74168  1.0000
  H   H388      1.0  0.15144  0.26678  0.86529  1.0000
  H   H389      1.0  0.37782  0.26179  0.78027  1.0000
  C   C422      1.0  0.24812  0.20857  0.78633  1.0000
  C   C423      1.0  0.01588  0.15569  0.80659  1.0000
  H   H390      1.0  0.38262  0.28228  0.82354  1.0000
  S   S148      1.0  0.15878  0.16143  0.74331  1.0000
  H   H391      1.0  0.06152  0.07641  0.79961  1.0000
  C   C424      1.0  0.18557  0.03309  0.82132  1.0000
  H   H392      1.0  0.04460  0.18069  0.80844  1.0000
  C   C425      1.0  0.28741  0.29744  0.76699  1.0000
  C   C426      1.0  0.29941  0.28086  0.76929  1.0000
  C   C427      1.0  0.29283  0.26484  0.77542  1.0000
  C   C428      1.0  0.27424  0.26537  0.77943  1.0000
  C   C429      1.0  0.26231  0.28191  0.77664  1.0000
  C   C430      1.0  0.26889  0.29788  0.77030  1.0000
  H   H393      1.0  0.31371  0.28039  0.76651  1.0000
  H   H394      1.0  0.30210  0.25207  0.77757  1.0000
  H   H395      1.0  0.24796  0.28244  0.77944  1.0000
  H   H396      1.0  0.07984  0.04533  0.80179  1.0000
  H   H397      1.0  0.09689  0.30296  0.84063  1.0000
  N   N36       1.0  0.24115  0.19198  0.79103  1.0000
  C   C431      1.0  0.14164  0.26678  0.90534  1.0000
  H   H398      1.0  0.04979  0.03945  0.77287  1.0000
  C   C432      1.0  0.17101  0.27083  0.88966  1.0000
  Fe  Fe69      1.0  0.01920  0.24692  0.81377  1.0000
  H   H399      1.0  0.32888  0.29358  0.97547  1.0000
  C   C433      1.0  0.02368  0.30370  0.82190  1.0000
  C   C434      1.0  0.06438  0.01799  0.75897  1.0000
  H   H400      1.0  0.41064  0.29193  0.80560  1.0000
  H   H401      1.0  0.15391  0.31441  0.85456  1.0000
  H   H402      1.0  0.23173  0.19326  0.81873  1.0000
  H   H403      1.0  0.12041  0.22431  0.80507  1.0000
  C   C435      1.0  0.26591  0.26441  0.83677  1.0000
  Fe  Fe70      1.0  0.12970  0.01815  0.77686  1.0000
  H   H404      1.0  0.29842  0.26775  0.97770  1.0000
  H   H405      1.0  0.12374  0.27883  0.83610  1.0000
  C   C436      1.0  0.36213  0.26568  0.81396  1.0000
  H   H406      1.0  0.10173  0.20617  0.82952  1.0000
  H   H407      1.0  0.00215  0.30445  0.85324  1.0000
  H   H408      1.0  0.24730  0.18865  0.76392  1.0000
  H   H409      1.0  0.26627  0.25934  0.82468  1.0000
  C   C437      1.0  0.22112  0.30400  0.88427  1.0000
  C   C438      1.0  0.14255  0.27526  0.91859  1.0000
  C   C439      1.0  0.03814  0.16935  0.81116  1.0000
  C   C440      1.0  0.13773  0.29506  0.81291  1.0000
  H   H410      1.0  0.27848  0.25789  0.84176  1.0000
  C   C441      1.0  0.11899  0.99009  0.73083  1.0000
  N   N37       1.0  0.13644  0.20185  0.79399  1.0000
  C   C442      1.0  0.13962  0.18367  0.79524  1.0000
  C   C443      1.0  0.12325  0.20985  0.80631  1.0000
  C   C444      1.0  0.12926  0.17305  0.80896  1.0000
  C   C445      1.0  0.11262  0.19965  0.82020  1.0000
  C   C446      1.0  0.11565  0.18113  0.82147  1.0000
  C   C447      1.0  0.27001  0.29272  0.81564  1.0000
  H   H411      1.0  0.13314  0.08154  0.73777  1.0000
  H   H412      1.0  0.42234  0.28649  0.77450  1.0000
  H   H413      1.0  0.13135  0.15875  0.80946  1.0000
  H   H414      1.0  0.99242  0.14407  0.86527  1.0000
  N   N38       1.0  0.18215  0.01529  0.79647  1.0000
  H   H415      1.0  0.16586  0.06410  0.73921  1.0000
  C   C448      1.0  0.14722  0.21293  0.77948  1.0000
  H   H416      1.0  0.25955  0.31065  0.76841  1.0000
  H   H417      1.0  0.20113  0.04855  0.79880  1.0000
  C   C449      1.0  0.41025  0.28197  0.78262  1.0000
  C   C450      1.0  0.17384  0.31561  0.81069  1.0000
  H   H418      1.0  0.01423  0.12941  0.82270  1.0000
  H   H419      1.0  0.11800  0.99953  0.73908  1.0000
  H   H420      1.0  0.26024  0.20801  0.77529  1.0000
  C   C451      1.0  0.23306  0.18590  0.80838  1.0000
  C   C452      1.0  0.17238  0.27939  0.90265  1.0000
  C   C453      1.0  0.34929  0.30865  0.97161  1.0000
  C   C454      1.0  0.99553  0.15681  0.85770  1.0000
  C   C455      1.0  0.21318  0.30472  0.86999  1.0000
  H   H421      1.0  0.19767  0.03280  0.77687  1.0000
  C   C456      1.0  0.02112  0.14053  0.81939  1.0000
  C   C457      1.0  0.17961  0.00655  0.78323  1.0000
  C   C458      1.0  0.12824  0.09578  0.73763  1.0000
  H   H422      1.0  0.01765  0.15453  0.87019  1.0000
  N   N39       1.0  0.11745  0.10153  0.75260  1.0000
  H   H423      1.0  0.04751  0.99053  0.82078  1.0000
  H   H424      1.0  0.23417  0.16154  0.77127  1.0000
  Fe  Fe71      1.0  0.09950  0.00606  0.80620  1.0000
  C   C459      1.0  0.00314  0.19032  0.83890  1.0000
  H   H425      1.0  0.14976  0.28466  0.81090  1.0000
  H   H426      1.0  0.18667  0.04027  0.83093  1.0000
  S   S149      1.0  0.26099  0.30544  0.92080  1.0000
  H   H427      1.0  0.40563  0.27133  0.76187  1.0000
  Fe  Fe72      1.0  0.17094  0.13614  0.73267  1.0000
  H   H428      1.0  0.07901  0.99388  0.74931  1.0000
  C   C460      1.0  0.05494  0.02509  0.77407  1.0000
  C   C461      1.0  0.19186  0.02863  0.79096  1.0000
  S   S150      1.0  0.19423  0.12837  0.74660  1.0000
  Fe  Fe73      1.0  0.99900  0.09617  0.83632  1.0000
  Fe  Fe74      1.0  0.32412  0.31667  0.76018  1.0000
  S   S151      1.0  0.12466  0.31680  0.93316  1.0000
  H   H429      1.0  0.16751  0.24691  0.87286  1.0000
  C   C462      1.0  0.03904  0.12420  0.84194  1.0000
  S   S152      1.0  0.12953  0.31109  0.88660  1.0000
  C   C463      1.0  0.38792  0.27939  0.81019  1.0000
  H   H430      1.0  0.05285  0.15398  0.83139  1.0000
  H   H431      1.0  0.16760  0.01434  0.77771  1.0000
  S   S153      1.0  0.35107  0.31462  0.81121  1.0000
  H   H432      1.0  0.13113  0.27746  0.92959  1.0000
  H   H433      1.0  0.25425  0.26027  0.84712  1.0000
  C   C464      1.0  0.17388  0.01084  0.81410  1.0000
  C   C465      1.0  0.40094  0.27344  0.77555  1.0000
  S   S154      1.0  0.99554  0.26329  0.80200  1.0000
  H   H434      1.0  0.35094  0.27765  0.81359  1.0000
  H   H435      1.0  0.03910  0.11157  0.83799  1.0000
  C   C466      1.0  0.00968  0.16283  0.86062  1.0000
  S   S155      1.0  0.12553  0.01265  0.80691  1.0000
  C   C467      1.0  0.10806  0.30562  0.82957  1.0000
  H   H436      1.0  0.13828  0.22485  0.77299  1.0000
  H   H437      1.0  0.21879  0.16610  0.82662  1.0000
  H   H438      1.0  0.25273  0.28637  0.85987  1.0000
  C   C468      1.0  0.15802  0.28162  0.91719  1.0000
  C   C469      1.0  0.40375  0.28496  0.80006  1.0000
  H   H439      1.0  0.00618  0.20316  0.83146  1.0000
  H   H440      1.0  0.11230  0.14651  0.73736  1.0000
  H   H441      1.0  0.14383  0.24821  0.88163  1.0000
  Fe  Fe75      1.0  0.10593  0.30200  0.88367  1.0000
  H   H442      1.0  0.00492  0.15632  0.80027  1.0000
  S   S156      1.0  0.37445  0.31408  0.75921  1.0000
  N   N40       1.0  0.37895  0.27091  0.80321  1.0000
  H   H443      1.0  0.12321  0.08698  0.77770  1.0000
  H   H444      1.0  0.15867  0.28858  0.92720  1.0000
  H   H445      1.0  0.17356  0.29465  0.83441  1.0000
  S   S157      1.0  0.29490  0.31785  0.76115  1.0000
  C   C470      1.0  0.13690  0.31193  0.80154  1.0000
  C   C471      1.0  0.32391  0.25174  0.73149  1.0000
  H   H446      1.0  0.27629  0.28523  0.80511  1.0000
  H   H447      1.0  0.18210  0.26933  0.87827  1.0000
  H   H448      1.0  0.02892  0.12532  0.85460  1.0000
  H   H449      1.0  0.35863  0.25535  0.80885  1.0000
  H   H450      1.0  0.04615  0.30935  0.80043  1.0000
  H   H451      1.0  0.22011  0.14994  0.80279  1.0000
  H   H452      1.0  0.03055  0.30375  0.83218  1.0000
  H   H453      1.0  0.14821  0.31458  0.79062  1.0000
  C   C472      1.0  0.16896  0.30868  0.82905  1.0000
  H   H454      1.0  0.32526  0.25001  0.74522  1.0000
  N   N41       1.0  0.00644  0.30088  0.82647  1.0000
  H   H455      1.0  0.20762  0.31760  0.86241  1.0000
  C   C473      1.0  0.33596  0.30357  0.96628  1.0000
  C   C474      1.0  0.06862  0.98845  0.77792  1.0000
  H   H456      1.0  0.99996  0.30218  0.78537  1.0000
  H   H457      1.0  0.27278  0.28546  0.96357  1.0000
  C   C475      1.0  0.00655  0.30324  0.79545  1.0000
  C   C476      1.0  0.99744  0.29731  0.84540  1.0000
  H   H458      1.0  0.99896  0.22554  0.80162  1.0000
  S   S158      1.0  0.14409  0.99002  0.77441  1.0000
  S   S159      1.0  0.30875  0.31764  0.89452  1.0000
  H   H459      1.0  0.06662  0.02678  0.74586  1.0000
  C   C477      1.0  0.31750  0.30589  0.94473  1.0000
  H   H460      1.0  0.31893  0.30861  0.92992  1.0000
  H   H461      1.0  0.01044  0.30802  0.90817  1.0000
  S   S160      1.0  0.24572  0.31641  0.97197  1.0000
  H   H462      1.0  0.29977  0.27233  0.73411  1.0000
  C   C478      1.0  0.25470  0.31208  0.84261  1.0000
  H   H463      1.0  0.19152  0.00571  0.77198  1.0000
  Fe  Fe76      1.0  0.35079  0.31543  0.78243  1.0000
  H   H464      1.0  0.35929  0.31738  0.84366  1.0000
  S   S161      1.0  0.34514  0.31640  0.73482  1.0000
  H   H465      1.0  0.30421  0.31348  0.95064  1.0000
  H   H466      1.0  0.16584  0.00053  0.81842  1.0000
  C   C479      1.0  0.11649  0.13228  0.73712  1.0000
  C   C480      1.0  0.26809  0.31143  0.81151  1.0000
  H   H467      1.0  0.01770  0.31741  0.88460  1.0000
  H   H468      1.0  0.27263  0.31830  0.79783  1.0000
  H   H469      1.0  0.34507  0.28327  0.73020  1.0000
  C   C481      1.0  0.12501  0.48259  0.98383  1.0000
  Fe  Fe77      1.0  0.14304  0.63863  0.12836  1.0000
  C   C482      1.0  0.02763  0.56970  0.04433  1.0000
  H   H470      1.0  0.40351  0.35363  0.04556  1.0000
  H   H471      1.0  0.20491  0.34608  0.03505  1.0000
  S   S162      1.0  0.22590  0.61351  0.22104  1.0000
  H   H472      1.0  0.14170  0.44136  0.01325  1.0000
  C   C483      1.0  0.03147  0.57529  0.99497  1.0000
  H   H473      1.0  0.42106  0.35248  0.98042  1.0000
  C   C484      1.0  0.11589  0.44619  0.03112  1.0000
  C   C485      1.0  0.12647  0.47623  0.03512  1.0000
  H   H474      1.0  0.21262  0.59537  0.15966  1.0000
  S   S163      1.0  0.45761  0.35568  0.01130  1.0000
  S   S164      1.0  0.06364  0.62463  0.10148  1.0000
  H   H475      1.0  0.07108  0.46334  0.01804  1.0000
  H   H476      1.0  0.23782  0.34476  0.05726  1.0000
  H   H477      1.0  0.19230  0.57292  0.16462  1.0000
  H   H478      1.0  0.18514  0.34279  0.20615  1.0000
  Fe  Fe78      1.0  0.13074  0.38942  0.98184  1.0000
  H   H479      1.0  0.12190  0.50494  0.99631  1.0000
  H   H480      1.0  0.05765  0.55511  0.09331  1.0000
  C   C486      1.0  0.03199  0.51914  0.03605  1.0000
  Fe  Fe79      1.0  0.08024  0.51834  0.08245  1.0000
  C   C487      1.0  0.20546  0.56369  0.16124  1.0000
  C   C488      1.0  0.01884  0.59541  0.10190  1.0000
  Fe  Fe80      1.0  0.20211  0.34728  0.12955  1.0000
  H   H481      1.0  0.07038  0.51593  0.05034  1.0000
  Fe  Fe81      1.0  0.19010  0.38512  0.13717  1.0000
  S   S165      1.0  0.16113  0.38330  0.14486  1.0000
  S   S166      1.0  0.19540  0.41227  0.13612  1.0000
  Fe  Fe82      1.0  0.17054  0.35561  0.16006  1.0000
  Fe  Fe83      1.0  0.16706  0.37061  0.12106  1.0000
  S   S167      1.0  0.14799  0.38146  0.10216  1.0000
  S   S168      1.0  0.19945  0.35824  0.15414  1.0000
  S   S169      1.0  0.19553  0.37447  0.11196  1.0000
  Fe  Fe84      1.0  0.15556  0.37754  0.00845  1.0000
  H   H482      1.0  0.31387  0.32834  0.10528  1.0000
  S   S170      1.0  0.16968  0.35606  0.02815  1.0000
  S   S171      1.0  0.17370  0.34258  0.13686  1.0000
  S   S172      1.0  0.09078  0.52627  0.10246  1.0000
  Fe  Fe85      1.0  0.11242  0.50152  0.10040  1.0000
  S   S173      1.0  0.12471  0.48202  0.12254  1.0000
  S   S174      1.0  0.13120  0.51527  0.07764  1.0000
  H   H483      1.0  0.01698  0.56161  0.04823  1.0000
  S   S175      1.0  0.16264  0.63009  0.10438  1.0000
  N   N42       1.0  0.40986  0.36793  0.00051  1.0000
  Fe  Fe86      1.0  0.16758  0.61681  0.15405  1.0000
  S   S176      1.0  0.18930  0.60727  0.13180  1.0000
  S   S177      1.0  0.16918  0.60266  0.18256  1.0000
  N   N43       1.0  0.10255  0.63407  0.06114  1.0000
  Fe  Fe87      1.0  0.16675  0.60268  0.12206  1.0000
  S   S178      1.0  0.16959  0.57546  0.11596  1.0000
  H   H484      1.0  0.02828  0.55692  0.08620  1.0000
  S   S179      1.0  0.14531  0.61077  0.14504  1.0000
  Fe  Fe88      1.0  0.18024  0.50132  0.20972  1.0000
  C   C489      1.0  0.40865  0.36237  0.98454  1.0000
  S   S180      1.0  0.19903  0.52070  0.20131  1.0000
  Fe  Fe89      1.0  0.16933  0.46612  0.21149  1.0000
  H   H485      1.0  0.12138  0.62445  0.07844  1.0000
  S   S181      1.0  0.17362  0.43676  0.21082  1.0000
  Fe  Fe90      1.0  0.14462  0.50189  0.20204  1.0000
  S   S182      1.0  0.12485  0.51809  0.18524  1.0000
  H   H486      1.0  0.10686  0.41868  0.06820  1.0000
  H   H487      1.0  0.07472  0.58663  0.09514  1.0000
  S   S183      1.0  0.17282  0.49043  0.18946  1.0000
  H   H488      1.0  0.12022  0.35556  0.10293  1.0000
  H   H489      1.0  0.13362  0.56026  0.14541  1.0000
  H   H490      1.0  0.09160  0.50187  0.01419  1.0000
  S   S184      1.0  0.05036  0.52211  0.08550  1.0000
  H   H491      1.0  0.21661  0.34701  0.98068  1.0000
  S   S185      1.0  0.09992  0.49201  0.08295  1.0000
  C   C490      1.0  0.16008  0.55305  0.18252  1.0000
  H   H492      1.0  0.00811  0.60697  0.10403  1.0000
  C   C491      1.0  0.07304  0.47738  0.01530  1.0000
  H   H493      1.0  0.08573  0.41689  0.06458  1.0000
  C   C492      1.0  0.27075  0.33279  0.07358  1.0000
  C   C493      1.0  0.09226  0.62300  0.11573  1.0000
  C   C494      1.0  0.10447  0.63033  0.12046  1.0000
  H   H494      1.0  0.20998  0.56596  0.14640  1.0000
  H   H495      1.0  0.09406  0.60859  0.11766  1.0000
  H   H496      1.0  0.11570  0.62157  0.12583  1.0000
  C   C495      1.0  0.12626  0.56937  0.08998  1.0000
  C   C496      1.0  0.14068  0.55511  0.09311  1.0000
  C   C497      1.0  0.15394  0.55711  0.10107  1.0000
  C   C498      1.0  0.15275  0.57330  0.10609  1.0000
  C   C499      1.0  0.13810  0.58742  0.10337  1.0000
  C   C500      1.0  0.12490  0.58542  0.09534  1.0000
  H   H497      1.0  0.16530  0.54618  0.10300  1.0000
  H   H498      1.0  0.13701  0.59989  0.10737  1.0000
  H   H499      1.0  0.11354  0.59625  0.09337  1.0000
  C   C501      1.0  0.12590  0.49269  0.13909  1.0000
  C   C502      1.0  0.11500  0.50949  0.14084  1.0000
  C   C503      1.0  0.11492  0.51733  0.15492  1.0000
  C   C504      1.0  0.12580  0.50841  0.16729  1.0000
  C   C505      1.0  0.13705  0.49175  0.16539  1.0000
  C   C506      1.0  0.13716  0.48393  0.15123  1.0000
  H   H500      1.0  0.10627  0.51632  0.13164  1.0000
  H   H501      1.0  0.10623  0.53024  0.15634  1.0000
  H   H502      1.0  0.14537  0.48467  0.17499  1.0000
  H   H503      1.0  0.14574  0.47098  0.14989  1.0000
  C   C507      1.0  0.11347  0.63609  0.07119  1.0000
  C   C508      1.0  0.03022  0.56745  0.09168  1.0000
  S   S186      1.0  0.48992  0.32164  0.02057  1.0000
  C   C509      1.0  0.11527  0.36352  0.09108  1.0000
  N   N44       1.0  0.09101  0.47911  0.00445  1.0000
  H   H504      1.0  0.06003  0.51520  0.02332  1.0000
  C   C510      1.0  0.10436  0.38485  0.06031  1.0000
  H   H505      1.0  0.19169  0.32408  0.19550  1.0000
  C   C511      1.0  0.15552  0.37462  0.08150  1.0000
  C   C512      1.0  0.14804  0.38508  0.06698  1.0000
  C   C513      1.0  0.15215  0.37915  0.05084  1.0000
  C   C514      1.0  0.16427  0.36300  0.04881  1.0000
  C   C515      1.0  0.17200  0.35255  0.06329  1.0000
  C   C516      1.0  0.16768  0.35840  0.07964  1.0000
  H   H506      1.0  0.13870  0.39765  0.06831  1.0000
  H   H507      1.0  0.14548  0.38695  0.04018  1.0000
  H   H508      1.0  0.14220  0.57710  0.18967  1.0000
  H   H509      1.0  0.17334  0.35015  0.09094  1.0000
  C   C517      1.0  0.18921  0.41906  0.15690  1.0000
  C   C518      1.0  0.18843  0.43696  0.15740  1.0000
  C   C519      1.0  0.18352  0.44261  0.17386  1.0000
  C   C520      1.0  0.17970  0.43027  0.18992  1.0000
  C   C521      1.0  0.18043  0.41239  0.18941  1.0000
  C   C522      1.0  0.18499  0.40683  0.17293  1.0000
  H   H510      1.0  0.19178  0.44646  0.14506  1.0000
  H   H511      1.0  0.18302  0.45640  0.17412  1.0000
  H   H512      1.0  0.17742  0.40280  0.20178  1.0000
  H   H513      1.0  0.18550  0.39302  0.17267  1.0000
  C   C523      1.0  0.21086  0.61010  0.20968  1.0000
  C   C524      1.0  0.20570  0.62326  0.19512  1.0000
  C   C525      1.0  0.19314  0.62103  0.18638  1.0000
  C   C526      1.0  0.18545  0.60578  0.19246  1.0000
  C   C527      1.0  0.19067  0.59263  0.20694  1.0000
  C   C528      1.0  0.20354  0.59465  0.21531  1.0000
  H   H514      1.0  0.21137  0.63524  0.19064  1.0000
  H   H515      1.0  0.18915  0.63124  0.17519  1.0000
  H   H516      1.0  0.18485  0.58075  0.21158  1.0000
  H   H517      1.0  0.42569  0.39864  0.01210  1.0000
  C   C529      1.0  0.10766  0.38180  0.09013  1.0000
  N   N45       1.0  0.04916  0.57949  0.10318  1.0000
  C   C530      1.0  0.07786  0.63426  0.10843  1.0000
  C   C531      1.0  0.03798  0.60154  0.00047  1.0000
  C   C532      1.0  0.16461  0.54116  0.17079  1.0000
  H   H518      1.0  0.14938  0.53205  0.13865  1.0000
  Fe  Fe91      1.0  0.48657  0.35161  0.01317  1.0000
  C   C533      1.0  0.20750  0.52224  0.21934  1.0000
  H   H519      1.0  0.04027  0.56084  0.04781  1.0000
  C   C534      1.0  0.16056  0.53155  0.14513  1.0000
  S   S187      1.0  0.14036  0.47693  0.22241  1.0000
  H   H520      1.0  0.00521  0.52345  0.05231  1.0000
  C   C535      1.0  0.20994  0.53888  0.22058  1.0000
  C   C536      1.0  0.02519  0.52279  0.06691  1.0000
  N   N46       1.0  0.15502  0.54369  0.15779  1.0000
  S   S188      1.0  0.15531  0.34852  0.18863  1.0000
  S   S189      1.0  0.22401  0.32402  0.12129  1.0000
  C   C537      1.0  0.03541  0.59385  0.01881  1.0000
  C   C538      1.0  0.24503  0.34507  0.09510  1.0000
  C   C539      1.0  0.15333  0.32602  0.19748  1.0000
  H   H521      1.0  0.39675  0.35614  0.98718  1.0000
  S   S190      1.0  0.12550  0.38387  0.01193  1.0000
  H   H522      1.0  0.22784  0.53933  0.18037  1.0000
  H   H523      1.0  0.00372  0.62996  0.00400  1.0000
  C   C540      1.0  0.03570  0.59229  0.98854  1.0000
  C   C541      1.0  0.05036  0.51700  0.03557  1.0000
  H   H524      1.0  0.23695  0.35637  0.10090  1.0000
  H   H525      1.0  0.26293  0.36070  0.07553  1.0000
  H   H526      1.0  0.22266  0.33155  0.07331  1.0000
  Fe  Fe92      1.0  0.11699  0.50777  0.06015  1.0000
  H   H527      1.0  0.10687  0.38775  0.10138  1.0000
  H   H528      1.0  0.09631  0.61601  0.04846  1.0000
  H   H529      1.0  0.07459  0.56469  0.10932  1.0000
  C   C542      1.0  0.05618  0.51764  0.05078  1.0000
  H   H530      1.0  0.06248  0.48651  0.00828  1.0000
  H   H531      1.0  0.17206  0.53553  0.13449  1.0000
  H   H532      1.0  0.25219  0.57663  0.19251  1.0000
  S   S191      1.0  0.10824  0.42853  0.02760  1.0000
  H   H533      1.0  0.09116  0.45481  0.04916  1.0000
  H   H534      1.0  0.10015  0.48169  0.05196  1.0000
  H   H535      1.0  0.12471  0.58131  0.16616  1.0000
  H   H536      1.0  0.18101  0.33979  0.06206  1.0000
  C   C543      1.0  0.40707  0.36207  0.03247  1.0000
  H   H537      1.0  0.01539  0.52494  0.07905  1.0000
  C   C544      1.0  0.04357  0.52057  0.06648  1.0000
  C   C545      1.0  0.02918  0.56796  0.01334  1.0000
  C   C546      1.0  0.14567  0.56760  0.18085  1.0000
  H   H538      1.0  0.10060  0.39321  0.04802  1.0000
  C   C547      1.0  0.09218  0.64881  0.05247  1.0000
  Fe  Fe93      1.0  0.12821  0.41224  0.00869  1.0000
  C   C548      1.0  0.41447  0.37695  0.03070  1.0000
  N   N47       1.0  0.22686  0.32900  0.04628  1.0000
  C   C549      1.0  0.13285  0.44977  0.02217  1.0000
  H   H539      1.0  0.06530  0.58440  0.11877  1.0000
  H   H540      1.0  0.02290  0.58041  0.05234  1.0000
  H   H541      1.0  0.20545  0.55088  0.21123  1.0000
  C   C550      1.0  0.11566  0.49462  0.99500  1.0000
  H   H542      1.0  0.17588  0.52992  0.17213  1.0000
  C   C551      1.0  0.14418  0.32118  0.21526  1.0000
  H   H543      1.0  0.16447  0.51742  0.15216  1.0000
  S   S192      1.0  0.16319  0.64583  0.13967  1.0000
  C   C552      1.0  0.09545  0.41156  0.07368  1.0000
  S   S193      1.0  0.99642  0.62324  0.06924  1.0000
  C   C553      1.0  0.22521  0.33980  0.05950  1.0000
  S   S194      1.0  0.02494  0.51899  0.01666  1.0000
  H   H544      1.0  0.03666  0.60136  0.02805  1.0000
  H   H545      1.0  0.20708  0.32735  0.01347  1.0000
  C   C554      1.0  0.01623  0.58212  0.09460  1.0000
  C   C555      1.0  0.14094  0.55799  0.15599  1.0000
  H   H546      1.0  0.15119  0.46765  0.01705  1.0000
  C   C556      1.0  0.19275  0.32865  0.20736  1.0000
  C   C557      1.0  0.01941  0.52206  0.05174  1.0000
  H   H547      1.0  0.39895  0.34625  0.01869  1.0000
  C   C558      1.0  0.10958  0.47252  0.04419  1.0000
  C   C559      1.0  0.13817  0.46473  0.02424  1.0000
  C   C560      1.0  0.09853  0.49274  0.00519  1.0000
  N   N48       1.0  0.21884  0.56704  0.16931  1.0000
  C   C561      1.0  0.22087  0.58428  0.16719  1.0000
  C   C562      1.0  0.22931  0.55305  0.17875  1.0000
  C   C563      1.0  0.23310  0.58794  0.17524  1.0000
  C   C564      1.0  0.24143  0.55626  0.18726  1.0000
  C   C565      1.0  0.24319  0.57386  0.18562  1.0000
  S   S195      1.0  0.11011  0.56775  0.07886  1.0000
  N   N49       1.0  0.03062  0.57745  0.02505  1.0000
  H   H548      1.0  0.13787  0.33141  0.22314  1.0000
  H   H549      1.0  0.23435  0.60168  0.17389  1.0000
  H   H550      1.0  0.24906  0.54518  0.19545  1.0000
  N   N50       1.0  0.10222  0.39219  0.07490  1.0000
  H   H551      1.0  0.31324  0.32553  0.08336  1.0000
  H   H552      1.0  0.41672  0.38018  0.04243  1.0000
  Fe  Fe94      1.0  0.18311  0.63571  0.11648  1.0000
  C   C566      1.0  0.10438  0.45741  0.04235  1.0000
  S   S196      1.0  0.28974  0.33619  0.05643  1.0000
  N   N51       1.0  0.16286  0.44801  0.10155  1.0000
  C   C567      1.0  0.16567  0.43062  0.09967  1.0000
  C   C568      1.0  0.15490  0.46181  0.08973  1.0000
  C   C569      1.0  0.16021  0.42668  0.08579  1.0000
  C   C570      1.0  0.14919  0.45834  0.07577  1.0000
  C   C571      1.0  0.15186  0.44066  0.07381  1.0000
  C   C572      1.0  0.16898  0.45174  0.11604  1.0000
  H   H553      1.0  0.17220  0.41970  0.10893  1.0000
  H   H554      1.0  0.15277  0.47563  0.09110  1.0000
  H   H555      1.0  0.16246  0.41287  0.08435  1.0000
  H   H556      1.0  0.14277  0.46934  0.06655  1.0000
  H   H557      1.0  0.14751  0.43784  0.06298  1.0000
  H   H558      1.0  0.18394  0.44872  0.11343  1.0000
  H   H559      1.0  0.16404  0.46599  0.11745  1.0000
  H   H560      1.0  0.16390  0.44322  0.12907  1.0000
  N   N52       1.0  0.11259  0.46089  0.19011  1.0000
  C   C573      1.0  0.12817  0.44826  0.19109  1.0000
  C   C574      1.0  0.10430  0.46374  0.17605  1.0000
  C   C575      1.0  0.13536  0.43758  0.17817  1.0000
  C   C576      1.0  0.11117  0.45331  0.16289  1.0000
  C   C577      1.0  0.12676  0.44010  0.16403  1.0000
  C   C578      1.0  0.10527  0.47210  0.20365  1.0000
  H   H561      1.0  0.13523  0.44646  0.20180  1.0000
  H   H562      1.0  0.09252  0.47440  0.17469  1.0000
  H   H563      1.0  0.14765  0.42754  0.17898  1.0000
  C   C579      1.0  0.11190  0.36660  0.06082  1.0000
  C   C580      1.0  0.09998  0.46740  0.99332  1.0000
  H   H564      1.0  0.10806  0.46460  0.21697  1.0000
  H   H565      1.0  0.11134  0.48422  0.19953  1.0000
  H   H566      1.0  0.09041  0.47660  0.20533  1.0000
  H   H567      1.0  0.00801  0.63787  0.03106  1.0000
  H   H568      1.0  0.19372  0.37021  0.99526  1.0000
  C   C581      1.0  0.10129  0.61599  0.06043  1.0000
  H   H569      1.0  0.12391  0.34191  0.07663  1.0000
  S   S197      1.0  0.15210  0.51447  0.22073  1.0000
  S   S198      1.0  0.04489  0.63493  0.05965  1.0000
  C   C582      1.0  0.04677  0.56643  0.09589  1.0000
  S   S199      1.0  0.09643  0.53361  0.05848  1.0000
  H   H570      1.0  0.20774  0.58425  0.22612  1.0000
  C   C583      1.0  0.06677  0.57869  0.10682  1.0000
  Fe  Fe95      1.0  0.46201  0.32576  0.01588  1.0000
  H   H571      1.0  0.11392  0.36090  0.04911  1.0000
  C   C584      1.0  0.03547  0.59387  0.10614  1.0000
  H   H572      1.0  0.14191  0.54271  0.08897  1.0000
  S   S200      1.0  0.47091  0.32467  0.98677  1.0000
  H   H573      1.0  0.20314  0.54975  0.16633  1.0000
  C   C585      1.0  0.11746  0.35592  0.07629  1.0000
  H   H574      1.0  0.03734  0.60431  0.11177  1.0000
  H   H575      1.0  0.02583  0.55481  0.01820  1.0000
  C   C586      1.0  0.13591  0.57002  0.16763  1.0000
  Fe  Fe96      1.0  0.10877  0.53954  0.07853  1.0000
  H   H576      1.0  0.16772  0.55099  0.19282  1.0000
  H   H577      1.0  0.11468  0.60673  0.05976  1.0000
  C   C587      1.0  0.25980  0.34746  0.08080  1.0000
  H   H578      1.0  0.21388  0.35164  0.05876  1.0000
  S   S201      1.0  0.15797  0.40565  0.00699  1.0000
  S   S202      1.0  0.13279  0.49569  0.03634  1.0000
  C   C588      1.0  0.40472  0.35782  0.01716  1.0000
  C   C589      1.0  0.21526  0.33397  0.03474  1.0000
  H   H579      1.0  0.09415  0.45645  0.99285  1.0000
  H   H580      1.0  0.09193  0.61053  0.07264  1.0000
  C   C590      1.0  0.41722  0.38249  0.99864  1.0000
  C   C591      1.0  0.99311  0.61883  0.04967  1.0000
  H   H581      1.0  0.13239  0.43209  0.15378  1.0000
  H   H582      1.0  0.10478  0.45590  0.15154  1.0000
  C   C592      1.0  0.41947  0.38733  0.01370  1.0000
  H   H583      1.0  0.08839  0.41472  0.08701  1.0000
  C   C593      1.0  0.24114  0.32796  0.10221  1.0000
  H   H584      1.0  0.02946  0.56801  0.98590  1.0000
  H   H585      1.0  0.17185  0.62065  0.22844  1.0000
  H   H586      1.0  0.07116  0.48086  0.02857  1.0000
  H   H587      1.0  0.27392  0.32517  0.12048  1.0000
  H   H588      1.0  0.00342  0.58331  0.09110  1.0000
  Fe  Fe97      1.0  0.01481  0.64184  0.06724  1.0000
  S   S203      1.0  0.99177  0.55389  0.98976  1.0000
  C   C594      1.0  0.30516  0.32662  0.09703  1.0000
  Fe  Fe98      1.0  0.04460  0.64341  0.08477  1.0000
  H   H589      1.0  0.43437  0.31983  0.99881  1.0000
  H   H590      1.0  0.29444  0.33891  0.09519  1.0000
  H   H591      1.0  0.19913  0.40126  0.98911  1.0000
  C   C595      1.0  0.11712  0.46893  0.98289  1.0000
  H   H592      1.0  0.26138  0.32280  0.99837  1.0000
  C   C596      1.0  0.10197  0.64893  0.11842  1.0000
  S   S204      1.0  0.01456  0.64795  0.09362  1.0000
  C   C597      1.0  0.20614  0.37350  0.98661  1.0000
  H   H593      1.0  0.04107  0.61485  0.99564  1.0000
  C   C598      1.0  0.00043  0.62767  0.03254  1.0000
  H   H594      1.0  0.40714  0.32103  0.98785  1.0000
  H   H595      1.0  0.20710  0.32833  0.20675  1.0000
  Fe  Fe99      1.0  0.46821  0.35447  0.98217  1.0000
  C   C599      1.0  0.20925  0.39086  0.98333  1.0000
  H   H596      1.0  0.42178  0.39022  0.98541  1.0000
  Fe  Fe100     1.0  0.99697  0.53566  0.01581  1.0000
  S   S205      1.0  0.20364  0.65056  0.09674  1.0000
  H   H597      1.0  0.08329  0.64727  0.04471  1.0000
  C   C600      1.0  0.99797  0.62321  0.01724  1.0000
  C   C601      1.0  0.21650  0.32348  0.02240  1.0000
  H   H598      1.0  0.35696  0.62689  0.38109  1.0000
  H   H599      1.0  0.10964  0.49016  0.25259  1.0000
  H   H600      1.0  0.39601  0.59753  0.34411  1.0000
  S   S206      1.0  0.39698  0.54538  0.44294  1.0000
  H   H601      1.0  0.26074  0.64499  0.38328  1.0000
  Fe  Fe101     1.0  0.32865  0.63485  0.34580  1.0000
  S   S207      1.0  0.33288  0.62023  0.32362  1.0000
  S   S208      1.0  0.32526  0.61850  0.37396  1.0000
  H   H602      1.0  0.45031  0.52617  0.39383  1.0000
  H   H603      1.0  0.10292  0.42862  0.25663  1.0000
  S   S209      1.0  0.29529  0.64718  0.29512  1.0000
  H   H604      1.0  0.17279  0.43209  0.24940  1.0000
  Fe  Fe102     1.0  0.35641  0.63359  0.31136  1.0000
  S   S210      1.0  0.38262  0.61637  0.30067  1.0000
  C   C602      1.0  0.48582  0.54567  0.38858  1.0000
  C   C603      1.0  0.20941  0.52802  0.33632  1.0000
  Fe  Fe103     1.0  0.46170  0.61745  0.33981  1.0000
  S   S211      1.0  0.46869  0.62689  0.36117  1.0000
  S   S212      1.0  0.44112  0.63902  0.32720  1.0000
  C   C604      1.0  0.34048  0.53285  0.43422  1.0000
  Fe  Fe104     1.0  0.21475  0.58202  0.28619  1.0000
  C   C605      1.0  0.21817  0.54009  0.23394  1.0000
  S   S213      1.0  0.19336  0.58627  0.31068  1.0000
  Fe  Fe105     1.0  0.12034  0.51935  0.40223  1.0000
  S   S214      1.0  0.12936  0.49064  0.41509  1.0000
  S   S215      1.0  0.10268  0.54035  0.41748  1.0000
  Fe  Fe106     1.0  0.14231  0.51387  0.36537  1.0000
  S   S216      1.0  0.15351  0.48479  0.37540  1.0000
  S   S217      1.0  0.14991  0.52370  0.33561  1.0000
  Fe  Fe107     1.0  0.12518  0.48395  0.39052  1.0000
  S   S218      1.0  0.10844  0.46416  0.39112  1.0000
  Fe  Fe108     1.0  0.15664  0.49452  0.39868  1.0000
  S   S219      1.0  0.18057  0.48693  0.41173  1.0000
  S   S220      1.0  0.11377  0.51256  0.37896  1.0000
  S   S221      1.0  0.14783  0.52367  0.38729  1.0000
  Fe  Fe109     1.0  0.10776  0.37978  0.30327  1.0000
  S   S222      1.0  0.10671  0.37215  0.33288  1.0000
  S   S223      1.0  0.12084  0.36329  0.28206  1.0000
  Fe  Fe110     1.0  0.08541  0.41706  0.30546  1.0000
  S   S224      1.0  0.08159  0.41253  0.33536  1.0000
  S   S225      1.0  0.07637  0.44354  0.28790  1.0000
  Fe  Fe111     1.0  0.11100  0.39996  0.33056  1.0000
  S   S226      1.0  0.13127  0.40588  0.34294  1.0000
  Fe  Fe112     1.0  0.07740  0.38531  0.33522  1.0000
  S   S227      1.0  0.05831  0.37045  0.35697  1.0000
  S   S228      1.0  0.11510  0.40614  0.30061  1.0000
  S   S229      1.0  0.07820  0.39114  0.30568  1.0000
  C   C606      1.0  0.00689  0.36361  0.34438  1.0000
  Fe  Fe113     1.0  0.23887  0.59056  0.42282  1.0000
  S   S230      1.0  0.25594  0.56620  0.41279  1.0000
  S   S231      1.0  0.24324  0.61801  0.40817  1.0000
  Fe  Fe114     1.0  0.21533  0.56911  0.45279  1.0000
  S   S232      1.0  0.23037  0.54285  0.44529  1.0000
  Fe  Fe115     1.0  0.25502  0.55402  0.44200  1.0000
  S   S233      1.0  0.27924  0.53660  0.45263  1.0000
  Fe  Fe116     1.0  0.22973  0.55766  0.41695  1.0000
  S   S234      1.0  0.22268  0.55019  0.39421  1.0000
  S   S235      1.0  0.23991  0.57916  0.45176  1.0000
  S   S236      1.0  0.21264  0.58310  0.42483  1.0000
  C   C607      1.0  0.07148  0.33880  0.32232  1.0000
  H   H605      1.0  0.07262  0.33860  0.33615  1.0000
  C   C608      1.0  0.17457  0.62073  0.24125  1.0000
  H   H606      1.0  0.35390  0.62297  0.28068  1.0000
  C   C609      1.0  0.32281  0.62041  0.25900  1.0000
  C   C610      1.0  0.30376  0.53392  0.47268  1.0000
  C   C611      1.0  0.29007  0.54541  0.46440  1.0000
  N   N53       1.0  0.20496  0.51542  0.32807  1.0000
  C   C612      1.0  0.17322  0.60823  0.27226  1.0000
  H   H607      1.0  0.38170  0.63480  0.38975  1.0000
  C   C613      1.0  0.10464  0.45260  0.29537  1.0000
  C   C614      1.0  0.09239  0.45677  0.28407  1.0000
  C   C615      1.0  0.09390  0.47068  0.26890  1.0000
  Fe  Fe117     1.0  0.48857  0.58210  0.34520  1.0000
  H   H608      1.0  0.10324  0.44225  0.30739  1.0000
  H   H609      1.0  0.08432  0.47406  0.26025  1.0000
  C   C616      1.0  0.11522  0.45030  0.37521  1.0000
  C   C617      1.0  0.13340  0.44355  0.36872  1.0000
  C   C618      1.0  0.13825  0.43050  0.35804  1.0000
  C   C619      1.0  0.12498  0.42451  0.35345  1.0000
  C   C620      1.0  0.10685  0.43213  0.35905  1.0000
  C   C621      1.0  0.10199  0.44477  0.37011  1.0000
  H   H610      1.0  0.14369  0.44765  0.37269  1.0000
  H   H611      1.0  0.15231  0.42463  0.35380  1.0000
  H   H612      1.0  0.09651  0.42757  0.35573  1.0000
  H   H613      1.0  0.08790  0.44996  0.37510  1.0000
  C   C622      1.0  0.19289  0.50406  0.40663  1.0000
  C   C623      1.0  0.20165  0.50584  0.41931  1.0000
  C   C624      1.0  0.21082  0.52000  0.41570  1.0000
  C   C625      1.0  0.21159  0.53215  0.39923  1.0000
  C   C626      1.0  0.20316  0.53013  0.38641  1.0000
  C   C627      1.0  0.19374  0.51620  0.39015  1.0000
  H   H614      1.0  0.20110  0.49643  0.43204  1.0000
  H   H615      1.0  0.21741  0.52138  0.42559  1.0000
  H   H616      1.0  0.20370  0.53955  0.37370  1.0000
  H   H617      1.0  0.18723  0.51477  0.38024  1.0000
  C   C628      1.0  0.18088  0.56919  0.31765  1.0000
  C   C629      1.0  0.18194  0.55791  0.30612  1.0000
  C   C630      1.0  0.17194  0.54434  0.31161  1.0000
  C   C631      1.0  0.16130  0.54155  0.32890  1.0000
  C   C632      1.0  0.16029  0.55270  0.34055  1.0000
  C   C633      1.0  0.16993  0.56666  0.33484  1.0000
  H   H618      1.0  0.19046  0.55955  0.29296  1.0000
  H   H619      1.0  0.17280  0.53571  0.30257  1.0000
  H   H620      1.0  0.15186  0.55080  0.35383  1.0000
  H   H621      1.0  0.16902  0.57537  0.34382  1.0000
  C   C634      1.0  0.03318  0.37750  0.33585  1.0000
  C   C635      1.0  0.03847  0.36821  0.35193  1.0000
  H   H622      1.0  0.04110  0.38657  0.32635  1.0000
  C   C636      1.0  0.28564  0.56360  0.46534  1.0000
  C   C637      1.0  0.39992  0.62283  0.30628  1.0000
  C   C638      1.0  0.39726  0.64015  0.30929  1.0000
  H   H623      1.0  0.01333  0.38251  0.31969  1.0000
  C   C639      1.0  0.42592  0.63260  0.31847  1.0000
  C   C640      1.0  0.42891  0.61534  0.31504  1.0000
  C   C641      1.0  0.41593  0.61050  0.30880  1.0000
  H   H624      1.0  0.16582  0.31938  0.26749  1.0000
  C   C642      1.0  0.11083  0.53620  0.47386  1.0000
  H   H625      1.0  0.44116  0.60576  0.31724  1.0000
  H   H626      1.0  0.41809  0.59710  0.30635  1.0000
  C   C643      1.0  0.30251  0.61878  0.38404  1.0000
  C   C644      1.0  0.28918  0.63357  0.37914  1.0000
  C   C645      1.0  0.27102  0.63351  0.38711  1.0000
  C   C646      1.0  0.26612  0.61851  0.39971  1.0000
  C   C647      1.0  0.27947  0.60382  0.40484  1.0000
  C   C648      1.0  0.29767  0.60401  0.39705  1.0000
  H   H627      1.0  0.18001  0.56566  0.41495  1.0000
  H   H628      1.0  0.42040  0.60560  0.35314  1.0000
  H   H629      1.0  0.27578  0.59234  0.41477  1.0000
  H   H630      1.0  0.30798  0.59257  0.40072  1.0000
  C   C649      1.0  0.41203  0.56013  0.43286  1.0000
  C   C650      1.0  0.41765  0.56393  0.41409  1.0000
  C   C651      1.0  0.43051  0.57474  0.40577  1.0000
  C   C652      1.0  0.43780  0.58185  0.41620  1.0000
  C   C653      1.0  0.43186  0.57838  0.43491  1.0000
  C   C654      1.0  0.41904  0.56756  0.44323  1.0000
  H   H631      1.0  0.41229  0.55819  0.40600  1.0000
  H   H632      1.0  0.43503  0.57722  0.39136  1.0000
  H   H633      1.0  0.43739  0.58388  0.44307  1.0000
  H   H634      1.0  0.41480  0.56473  0.45770  1.0000
  C   C655      1.0  0.47412  0.53758  0.38409  1.0000
  H   H635      1.0  0.03671  0.33768  0.33286  1.0000
  C   C656      1.0  0.15856  0.53068  0.43294  1.0000
  C   C657      1.0  0.12930  0.43259  0.25616  1.0000
  H   H636      1.0  0.15738  0.63424  0.47374  1.0000
  C   C658      1.0  0.37492  0.61129  0.36239  1.0000
  H   H637      1.0  0.24363  0.54356  0.47952  1.0000
  H   H638      1.0  0.08023  0.47813  0.34333  1.0000
  H   H639      1.0  0.22044  0.55287  0.23453  1.0000
  H   H640      1.0  0.12372  0.38909  0.40762  1.0000
  N   N54       1.0  0.06310  0.32405  0.32250  1.0000
  C   C659      1.0  0.10414  0.55281  0.46372  1.0000
  C   C660      1.0  0.10202  0.55403  0.44628  1.0000
  C   C661      1.0  0.10692  0.53872  0.43874  1.0000
  C   C662      1.0  0.11409  0.52218  0.44871  1.0000
  N   N55       1.0  0.16409  0.54221  0.45603  1.0000
  H   H641      1.0  0.13284  0.39570  0.38388  1.0000
  H   H642      1.0  0.09654  0.56688  0.43860  1.0000
  H   H643      1.0  0.11770  0.51025  0.44314  1.0000
  C   C663      1.0  0.29480  0.57019  0.47464  1.0000
  N   N56       1.0  0.14712  0.42495  0.25547  1.0000
  C   C664      1.0  0.22377  0.52467  0.24627  1.0000
  C   C665      1.0  0.15343  0.40745  0.25371  1.0000
  H   H644      1.0  0.08847  0.41798  0.40517  1.0000
  C   C666      1.0  0.18406  0.63325  0.24200  1.0000
  H   H645      1.0  0.22025  0.52100  0.34383  1.0000
  C   C667      1.0  0.15922  0.43506  0.25810  1.0000
  C   C668      1.0  0.39281  0.60538  0.35443  1.0000
  H   H646      1.0  0.48912  0.57209  0.40891  1.0000
  C   C669      1.0  0.06334  0.53961  0.45823  1.0000
  C   C670      1.0  0.14172  0.39713  0.25272  1.0000
  H   H647      1.0  0.14539  0.50533  0.30846  1.0000
  C   C671      1.0  0.13240  0.51266  0.30462  1.0000
  C   C672      1.0  0.45688  0.53529  0.41446  1.0000
  H   H648      1.0  0.47633  0.53556  0.37048  1.0000
  Fe  Fe118     1.0  0.46786  0.59892  0.37702  1.0000
  H   H649      1.0  0.03181  0.34962  0.37680  1.0000
  C   C673      1.0  0.46867  0.54372  0.41839  1.0000
  H   H650      1.0  0.15212  0.51944  0.46107  1.0000
  C   C674      1.0  0.19395  0.50398  0.33830  1.0000
  C   C675      1.0  0.29791  0.61048  0.30188  1.0000
  H   H651      1.0  0.05980  0.39310  0.38188  1.0000
  C   C676      1.0  0.19636  0.49144  0.31264  1.0000
  H   H652      1.0  0.11417  0.39668  0.25358  1.0000
  C   C677      1.0  0.28996  0.62741  0.29326  1.0000
  H   H653      1.0  0.12491  0.50162  0.34005  1.0000
  H   H654      1.0  0.34206  0.57456  0.45777  1.0000
  H   H655      1.0  0.33908  0.57654  0.27504  1.0000
  C   C678      1.0  0.34817  0.54479  0.43885  1.0000
  H   H656      1.0  0.26580  0.61423  0.27037  1.0000
  N   N57       1.0  0.34802  0.59866  0.27861  1.0000
  C   C679      1.0  0.33778  0.59101  0.27220  1.0000
  C   C680      1.0  0.34590  0.61694  0.27544  1.0000
  C   C681      1.0  0.32514  0.60175  0.26219  1.0000
  C   C682      1.0  0.33320  0.62808  0.26570  1.0000
  H   H657      1.0  0.36264  0.57042  0.44131  1.0000
  H   H658      1.0  0.08852  0.37345  0.37082  1.0000
  H   H659      1.0  0.21382  0.53957  0.32609  1.0000
  H   H660      1.0  0.15412  0.44979  0.25457  1.0000
  C   C683      1.0  0.27457  0.61311  0.27932  1.0000
  H   H661      1.0  0.16753  0.40136  0.25329  1.0000
  H   H662      1.0  0.36215  0.57287  0.29035  1.0000
  C   C684      1.0  0.37092  0.62192  0.37516  1.0000
  H   H663      1.0  0.29131  0.58427  0.47531  1.0000
  C   C685      1.0  0.12348  0.40479  0.25362  1.0000
  H   H664      1.0  0.22112  0.52365  0.30226  1.0000
  H   H665      1.0  0.12562  0.33471  0.26392  1.0000
  C   C686      1.0  0.16096  0.59431  0.25475  1.0000
  C   C687      1.0  0.41723  0.62506  0.37716  1.0000
  H   H666      1.0  0.22533  0.49608  0.25477  1.0000
  H   H667      1.0  0.12949  0.52649  0.30715  1.0000
  C   C688      1.0  0.12461  0.33993  0.28974  1.0000
  H   H668      1.0  0.08375  0.48732  0.31012  1.0000
  Fe  Fe119     1.0  0.23019  0.59328  0.24648  1.0000
  Fe  Fe120     1.0  0.31680  0.64552  0.31009  1.0000
  Fe  Fe121     1.0  0.15093  0.48824  0.23996  1.0000
  H   H669      1.0  0.19736  0.53376  0.34571  1.0000
  Fe  Fe122     1.0  0.38528  0.54212  0.47283  1.0000
  C   C689      1.0  0.10215  0.48970  0.34382  1.0000
  C   C690      1.0  0.11719  0.42267  0.25528  1.0000
  S   S237      1.0  0.23227  0.60176  0.27101  1.0000
  H   H670      1.0  0.17159  0.58280  0.25078  1.0000
  C   C691      1.0  0.40653  0.61001  0.35957  1.0000
  H   H671      1.0  0.18026  0.48322  0.33879  1.0000
  S   S238      1.0  0.23757  0.55878  0.28990  1.0000
  C   C692      1.0  0.11890  0.46164  0.29106  1.0000
  H   H672      1.0  0.00398  0.34575  0.37022  1.0000
  C   C693      1.0  0.12097  0.47486  0.27540  1.0000
  C   C694      1.0  0.45959  0.53232  0.39715  1.0000
  H   H673      1.0  0.34679  0.51871  0.43569  1.0000
  H   H674      1.0  0.06321  0.35201  0.31723  1.0000
  H   H675      1.0  0.19277  0.48231  0.30653  1.0000
  H   H676      1.0  0.27535  0.57267  0.45873  1.0000
  H   H677      1.0  0.30343  0.56225  0.42238  1.0000
  H   H678      1.0  0.34473  0.58862  0.43552  1.0000
  C   C695      1.0  0.34773  0.57466  0.44330  1.0000
  H   H679      1.0  0.31737  0.58281  0.43102  1.0000
  C   C696      1.0  0.31624  0.55734  0.42662  1.0000
  S   S239      1.0  0.45492  0.59438  0.40658  1.0000
  S   S240      1.0  0.27983  0.57646  0.28324  1.0000
  N   N58       1.0  0.24370  0.59249  0.33931  1.0000
  C   C697      1.0  0.23871  0.58908  0.35764  1.0000
  C   C698      1.0  0.25245  0.60624  0.33046  1.0000
  C   C699      1.0  0.24290  0.59930  0.36760  1.0000
  C   C700      1.0  0.25698  0.61663  0.33998  1.0000
  C   C701      1.0  0.25213  0.61311  0.35868  1.0000
  C   C702      1.0  0.23883  0.58200  0.32900  1.0000
  H   H680      1.0  0.23145  0.57843  0.36469  1.0000
  H   H681      1.0  0.25597  0.60926  0.31594  1.0000
  H   H682      1.0  0.23896  0.59660  0.38215  1.0000
  H   H683      1.0  0.26416  0.62738  0.33290  1.0000
  H   H684      1.0  0.25537  0.62114  0.36627  1.0000
  H   H685      1.0  0.23754  0.56833  0.33695  1.0000
  H   H686      1.0  0.22577  0.58893  0.32504  1.0000
  H   H687      1.0  0.24935  0.58022  0.31667  1.0000
  S   S241      1.0  0.21033  0.57588  0.26168  1.0000
  H   H688      1.0  0.20246  0.60355  0.46163  1.0000
  C   C703      1.0  0.29442  0.59490  0.29898  1.0000
  S   S242      1.0  0.25461  0.57085  0.24707  1.0000
  H   H689      1.0  0.15527  0.60440  0.47445  1.0000
  C   C704      1.0  0.15780  0.52992  0.45104  1.0000
  H   H690      1.0  0.46601  0.54671  0.43164  1.0000
  H   H691      1.0  0.12471  0.34073  0.31681  1.0000
  H   H692      1.0  0.13423  0.51343  0.28999  1.0000
  H   H693      1.0  0.10054  0.48608  0.35829  1.0000
  Fe  Fe123     1.0  0.25510  0.57790  0.27289  1.0000
  H   H694      1.0  0.31792  0.53004  0.42496  1.0000
  C   C705      1.0  0.21219  0.51477  0.31040  1.0000
  S   S243      1.0  0.13959  0.48510  0.26952  1.0000
  C   C706      1.0  0.18941  0.49189  0.33073  1.0000
  C   C707      1.0  0.32416  0.56886  0.43159  1.0000
  N   N59       1.0  0.34004  0.56256  0.43742  1.0000
  H   H695      1.0  0.05976  0.41554  0.39926  1.0000
  H   H696      1.0  0.10757  0.50395  0.29246  1.0000
  C   C708      1.0  0.09063  0.48543  0.33543  1.0000
  H   H697      1.0  0.12854  0.45809  0.29967  1.0000
  H   H698      1.0  0.35731  0.59025  0.30302  1.0000
  H   H699      1.0  0.07835  0.51376  0.46846  1.0000
  H   H700      1.0  0.31250  0.62891  0.25194  1.0000
  C   C709      1.0  0.17336  0.55584  0.42506  1.0000
  H   H701      1.0  0.21342  0.50261  0.28833  1.0000
  H   H702      1.0  0.30082  0.58181  0.30546  1.0000
  H   H703      1.0  0.18581  0.62033  0.28619  1.0000
  H   H704      1.0  0.18820  0.50446  0.35230  1.0000
  S   S244      1.0  0.23450  0.52588  0.26280  1.0000
  H   H705      1.0  0.16946  0.59821  0.28411  1.0000
  S   S245      1.0  0.45886  0.59008  0.35654  1.0000
  H   H706      1.0  0.30694  0.60935  0.31054  1.0000
  C   C710      1.0  0.05288  0.55586  0.46230  1.0000
  C   C711      1.0  0.10828  0.47965  0.26449  1.0000
  H   H707      1.0  0.16697  0.54453  0.40584  1.0000
  Fe  Fe124     1.0  0.23476  0.55402  0.26406  1.0000
  H   H708      1.0  0.13105  0.60768  0.47800  1.0000
  C   C712      1.0  0.28291  0.59619  0.28755  1.0000
  N   N60       1.0  0.10440  0.39747  0.39112  1.0000
  C   C713      1.0  0.10451  0.38512  0.38160  1.0000
  C   C714      1.0  0.08854  0.40813  0.39768  1.0000
  C   C715      1.0  0.08845  0.38327  0.37833  1.0000
  C   C716      1.0  0.07227  0.40684  0.39437  1.0000
  C   C717      1.0  0.07227  0.39429  0.38465  1.0000
  C   C718      1.0  0.12127  0.39870  0.39505  1.0000
  H   H709      1.0  0.31665  0.59566  0.25758  1.0000
  H   H710      1.0  0.12111  0.50799  0.47405  1.0000
  H   H711      1.0  0.16039  0.43158  0.27238  1.0000
  C   C719      1.0  0.22093  0.50807  0.24533  1.0000
  C   C720      1.0  0.36116  0.58744  0.28924  1.0000
  N   N61       1.0  0.16938  0.60836  0.25623  1.0000
  H   H712      1.0  0.04793  0.56646  0.45182  1.0000
  H   H713      1.0  0.36411  0.60795  0.35841  1.0000
  H   H714      1.0  0.42774  0.61292  0.38035  1.0000
  H   H715      1.0  0.41255  0.63119  0.38922  1.0000
  C   C721      1.0  0.27808  0.62868  0.28221  1.0000
  H   H716      1.0  0.17780  0.56410  0.44725  1.0000
  C   C722      1.0  0.17218  0.55481  0.44331  1.0000
  H   H717      1.0  0.36063  0.53973  0.44371  1.0000
  C   C723      1.0  0.20790  0.50287  0.30241  1.0000
  C   C724      1.0  0.32439  0.53921  0.42808  1.0000
  H   H718      1.0  0.11710  0.37682  0.37621  1.0000
  H   H719      1.0  0.27188  0.64176  0.27551  1.0000
  C   C725      1.0  0.12614  0.33225  0.30749  1.0000
  C   C726      1.0  0.18257  0.62067  0.27351  1.0000
  H   H720      1.0  0.30728  0.51983  0.47200  1.0000
  C   C727      1.0  0.16620  0.54388  0.41992  1.0000
  C   C728      1.0  0.02787  0.35674  0.36427  1.0000
  H   H721      1.0  0.49064  0.65083  0.36097  1.0000
  N   N62       1.0  0.11788  0.50336  0.31517  1.0000
  C   C729      1.0  0.10620  0.49988  0.30689  1.0000
  C   C730      1.0  0.11587  0.49859  0.33342  1.0000
  C   C731      1.0  0.09257  0.49063  0.31684  1.0000
  H   H722      1.0  0.12085  0.41253  0.39650  1.0000
  H   H723      1.0  0.15351  0.52095  0.42901  1.0000
  H   H724      1.0  0.19968  0.62941  0.47544  1.0000
  H   H725      1.0  0.37475  0.59055  0.28302  1.0000
  C   C732      1.0  0.11591  0.52090  0.46628  1.0000
  H   H726      1.0  0.29285  0.64517  0.36941  1.0000
  C   C733      1.0  0.41021  0.64503  0.31535  1.0000
  C   C734      1.0  0.19603  0.60309  0.47561  1.0000
  C   C735      1.0  0.18817  0.63312  0.25823  1.0000
  H   H727      1.0  0.15215  0.58941  0.26769  1.0000
  C   C736      1.0  0.12679  0.32881  0.27768  1.0000
  C   C737      1.0  0.01215  0.35443  0.36051  1.0000
  H   H728      1.0  0.08512  0.33793  0.31347  1.0000
  H   H729      1.0  0.06672  0.53756  0.44453  1.0000
  C   C738      1.0  0.01739  0.37526  0.33213  1.0000
  H   H730      1.0  0.10073  0.56478  0.46919  1.0000
  C   C739      1.0  0.07001  0.52624  0.47181  1.0000
  N   N63       1.0  0.40253  0.62022  0.37230  1.0000
  H   H731      1.0  0.12432  0.44629  0.25779  1.0000
  H   H732      1.0  0.44537  0.53164  0.42463  1.0000
  N   N64       1.0  0.48308  0.54853  0.40559  1.0000
  H   H733      1.0  0.15247  0.59943  0.24447  1.0000
  C   C740      1.0  0.38497  0.62635  0.37996  1.0000
  C   C741      1.0  0.16296  0.54143  0.47507  1.0000
  S   S246      1.0  0.49038  0.60865  0.32628  1.0000
  H   H734      1.0  0.38517  0.64984  0.30693  1.0000
  C   C742      1.0  0.04490  0.32557  0.32858  1.0000
  H   H735      1.0  0.42347  0.63476  0.36580  1.0000
  H   H736      1.0  0.17618  0.53474  0.47869  1.0000
  H   H737      1.0  0.33100  0.64258  0.26387  1.0000
  S   S247      1.0  0.35348  0.64635  0.33458  1.0000
  H   H738      1.0  0.14658  0.38310  0.25185  1.0000
  C   C743      1.0  0.17806  0.32446  0.23922  1.0000
  H   H739      1.0  0.19596  0.64244  0.25887  1.0000
  H   H740      1.0  0.15924  0.55518  0.47794  1.0000
  S   S248      1.0  0.19220  0.56921  0.47653  1.0000
  H   H741      1.0  0.17720  0.33858  0.23863  1.0000
  S   S249      1.0  0.17983  0.47577  0.23063  1.0000
  C   C744      1.0  0.21272  0.50687  0.23192  1.0000
  H   H742      1.0  0.21097  0.49395  0.23100  1.0000
  H   H743      1.0  0.18882  0.64252  0.22990  1.0000
  C   C745      1.0  0.37639  0.51145  0.56048  1.0000
  Fe  Fe125     1.0  0.44521  0.36687  0.59006  1.0000
  S   S250      1.0  0.43348  0.38186  0.56587  1.0000
  H   H744      1.0  0.36750  0.55304  0.59796  1.0000
  Fe  Fe126     1.0  0.41545  0.38704  0.61563  1.0000
  S   S251      1.0  0.40108  0.40334  0.59392  1.0000
  S   S252      1.0  0.40247  0.38977  0.64415  1.0000
  Fe  Fe127     1.0  0.40701  0.37768  0.58414  1.0000
  S   S253      1.0  0.38491  0.37162  0.57494  1.0000
  Fe  Fe128     1.0  0.42842  0.40651  0.57761  1.0000
  S   S254      1.0  0.43284  0.43452  0.56346  1.0000
  S   S255      1.0  0.41886  0.36097  0.60739  1.0000
  S   S256      1.0  0.44269  0.39181  0.60022  1.0000
  Fe  Fe129     1.0  0.05748  0.57341  0.52464  1.0000
  S   S257      1.0  0.07537  0.57816  0.49737  1.0000
  S   S258      1.0  0.02830  0.57259  0.52706  1.0000
  Fe  Fe130     1.0  0.08724  0.57204  0.54344  1.0000
  S   S259      1.0  0.10793  0.57571  0.51795  1.0000
  S   S260      1.0  0.09162  0.56940  0.57118  1.0000
  Fe  Fe131     1.0  0.08564  0.59683  0.50772  1.0000
  S   S261      1.0  0.00176  0.49849  0.55541  1.0000
  Fe  Fe132     1.0  0.09610  0.55673  0.50967  1.0000
  S   S262      1.0  0.11281  0.53410  0.49606  1.0000
  S   S263      1.0  0.06561  0.59447  0.53378  1.0000
  S   S264      1.0  0.07754  0.55067  0.53645  1.0000
  Fe  Fe133     1.0  0.17822  0.59593  0.57284  1.0000
  S   S265      1.0  0.16228  0.62273  0.56239  1.0000
  S   S266      1.0  0.16685  0.57111  0.58532  1.0000
  Fe  Fe134     1.0  0.21295  0.60964  0.56526  1.0000
  S   S267      1.0  0.19984  0.63798  0.55424  1.0000
  S   S268      1.0  0.24311  0.60010  0.56272  1.0000
  Fe  Fe135     1.0  0.17663  0.63343  0.57739  1.0000
  C   C746      1.0  0.35827  0.62792  0.61688  1.0000
  Fe  Fe136     1.0  0.18668  0.62488  0.54038  1.0000
  S   S269      1.0  0.18543  0.63500  0.51140  1.0000
  S   S270      1.0  0.19077  0.60620  0.58974  1.0000
  S   S271      1.0  0.20147  0.59697  0.54948  1.0000
  Fe  Fe137     1.0  0.37394  0.51624  0.50812  1.0000
  H   H745      1.0  0.13516  0.59901  0.59634  1.0000
  S   S272      1.0  0.37288  0.48773  0.52324  1.0000
  Fe  Fe138     1.0  0.34792  0.55104  0.49624  1.0000
  Fe  Fe139     1.0  0.38096  0.55181  0.50885  1.0000
  S   S273      1.0  0.39243  0.56636  0.52289  1.0000
  S   S274      1.0  0.35745  0.53862  0.52200  1.0000
  Fe  Fe140     1.0  0.32527  0.58271  0.65131  1.0000
  S   S275      1.0  0.31586  0.55696  0.65563  1.0000
  S   S276      1.0  0.32352  0.59490  0.67494  1.0000
  Fe  Fe141     1.0  0.33406  0.58666  0.61078  1.0000
  S   S277      1.0  0.32592  0.56113  0.61162  1.0000
  S   S278      1.0  0.34504  0.60492  0.58570  1.0000
  Fe  Fe142     1.0  0.30224  0.57062  0.63248  1.0000
  S   S279      1.0  0.27331  0.57005  0.63386  1.0000
  Fe  Fe143     1.0  0.34039  0.54999  0.63451  1.0000
  S   S280      1.0  0.36080  0.52398  0.63625  1.0000
  S   S281      1.0  0.30943  0.59708  0.62998  1.0000
  S   S282      1.0  0.35068  0.57483  0.63177  1.0000
  C   C747      1.0  0.43806  0.38285  0.69361  1.0000
  Fe  Fe144     1.0  0.42201  0.44447  0.70152  1.0000
  S   S283      1.0  0.39190  0.45150  0.70948  1.0000
  S   S284      1.0  0.43640  0.43705  0.67499  1.0000
  H   H746      1.0  0.41608  0.37903  0.71628  1.0000
  C   C748      1.0  0.33966  0.59354  0.51391  1.0000
  H   H747      1.0  0.06271  0.62777  0.60460  1.0000
  H   H748      1.0  0.03144  0.54662  0.57640  1.0000
  H   H749      1.0  0.99880  0.62866  0.58636  1.0000
  S   S285      1.0  0.42740  0.46815  0.70888  1.0000
  C   C749      1.0  0.36676  0.51787  0.65738  1.0000
  C   C750      1.0  0.35795  0.52801  0.67051  1.0000
  C   C751      1.0  0.36228  0.52290  0.68751  1.0000
  C   C752      1.0  0.37575  0.50785  0.69139  1.0000
  C   C753      1.0  0.38484  0.49780  0.67820  1.0000
  C   C754      1.0  0.38034  0.50282  0.66119  1.0000
  H   H750      1.0  0.34766  0.53974  0.66768  1.0000
  H   H751      1.0  0.35507  0.53053  0.69774  1.0000
  H   H752      1.0  0.39546  0.48632  0.68104  1.0000
  H   H753      1.0  0.38748  0.49521  0.65095  1.0000
  C   C755      1.0  0.37843  0.57692  0.54014  1.0000
  C   C756      1.0  0.36285  0.57105  0.55069  1.0000
  C   C757      1.0  0.35276  0.57918  0.56516  1.0000
  C   C758      1.0  0.35793  0.59356  0.56864  1.0000
  C   C759      1.0  0.37321  0.59962  0.55780  1.0000
  C   C760      1.0  0.38360  0.59111  0.54383  1.0000
  H   H754      1.0  0.35883  0.56001  0.54798  1.0000
  H   H755      1.0  0.34074  0.57467  0.57327  1.0000
  H   H756      1.0  0.37720  0.61079  0.56032  1.0000
  H   H757      1.0  0.39565  0.59566  0.53575  1.0000
  C   C761      1.0  0.25144  0.59326  0.58261  1.0000
  C   C762      1.0  0.23992  0.59386  0.59935  1.0000
  C   C763      1.0  0.24684  0.58731  0.61507  1.0000
  C   C764      1.0  0.26533  0.58049  0.61409  1.0000
  C   C765      1.0  0.27692  0.58040  0.59732  1.0000
  C   C766      1.0  0.26994  0.58649  0.58165  1.0000
  H   H758      1.0  0.22567  0.59914  0.60024  1.0000
  H   H759      1.0  0.23784  0.58744  0.62803  1.0000
  H   H760      1.0  0.29115  0.57489  0.59648  1.0000
  H   H761      1.0  0.27885  0.58548  0.56883  1.0000
  C   C767      1.0  0.24592  0.58341  0.51478  1.0000
  H   H762      1.0  0.21943  0.59346  0.50879  1.0000
  C   C768      1.0  0.18645  0.61708  0.50156  1.0000
  C   C769      1.0  0.37307  0.60571  0.66808  1.0000
  H   H763      1.0  0.99430  0.56346  0.53011  1.0000
  C   C770      1.0  0.36790  0.33741  0.64191  1.0000
  C   C771      1.0  0.18093  0.58749  0.50394  1.0000
  C   C772      1.0  0.17965  0.60198  0.51183  1.0000
  N   N65       1.0  0.37938  0.53468  0.58040  1.0000
  N   N66       1.0  0.32449  0.60208  0.52629  1.0000
  H   H764      1.0  0.17574  0.57578  0.51194  1.0000
  H   H765      1.0  0.17334  0.60150  0.52583  1.0000
  S   S286      1.0  0.02886  0.64354  0.58599  1.0000
  C   C773      1.0  0.11352  0.56892  0.57332  1.0000
  C   C774      1.0  0.11924  0.55850  0.58885  1.0000
  C   C775      1.0  0.13590  0.55887  0.59194  1.0000
  C   C776      1.0  0.14680  0.57010  0.57983  1.0000
  C   C777      1.0  0.14110  0.58074  0.56427  1.0000
  C   C778      1.0  0.12454  0.57996  0.56089  1.0000
  H   H766      1.0  0.11074  0.55008  0.59857  1.0000
  H   H767      1.0  0.14017  0.55069  0.60400  1.0000
  H   H768      1.0  0.14945  0.58948  0.55485  1.0000
  H   H769      1.0  0.12005  0.58825  0.54900  1.0000
  C   C779      1.0  0.08999  0.64069  0.49957  1.0000
  H   H770      1.0  0.99214  0.59810  0.55397  1.0000
  S   S287      1.0  0.09326  0.62208  0.48978  1.0000
  C   C780      1.0  0.18934  0.58794  0.48589  1.0000
  H   H771      1.0  0.24549  0.59477  0.52048  1.0000
  C   C781      1.0  0.39057  0.53383  0.56399  1.0000
  H   H772      1.0  0.07495  0.62949  0.52522  1.0000
  C   C782      1.0  0.26110  0.56952  0.51387  1.0000
  C   C783      1.0  0.38018  0.40148  0.72857  1.0000
  H   H773      1.0  0.08608  0.50605  0.49740  1.0000
  H   H774      1.0  0.35543  0.50362  0.58275  1.0000
  H   H775      1.0  0.45544  0.37595  0.64298  1.0000
  C   C784      1.0  0.02107  0.55191  0.53497  1.0000
  C   C785      1.0  0.03260  0.53613  0.54139  1.0000
  C   C786      1.0  0.02650  0.51986  0.54762  1.0000
  S   S288      1.0  0.38848  0.62385  0.68342  1.0000
  H   H776      1.0  0.18824  0.56625  0.61346  1.0000
  H   H777      1.0  0.04619  0.53639  0.54166  1.0000
  H   H778      1.0  0.03549  0.50770  0.55258  1.0000
  C   C787      1.0  0.12869  0.61892  0.51094  1.0000
  C   C788      1.0  0.41626  0.44920  0.55209  1.0000
  C   C789      1.0  0.41867  0.46663  0.54318  1.0000
  C   C790      1.0  0.40562  0.47856  0.53408  1.0000
  C   C791      1.0  0.39000  0.47315  0.53395  1.0000
  C   C792      1.0  0.38757  0.45579  0.54296  1.0000
  C   C793      1.0  0.40064  0.44384  0.55194  1.0000
  H   H779      1.0  0.43077  0.47083  0.54314  1.0000
  H   H780      1.0  0.40772  0.49184  0.52706  1.0000
  H   H781      1.0  0.37555  0.45148  0.54290  1.0000
  H   H782      1.0  0.39866  0.43043  0.55859  1.0000
  S   S289      1.0  0.42556  0.42623  0.72779  1.0000
  C   C794      1.0  0.05596  0.54481  0.49308  1.0000
  C   C795      1.0  0.37232  0.32759  0.56831  1.0000
  C   C796      1.0  0.41125  0.40377  0.65234  1.0000
  C   C797      1.0  0.42682  0.40998  0.64262  1.0000
  C   C798      1.0  0.43448  0.42005  0.64980  1.0000
  C   C799      1.0  0.42638  0.42433  0.66660  1.0000
  C   C800      1.0  0.41059  0.41842  0.67628  1.0000
  C   C801      1.0  0.40307  0.40810  0.66914  1.0000
  H   H783      1.0  0.43316  0.40691  0.62964  1.0000
  H   H784      1.0  0.44669  0.42462  0.64227  1.0000
  H   H785      1.0  0.40432  0.42159  0.68932  1.0000
  H   H786      1.0  0.39098  0.40336  0.67670  1.0000
  C   C802      1.0  0.38973  0.33564  0.59122  1.0000
  C   C803      1.0  0.38270  0.34934  0.57806  1.0000
  C   C804      1.0  0.37377  0.34530  0.56684  1.0000
  N   N67       1.0  0.06658  0.52910  0.48890  1.0000
  H   H787      1.0  0.36827  0.35586  0.55668  1.0000
  C   C805      1.0  0.08073  0.64082  0.51732  1.0000
  C   C806      1.0  0.14582  0.64764  0.49582  1.0000
  Fe  Fe145     1.0  0.38784  0.63117  0.70962  1.0000
  C   C807      1.0  0.34195  0.60221  0.67744  1.0000
  C   C808      1.0  0.33956  0.61141  0.69122  1.0000
  C   C809      1.0  0.35383  0.61785  0.69338  1.0000
  C   C810      1.0  0.48773  0.33878  0.57684  1.0000
  H   H788      1.0  0.20272  0.55880  0.63983  1.0000
  S   S290      1.0  0.36223  0.52760  0.48331  1.0000
  H   H789      1.0  0.44315  0.39147  0.69905  1.0000
  Fe  Fe146     1.0  0.39739  0.47417  0.71838  1.0000
  C   C811      1.0  0.36997  0.35669  0.65979  1.0000
  S   S291      1.0  0.39834  0.52865  0.49653  1.0000
  C   C812      1.0  0.12574  0.63265  0.52031  1.0000
  H   H790      1.0  0.00462  0.56803  0.56744  1.0000
  C   C813      1.0  0.04382  0.56735  0.57849  1.0000
  H   H791      1.0  0.42140  0.34128  0.56006  1.0000
  C   C814      1.0  0.02690  0.59761  0.57139  1.0000
  C   C815      1.0  0.37671  0.38868  0.72106  1.0000
  C   C816      1.0  0.14253  0.60517  0.48473  1.0000
  H   H792      1.0  0.22041  0.56732  0.49623  1.0000
  H   H793      1.0  0.31588  0.62221  0.56166  1.0000
  H   H794      1.0  0.34120  0.60996  0.53915  1.0000
  H   H795      1.0  0.38322  0.58853  0.72927  1.0000
  C   C817      1.0  0.37060  0.61511  0.68175  1.0000
  H   H796      1.0  0.27275  0.57008  0.51855  1.0000
  C   C818      1.0  0.38101  0.54673  0.59110  1.0000
  H   H797      1.0  0.36726  0.33519  0.62906  1.0000
  H   H798      1.0  0.38883  0.53901  0.60152  1.0000
  C   C819      1.0  0.36875  0.34287  0.67508  1.0000
  H   H799      1.0  0.05308  0.54699  0.50663  1.0000
  C   C820      1.0  0.36531  0.51212  0.57737  1.0000
  C   C821      1.0  0.32758  0.60959  0.53879  1.0000
  H   H800      1.0  0.38603  0.60357  0.65903  1.0000
  H   H801      1.0  0.39673  0.33863  0.59988  1.0000
  C   C822      1.0  0.00335  0.55131  0.53498  1.0000
  H   H802      1.0  0.39560  0.57519  0.70230  1.0000
  H   H803      1.0  0.35172  0.62521  0.70383  1.0000
  C   C823      1.0  0.99728  0.53500  0.54114  1.0000
  H   H804      1.0  0.32656  0.61369  0.70020  1.0000
  C   C824      1.0  0.42453  0.36216  0.67862  1.0000
  C   C825      1.0  0.31518  0.63794  0.65012  1.0000
  H   H805      1.0  0.37832  0.37793  0.62836  1.0000
  H   H806      1.0  0.05271  0.59091  0.57905  1.0000
  C   C826      1.0  0.35368  0.56737  0.71173  1.0000
  C   C827      1.0  0.42282  0.37599  0.70320  1.0000
  S   S292      1.0  0.31985  0.56707  0.49448  1.0000
  H   H807      1.0  0.45792  0.35218  0.65263  1.0000
  C   C828      1.0  0.20273  0.56157  0.61190  1.0000
  C   C829      1.0  0.30856  0.55866  0.48282  1.0000
  C   C830      1.0  0.36680  0.32327  0.65688  1.0000
  N   N68       1.0  0.01377  0.59120  0.56789  1.0000
  C   C831      1.0  0.36703  0.52385  0.58725  1.0000
  H   H808      1.0  0.02586  0.61195  0.56977  1.0000
  H   H809      1.0  0.43557  0.32790  0.54412  1.0000
  H   H810      1.0  0.08080  0.64574  0.60918  1.0000
  C   C832      1.0  0.44819  0.36524  0.65138  1.0000
  H   H811      1.0  0.37290  0.64546  0.64445  1.0000
  H   H812      1.0  0.35601  0.37645  0.62735  1.0000
  H   H813      1.0  0.40040  0.54239  0.55849  1.0000
  H   H814      1.0  0.37580  0.46815  0.65171  1.0000
  N   N69       1.0  0.09157  0.62079  0.60049  1.0000
  C   C833      1.0  0.10664  0.60790  0.59678  1.0000
  C   C834      1.0  0.09265  0.63537  0.60638  1.0000
  C   C835      1.0  0.12325  0.60927  0.59918  1.0000
  C   C836      1.0  0.10910  0.63721  0.60878  1.0000
  C   C837      1.0  0.12446  0.62404  0.60518  1.0000
  H   H815      1.0  0.33676  0.59668  0.50023  1.0000
  H   H816      1.0  0.10998  0.64883  0.61331  1.0000
  C   C838      1.0  0.44630  0.37913  0.67658  1.0000
  H   H817      1.0  0.34206  0.57874  0.51872  1.0000
  H   H818      1.0  0.47714  0.35775  0.55515  1.0000
  C   C839      1.0  0.38177  0.57494  0.70923  1.0000
  H   H819      1.0  0.07749  0.52106  0.51249  1.0000
  C   C840      1.0  0.07447  0.61928  0.59726  1.0000
  H   H820      1.0  0.07252  0.60517  0.60175  1.0000
  C   C841      1.0  0.30730  0.60156  0.52592  1.0000
  C   C842      1.0  0.29262  0.60892  0.53815  1.0000
  C   C843      1.0  0.29567  0.61642  0.55107  1.0000
  H   H821      1.0  0.30489  0.59531  0.51619  1.0000
  H   H822      1.0  0.27895  0.60851  0.53790  1.0000
  H   H823      1.0  0.28441  0.62176  0.56091  1.0000
  N   N70       1.0  0.24677  0.55430  0.50039  1.0000
  C   C844      1.0  0.23188  0.56788  0.50118  1.0000
  C   C845      1.0  0.23124  0.58266  0.50831  1.0000
  H   H824      1.0  0.37570  0.36381  0.61509  1.0000
  H   H825      1.0  0.41246  0.32569  0.55372  1.0000
  C   C846      1.0  0.23199  0.55391  0.59311  1.0000
  H   H826      1.0  0.39282  0.45734  0.66485  1.0000
  C   C847      1.0  0.38913  0.52234  0.55372  1.0000
  H   H827      1.0  0.39771  0.52206  0.54050  1.0000
  N   N71       1.0  0.23982  0.54954  0.60771  1.0000
  C   C848      1.0  0.22951  0.55117  0.62434  1.0000
  C   C849      1.0  0.04210  0.58579  0.57674  1.0000
  C   C850      1.0  0.21084  0.55732  0.62667  1.0000
  H   H828      1.0  0.38420  0.63249  0.61694  1.0000
  H   H829      1.0  0.14323  0.59186  0.49406  1.0000
  C   C851      1.0  0.25919  0.54207  0.60563  1.0000
  H   H830      1.0  0.23576  0.54797  0.63587  1.0000
  H   H831      1.0  0.37110  0.36977  0.66110  1.0000
  H   H832      1.0  0.38038  0.44401  0.65955  1.0000
  S   S293      1.0  0.46825  0.34298  0.59368  1.0000
  H   H833      1.0  0.12145  0.60807  0.51667  1.0000
  H   H834      1.0  0.26673  0.54895  0.59284  1.0000
  H   H835      1.0  0.26460  0.54398  0.61660  1.0000
  H   H836      1.0  0.26186  0.52748  0.60580  1.0000
  H   H837      1.0  0.36077  0.59225  0.65523  1.0000
  H   H838      1.0  0.05582  0.55811  0.58211  1.0000
  H   H839      1.0  0.40403  0.36030  0.70300  1.0000
  H   H840      1.0  0.38763  0.55786  0.58259  1.0000
  H   H841      1.0  0.11642  0.63234  0.53316  1.0000
  H   H842      1.0  0.06328  0.50701  0.51064  1.0000
  H   H843      1.0  0.24016  0.55288  0.57988  1.0000
  H   H844      1.0  0.38957  0.56545  0.67806  1.0000
  H   H845      1.0  0.00142  0.61657  0.55406  1.0000
  H   H846      1.0  0.27320  0.54428  0.50584  1.0000
  C   C852      1.0  0.24683  0.53889  0.49310  1.0000
  C   C853      1.0  0.99790  0.60373  0.56234  1.0000
  H   H847      1.0  0.07437  0.62361  0.58270  1.0000
  N   N72       1.0  0.14007  0.61948  0.49449  1.0000
  C   C854      1.0  0.37891  0.55882  0.68760  1.0000
  H   H848      1.0  0.35230  0.59807  0.51279  1.0000
  N   N73       1.0  0.36964  0.35381  0.64347  1.0000
  H   H849      1.0  0.41891  0.35437  0.67272  1.0000
  H   H850      1.0  0.26022  0.52962  0.49159  1.0000
  C   C855      1.0  0.01504  0.57310  0.57022  1.0000
  H   H851      1.0  0.38478  0.54442  0.69230  1.0000
  H   H852      1.0  0.34524  0.56157  0.70678  1.0000
  H   H853      1.0  0.13731  0.62531  0.60696  1.0000
  H   H854      1.0  0.40644  0.43887  0.59938  1.0000
  N   N74       1.0  0.43936  0.36910  0.66921  1.0000
  C   C856      1.0  0.36720  0.32605  0.67356  1.0000
  C   C857      1.0  0.42488  0.32780  0.55650  1.0000
  H   H855      1.0  0.37504  0.50256  0.55261  1.0000
  H   H856      1.0  0.38449  0.44119  0.62810  1.0000
  H   H857      1.0  0.36848  0.55966  0.68002  1.0000
  C   C858      1.0  0.03017  0.56092  0.57531  1.0000
  H   H858      1.0  0.37848  0.39065  0.70668  1.0000
  H   H859      1.0  0.36882  0.34526  0.68806  1.0000
  C   C859      1.0  0.21335  0.55993  0.59499  1.0000
  C   C860      1.0  0.41603  0.36551  0.69572  1.0000
  C   C861      1.0  0.26127  0.55493  0.50665  1.0000
  N   N75       1.0  0.37117  0.56753  0.70303  1.0000
  H   H860      1.0  0.35840  0.52428  0.60041  1.0000
  H   H861      1.0  0.23663  0.53123  0.50197  1.0000
  C   C862      1.0  0.07364  0.51504  0.50305  1.0000
  C   C863      1.0  0.31327  0.61671  0.55147  1.0000
  H   H862      1.0  0.38469  0.41328  0.71998  1.0000
  H   H863      1.0  0.43811  0.36467  0.64397  1.0000
  C   C864      1.0  0.35877  0.59931  0.66589  1.0000
  N   N76       1.0  0.39993  0.45423  0.63753  1.0000
  C   C865      1.0  0.39662  0.44651  0.62529  1.0000
  C   C866      1.0  0.41526  0.46089  0.63396  1.0000
  C   C867      1.0  0.40897  0.44507  0.60909  1.0000
  C   C868      1.0  0.42796  0.45953  0.61794  1.0000
  C   C869      1.0  0.42476  0.45156  0.60546  1.0000
  C   C870      1.0  0.38656  0.45606  0.65419  1.0000
  H   H864      1.0  0.44567  0.33011  0.57736  1.0000
  H   H865      1.0  0.41800  0.46685  0.64373  1.0000
  N   N77       1.0  0.33418  0.63632  0.64104  1.0000
  H   H866      1.0  0.44030  0.46444  0.61535  1.0000
  S   S294      1.0  0.38127  0.50226  0.71264  1.0000
  H   H867      1.0  0.10584  0.59645  0.59196  1.0000
  C   C871      1.0  0.00884  0.51921  0.54748  1.0000
  H   H868      1.0  0.20712  0.56336  0.58343  1.0000
  H   H869      1.0  0.43451  0.45031  0.59299  1.0000
  C   C872      1.0  0.36992  0.36871  0.62784  1.0000
  C   C873      1.0  0.99411  0.63837  0.59490  1.0000
  H   H870      1.0  0.31365  0.63623  0.66486  1.0000
  C   C874      1.0  0.14842  0.63371  0.48680  1.0000
  H   H871      1.0  0.30938  0.62716  0.64831  1.0000
  C   C875      1.0  0.13439  0.64709  0.51268  1.0000
  C   C876      1.0  0.00616  0.64761  0.59723  1.0000
  S   S295      1.0  0.36696  0.35731  0.72251  1.0000
  H   H872      1.0  0.32337  0.53145  0.48834  1.0000
  C   C877      1.0  0.34562  0.64240  0.64749  1.0000
  H   H873      1.0  0.33112  0.62496  0.62037  1.0000
  C   C878      1.0  0.34021  0.62944  0.62576  1.0000
  S   S296      1.0  0.40834  0.61334  0.72500  1.0000
  C   C879      1.0  0.37485  0.58257  0.72443  1.0000
  H   H874      1.0  0.36299  0.62215  0.60494  1.0000
  H   H875      1.0  0.34091  0.64774  0.65968  1.0000
  H   H876      1.0  0.36579  0.32455  0.55924  1.0000
  C   C880      1.0  0.19439  0.61773  0.48340  1.0000
  S   S297      1.0  0.37014  0.56633  0.48420  1.0000
  H   H877      1.0  0.45793  0.38482  0.66909  1.0000
  C   C881      1.0  0.37010  0.63379  0.62355  1.0000
  C   C882      1.0  0.34631  0.57497  0.72694  1.0000
  H   H878      1.0  0.15244  0.53406  0.48384  1.0000
  H   H879      1.0  0.04081  0.57097  0.48334  1.0000
  C   C883      1.0  0.36374  0.64121  0.63888  1.0000
  C   C884      1.0  0.48853  0.34768  0.55893  1.0000
  C   C885      1.0  0.31302  0.54052  0.48181  1.0000
  H   H880      1.0  0.30730  0.65123  0.64478  1.0000
  C   C886      1.0  0.04899  0.55844  0.47988  1.0000
  Fe  Fe147     1.0  0.08010  0.33645  0.89027  1.0000
  S   S298      1.0  0.38381  0.58714  0.76711  1.0000
  S   S299      1.0  0.43685  0.51447  0.81890  1.0000
  Fe  Fe148     1.0  0.44633  0.53482  0.82743  1.0000
  S   S300      1.0  0.43311  0.56400  0.82453  1.0000
  S   S301      1.0  0.42925  0.47640  0.86188  1.0000
  Fe  Fe149     1.0  0.41417  0.38701  0.85319  1.0000
  C   C887      1.0  0.31571  0.37296  0.85806  1.0000
  Fe  Fe150     1.0  0.38407  0.36898  0.87722  1.0000
  S   S302      1.0  0.35479  0.37446  0.89051  1.0000
  Fe  Fe151     1.0  0.42194  0.35437  0.88273  1.0000
  Fe  Fe152     1.0  0.41114  0.35053  0.84934  1.0000
  S   S303      1.0  0.40413  0.38164  0.88306  1.0000
  S   S304      1.0  0.39230  0.37726  0.84739  1.0000
  H   H881      1.0  0.41733  0.39824  0.76174  1.0000
  H   H882      1.0  0.46221  0.40274  0.78065  1.0000
  C   C888      1.0  0.99323  0.36311  0.91310  1.0000
  H   H883      1.0  0.46644  0.57104  0.78500  1.0000
  S   S305      1.0  0.17954  0.42623  0.95944  1.0000
  S   S306      1.0  0.22924  0.34110  0.92818  1.0000
  H   H884      1.0  0.46971  0.34054  0.94932  1.0000
  C   C889      1.0  0.18438  0.35919  0.90838  1.0000
  C   C890      1.0  0.04134  0.33392  0.85143  1.0000
  C   C891      1.0  0.43847  0.43918  0.83173  1.0000
  H   H885      1.0  0.40742  0.37397  0.97308  1.0000
  H   H886      1.0  0.46915  0.37392  0.90772  1.0000
  C   C892      1.0  0.34078  0.32380  0.93823  1.0000
  C   C893      1.0  0.47331  0.55553  0.85193  1.0000
  H   H887      1.0  0.44780  0.46333  0.82948  1.0000
  H   H888      1.0  0.38993  0.39196  0.79123  1.0000
  H   H889      1.0  0.41343  0.50298  0.77273  1.0000
  H   H890      1.0  0.14359  0.32494  0.95597  1.0000
  C   C894      1.0  0.40947  0.44405  0.79769  1.0000
  C   C895      1.0  0.45577  0.49374  0.75378  1.0000
  S   S307      1.0  0.47425  0.48625  0.82730  1.0000
  C   C896      1.0  0.48344  0.59942  0.82399  1.0000
  H   H891      1.0  0.42662  0.38550  0.93895  1.0000
  H   H892      1.0  0.42384  0.43706  0.79635  1.0000
  H   H893      1.0  0.40470  0.44352  0.78577  1.0000
  H   H894      1.0  0.14649  0.38190  0.93181  1.0000
  S   S308      1.0  0.10154  0.34891  0.89368  1.0000
  Fe  Fe153     1.0  0.11095  0.32174  0.91000  1.0000
  S   S309      1.0  0.45288  0.51629  0.85265  1.0000
  S   S310      1.0  0.05123  0.35140  0.89131  1.0000
  C   C897      1.0  0.34642  0.37634  0.84223  1.0000
  H   H895      1.0  0.25844  0.33569  0.82202  1.0000
  S   S311      1.0  0.01593  0.34285  0.83120  1.0000
  H   H896      1.0  0.24476  0.35479  0.96109  1.0000
  S   S312      1.0  0.24678  0.38747  0.90967  1.0000
  Fe  Fe154     1.0  0.25014  0.35756  0.91437  1.0000
  C   C898      1.0  0.09184  0.33682  0.82148  1.0000
  S   S313      1.0  0.26039  0.34376  0.89116  1.0000
  S   S314      1.0  0.45211  0.37339  0.96222  1.0000
  S   S315      1.0  0.44521  0.44507  0.75660  1.0000
  H   H897      1.0  0.31497  0.38334  0.86518  1.0000
  H   H898      1.0  0.44588  0.40880  0.75609  1.0000
  H   H899      1.0  0.34343  0.35136  0.82654  1.0000
  C   C899      1.0  0.04186  0.34975  0.87393  1.0000
  C   C900      1.0  0.04935  0.33576  0.86463  1.0000
  S   S316      1.0  0.39821  0.45884  0.74648  1.0000
  C   C901      1.0  0.46620  0.60997  0.82412  1.0000
  Fe  Fe155     1.0  0.44622  0.49509  0.84251  1.0000
  C   C902      1.0  0.36897  0.32179  0.81496  1.0000
  C   C903      1.0  0.41072  0.47550  0.78389  1.0000
  C   C904      1.0  0.45939  0.38001  0.87629  1.0000
  C   C905      1.0  0.02552  0.34583  0.84772  1.0000
  C   C906      1.0  0.45067  0.55841  0.77509  1.0000
  H   H900      1.0  0.44648  0.43673  0.81885  1.0000
  N   N78       1.0  0.40780  0.46266  0.79913  1.0000
  H   H901      1.0  0.42191  0.37274  0.91511  1.0000
  H   H902      1.0  0.28921  0.36828  0.87203  1.0000
  H   H903      1.0  0.15916  0.34327  0.87907  1.0000
  C   C907      1.0  0.43223  0.36564  0.92264  1.0000
  C   C908      1.0  0.44835  0.36375  0.94596  1.0000
  H   H904      1.0  0.36434  0.34104  0.87741  1.0000
  C   C909      1.0  0.45006  0.39758  0.78292  1.0000
  C   C910      1.0  0.11612  0.36604  0.95743  1.0000
  S   S317      1.0  0.09655  0.32746  0.86516  1.0000
  H   H905      1.0  0.44205  0.57892  0.84975  1.0000
  C   C911      1.0  0.12115  0.33564  0.94271  1.0000
  C   C912      1.0  0.10707  0.35022  0.93948  1.0000
  C   C913      1.0  0.10456  0.36536  0.94683  1.0000
  C   C914      1.0  0.43187  0.54544  0.76345  1.0000
  H   H906      1.0  0.09358  0.37658  0.94433  1.0000
  H   H907      1.0  0.09790  0.34976  0.93156  1.0000
  N   N79       1.0  0.00274  0.33638  0.90080  1.0000
  C   C915      1.0  0.35844  0.32157  0.95994  1.0000
  Fe  Fe156     1.0  0.38588  0.61415  0.74905  1.0000
  H   H908      1.0  0.45123  0.43860  0.88212  1.0000
  S   S318      1.0  0.38156  0.41504  0.75683  1.0000
  C   C916      1.0  0.46541  0.38810  0.90195  1.0000
  C   C917      1.0  0.30215  0.35065  0.85341  1.0000
  C   C918      1.0  0.45068  0.47970  0.74953  1.0000
  S   S319      1.0  0.46751  0.50902  0.77506  1.0000
  H   H909      1.0  0.40801  0.33575  0.79312  1.0000
  C   C919      1.0  0.01779  0.35973  0.85713  1.0000
  C   C920      1.0  0.19705  0.41582  0.94422  1.0000
  C   C921      1.0  0.21059  0.42505  0.93398  1.0000
  C   C922      1.0  0.22551  0.41645  0.92287  1.0000
  C   C923      1.0  0.22703  0.39854  0.92208  1.0000
  C   C924      1.0  0.21327  0.38948  0.93195  1.0000
  C   C925      1.0  0.19826  0.39813  0.94294  1.0000
  N   N80       1.0  0.23773  0.38212  0.96401  1.0000
  H   H910      1.0  0.20966  0.43879  0.93484  1.0000
  H   H911      1.0  0.21416  0.37582  0.93122  1.0000
  H   H912      1.0  0.18782  0.39101  0.95059  1.0000
  C   C926      1.0  0.43488  0.37281  0.93619  1.0000
  C   C927      1.0  0.45379  0.58465  0.84274  1.0000
  H   H913      1.0  0.08699  0.34324  0.80883  1.0000
  Fe  Fe157     1.0  0.46537  0.50768  0.80436  1.0000
  C   C928      1.0  0.33990  0.33069  0.88491  1.0000
  S   S320      1.0  0.44130  0.34039  0.90115  1.0000
  S   S321      1.0  0.43362  0.36076  0.85326  1.0000
  C   C929      1.0  0.45805  0.57270  0.77548  1.0000
  C   C930      1.0  0.37132  0.38395  0.75830  1.0000
  C   C931      1.0  0.36814  0.37100  0.75076  1.0000
  H   H914      1.0  0.40256  0.48728  0.83033  1.0000
  H   H915      1.0  0.36902  0.38218  0.77272  1.0000
  H   H916      1.0  0.36356  0.35923  0.75938  1.0000
  C   C932      1.0  0.02609  0.36180  0.87009  1.0000
  C   C933      1.0  0.45905  0.34746  0.94218  1.0000
  S   S322      1.0  0.13079  0.41856  0.97897  1.0000
  H   H917      1.0  0.34620  0.38707  0.82995  1.0000
  H   H918      1.0  0.19893  0.35605  0.90674  1.0000
  C   C934      1.0  0.34239  0.35846  0.89139  1.0000
  C   C935      1.0  0.32411  0.36127  0.89954  1.0000
  C   C936      1.0  0.31373  0.34891  0.90030  1.0000
  C   C937      1.0  0.25466  0.38651  0.95263  1.0000
  C   C938      1.0  0.44310  0.59108  0.75189  1.0000
  C   C939      1.0  0.35028  0.34321  0.88393  1.0000
  H   H919      1.0  0.31789  0.37316  0.90512  1.0000
  H   H920      1.0  0.29958  0.35159  0.90609  1.0000
  S   S323      1.0  0.22202  0.32425  0.88927  1.0000
  C   C940      1.0  0.41069  0.49301  0.78491  1.0000
  C   C941      1.0  0.42878  0.45751  0.85427  1.0000
  C   C942      1.0  0.42718  0.42748  0.84218  1.0000
  C   C943      1.0  0.41686  0.43063  0.85883  1.0000
  C   C944      1.0  0.41768  0.44566  0.86486  1.0000
  H   H921      1.0  0.40801  0.42171  0.86689  1.0000
  H   H922      1.0  0.40953  0.44824  0.87766  1.0000
  C   C945      1.0  0.46081  0.49140  0.77019  1.0000
  S   S324      1.0  0.40122  0.34121  0.87890  1.0000
  C   C946      1.0  0.45121  0.46309  0.76145  1.0000
  C   C947      1.0  0.45622  0.46078  0.77785  1.0000
  C   C948      1.0  0.46071  0.47500  0.78237  1.0000
  H   H923      1.0  0.45665  0.44794  0.78709  1.0000
  H   H924      1.0  0.46463  0.47308  0.79502  1.0000
  C   C949      1.0  0.39645  0.58126  0.78397  1.0000
  C   C950      1.0  0.39791  0.56401  0.79482  1.0000
  C   C951      1.0  0.40885  0.55873  0.80757  1.0000
  C   C952      1.0  0.41824  0.57073  0.80965  1.0000
  C   C953      1.0  0.41633  0.58815  0.79921  1.0000
  C   C954      1.0  0.40564  0.59332  0.78627  1.0000
  H   H925      1.0  0.39063  0.55470  0.79331  1.0000
  H   H926      1.0  0.40965  0.54554  0.81608  1.0000
  H   H927      1.0  0.42350  0.59753  0.80078  1.0000
  H   H928      1.0  0.40469  0.60659  0.77799  1.0000
  N   N81       1.0  0.43942  0.56058  0.76370  1.0000
  C   C955      1.0  0.44311  0.34941  0.91877  1.0000
  C   C956      1.0  0.43579  0.57657  0.75201  1.0000
  S   S325      1.0  0.47452  0.52925  0.81161  1.0000
  S   S326      1.0  0.13659  0.35215  0.84755  1.0000
  H   H929      1.0  0.41350  0.47215  0.77079  1.0000
  C   C957      1.0  0.35703  0.58257  0.73334  1.0000
  H   H930      1.0  0.29121  0.34349  0.85686  1.0000
  H   H931      1.0  0.46300  0.38453  0.86149  1.0000
  H   H932      1.0  0.36876  0.32561  0.96403  1.0000
  Fe  Fe158     1.0  0.11865  0.33729  0.87021  1.0000
  C   C958      1.0  0.42471  0.39508  0.77241  1.0000
  C   C959      1.0  0.17369  0.36997  0.92036  1.0000
  C   C960      1.0  0.40458  0.48419  0.81719  1.0000
  H   H933      1.0  0.46450  0.62391  0.81700  1.0000
  C   C961      1.0  0.21896  0.36049  0.97849  1.0000
  C   C962      1.0  0.45533  0.42441  0.88779  1.0000
  C   C963      1.0  0.45643  0.34033  0.92866  1.0000
  H   H934      1.0  0.36117  0.33934  0.93388  1.0000
  H   H935      1.0  0.13917  0.35190  0.96892  1.0000
  H   H936      1.0  0.39803  0.37103  0.80542  1.0000
  H   H937      1.0  0.03689  0.59839  0.97440  1.0000
  H   H938      1.0  0.33238  0.57502  0.73366  1.0000
  C   C964      1.0  0.32159  0.33349  0.89316  1.0000
  H   H939      1.0  0.45970  0.42902  0.91200  1.0000
  H   H940      1.0  0.26055  0.37762  0.94274  1.0000
  C   C965      1.0  0.30106  0.36451  0.86198  1.0000
  C   C966      1.0  0.31749  0.34591  0.84057  1.0000
  H   H941      1.0  0.44543  0.37762  0.88002  1.0000
  N   N82       1.0  0.15787  0.35632  0.90036  1.0000
  C   C967      1.0  0.14727  0.36674  0.91219  1.0000
  C   C968      1.0  0.17619  0.35234  0.89851  1.0000
  C   C969      1.0  0.15500  0.37374  0.92234  1.0000
  C   C970      1.0  0.13023  0.35146  0.96073  1.0000
  C   C971      1.0  0.48551  0.58161  0.83347  1.0000
  C   C972      1.0  0.14933  0.34888  0.89023  1.0000
  H   H942      1.0  0.13272  0.36959  0.91392  1.0000
  H   H943      1.0  0.18463  0.34383  0.88937  1.0000
  S   S327      1.0  0.33306  0.33831  0.76758  1.0000
  N   N83       1.0  0.47078  0.57446  0.84273  1.0000
  H   H944      1.0  0.23606  0.42358  0.91516  1.0000
  Fe  Fe159     1.0  0.24093  0.32575  0.90597  1.0000
  C   C973      1.0  0.36978  0.32165  0.83257  1.0000
  H   H945      1.0  0.13907  0.35952  0.88402  1.0000
  C   C974      1.0  0.42745  0.38167  0.80244  1.0000
  C   C975      1.0  0.44348  0.38763  0.79965  1.0000
  H   H946      1.0  0.42240  0.37411  0.81554  1.0000
  H   H947      1.0  0.45049  0.38487  0.81056  1.0000
  H   H948      1.0  0.41823  0.55021  0.76025  1.0000
  H   H949      1.0  0.31851  0.33523  0.83372  1.0000
  H   H950      1.0  0.43773  0.61049  0.83341  1.0000
  H   H951      1.0  0.12155  0.33881  0.79625  1.0000
  H   H952      1.0  0.40138  0.37243  0.78174  1.0000
  C   C976      1.0  0.13270  0.33623  0.95341  1.0000
  H   H953      1.0  0.99569  0.37175  0.92059  1.0000
  C   C977      1.0  0.16784  0.33385  0.80387  1.0000
  H   H954      1.0  0.02024  0.37269  0.87720  1.0000
  C   C978      1.0  0.39726  0.33197  0.80414  1.0000
  H   H955      1.0  0.38469  0.32688  0.84954  1.0000
  H   H956      1.0  0.45960  0.60049  0.76400  1.0000
  H   H957      1.0  0.13849  0.48361  0.97618  1.0000
  C   C979      1.0  0.45124  0.60253  0.83345  1.0000
  H   H958      1.0  0.06099  0.32599  0.86799  1.0000
  C   C980      1.0  0.46008  0.41904  0.90454  1.0000
  H   H959      1.0  0.01742  0.34346  0.91641  1.0000
  C   C981      1.0  0.40105  0.37993  0.79205  1.0000
  H   H960      1.0  0.17986  0.37533  0.92813  1.0000
  H   H961      1.0  0.45174  0.41559  0.86558  1.0000
  Fe  Fe160     1.0  0.27946  0.32501  0.90761  1.0000
  H   H962      1.0  0.34636  0.38229  0.85364  1.0000
  H   H963      1.0  0.15213  0.35919  0.81001  1.0000
  H   H964      1.0  0.44099  0.53775  0.75340  1.0000
  N   N84       1.0  0.41823  0.38552  0.78891  1.0000
  C   C982      1.0  0.45418  0.58916  0.76380  1.0000
  N   N85       1.0  0.10749  0.32222  0.81848  1.0000
  H   H965      1.0  0.26452  0.38507  0.96103  1.0000
  C   C983      1.0  0.40760  0.49735  0.80169  1.0000
  C   C984      1.0  0.44078  0.40112  0.76913  1.0000
  C   C985      1.0  0.43925  0.45421  0.83774  1.0000
  H   H966      1.0  0.40238  0.45668  0.82775  1.0000
  H   H967      1.0  0.40148  0.43656  0.80974  1.0000
  S   S328      1.0  0.42559  0.40965  0.83364  1.0000
  C   C986      1.0  0.40462  0.46685  0.81564  1.0000
  H   H968      1.0  0.35923  0.36625  0.84039  1.0000
  H   H969      1.0  0.40768  0.51083  0.80268  1.0000
  Fe  Fe161     1.0  0.48043  0.50879  0.83605  1.0000
  C   C987      1.0  0.15679  0.34510  0.81535  1.0000
  N   N86       1.0  0.33095  0.36775  0.84593  1.0000
  C   C988      1.0  0.38259  0.32723  0.80072  1.0000
  H   H970      1.0  0.38200  0.32754  0.78711  1.0000
  H   H971      1.0  0.44684  0.48155  0.73684  1.0000
  S   S329      1.0  0.36484  0.63054  0.73343  1.0000
  H   H972      1.0  0.00562  0.36903  0.85422  1.0000
  H   H973      1.0  0.42692  0.57825  0.74296  1.0000
  C   C989      1.0  0.37737  0.39916  0.74720  1.0000
  H   H974      1.0  0.45368  0.54566  0.78417  1.0000
  Fe  Fe162     1.0  0.35595  0.33546  0.74382  1.0000
  C   C990      1.0  0.23485  0.36502  0.96728  1.0000
  H   H975      1.0  0.09558  0.34714  0.82643  1.0000
  Fe  Fe163     1.0  0.25084  0.32259  0.94180  1.0000
  Fe  Fe164     1.0  0.42780  0.45059  0.73627  1.0000
  H   H976      1.0  0.00482  0.47000  0.90284  1.0000
  H   H977      1.0  0.45595  0.50638  0.74426  1.0000
  C   C991      1.0  0.45561  0.41134  0.87849  1.0000
  N   N87       1.0  0.46058  0.39346  0.88561  1.0000
  H   H978      1.0  0.08039  0.33195  0.83158  1.0000
  S   S330      1.0  0.41670  0.33752  0.82562  1.0000
  C   C992      1.0  0.15138  0.33807  0.83362  1.0000
  H   H979      1.0  0.17163  0.33926  0.78966  1.0000
  H   H980      1.0  0.46854  0.36693  0.88006  1.0000
  H   H981      1.0  0.25238  0.40046  0.94463  1.0000
  H   H982      1.0  0.43044  0.53616  0.77678  1.0000
  H   H983      1.0  0.35160  0.58848  0.74516  1.0000
  C   C993      1.0  0.00546  0.34705  0.91072  1.0000
  C   C994      1.0  0.39801  0.33192  0.82172  1.0000
  S   S331      1.0  0.27081  0.34032  0.92972  1.0000
  H   H984      1.0  0.33752  0.32985  0.92517  1.0000
  C   C995      1.0  0.46517  0.40077  0.91169  1.0000
  Fe  Fe165     1.0  0.16044  0.40909  0.97749  1.0000
  C   C996      1.0  0.22523  0.39496  0.97194  1.0000
  Fe  Fe166     1.0  0.39591  0.43539  0.73670  1.0000
  S   S332      1.0  0.11263  0.38563  0.96576  1.0000
  C   C997      1.0  0.33171  0.35489  0.83676  1.0000
  H   H985      1.0  0.46496  0.32782  0.92567  1.0000
  S   S333      1.0  0.39151  0.63787  0.75581  1.0000
  C   C998      1.0  0.37076  0.37342  0.73213  1.0000
  H   H986      1.0  0.46090  0.55235  0.86161  1.0000
  H   H987      1.0  0.48426  0.55212  0.85953  1.0000
  H   H988      1.0  0.44003  0.60384  0.74279  1.0000
  H   H989      1.0  0.14268  0.33806  0.89936  1.0000
  C   C999      1.0  0.38410  0.32705  0.83592  1.0000
  H   H990      1.0  0.22732  0.40861  0.96912  1.0000
  H   H991      1.0  0.46861  0.39637  0.92486  1.0000
  C   C1000     1.0  0.35418  0.32923  0.94311  1.0000
  H   H992      1.0  0.47690  0.54679  0.84195  1.0000
  C   C1001     1.0  0.12175  0.32553  0.80474  1.0000
  S   S334      1.0  0.16076  0.38018  0.97848  1.0000
  C   C1002     1.0  0.26021  0.32116  0.82508  1.0000
  H   H993      1.0  0.04720  0.32297  0.84438  1.0000
  Fe  Fe167     1.0  0.41251  0.63837  0.73048  1.0000
  H   H994      1.0  0.02900  0.31966  0.90060  1.0000
  H   H995      1.0  0.12439  0.45936  0.97443  1.0000
  C   C1003     1.0  0.15761  0.31987  0.84047  1.0000
  C   C1004     1.0  0.01555  0.31950  0.89849  1.0000
  S   S335      1.0  0.44046  0.64123  0.73001  1.0000
  H   H996      1.0  0.34606  0.31885  0.87923  1.0000
  H   H997      1.0  0.24864  0.31948  0.85334  1.0000
  H   H998      1.0  0.06400  0.66162  0.10117  1.0000
  Fe  Fe168     1.0  0.20725  0.77635  0.06163  1.0000
  S   S336      1.0  0.21699  0.77123  0.08727  1.0000
  S   S337      1.0  0.18290  0.79630  0.05385  1.0000
  Fe  Fe169     1.0  0.24123  0.75338  0.04359  1.0000
  S   S338      1.0  0.25362  0.74560  0.06780  1.0000
  S   S339      1.0  0.25608  0.74948  0.01590  1.0000
  Fe  Fe170     1.0  0.22568  0.74264  0.08318  1.0000
  S   S340      1.0  0.22044  0.72121  0.10803  1.0000
  Fe  Fe171     1.0  0.24401  0.77454  0.06994  1.0000
  S   S341      1.0  0.26421  0.79052  0.06992  1.0000
  S   S342      1.0  0.21407  0.74764  0.05862  1.0000
  S   S343      1.0  0.23335  0.78237  0.04478  1.0000
  Fe  Fe172     1.0  0.07981  0.76553  0.01842  1.0000
  S   S344      1.0  0.07365  0.75962  0.04844  1.0000
  S   S345      1.0  0.08145  0.74885  0.99857  1.0000
  Fe  Fe173     1.0  0.08638  0.80243  0.01544  1.0000
  S   S346      1.0  0.08055  0.80026  0.04537  1.0000
  C   C1005     1.0  0.29918  0.74097  0.98086  1.0000
  Fe  Fe174     1.0  0.09708  0.77231  0.04586  1.0000
  S   S347      1.0  0.11757  0.75885  0.06312  1.0000
  Fe  Fe175     1.0  0.05749  0.78795  0.04579  1.0000
  S   S348      1.0  0.03052  0.79230  0.06503  1.0000
  S   S349      1.0  0.10482  0.77552  0.01604  1.0000
  S   S350      1.0  0.06172  0.79279  0.01582  1.0000
  Fe  Fe176     1.0  0.41466  0.87604  0.01635  1.0000
  S   S351      1.0  0.41394  0.86351  0.04552  1.0000
  S   S352      1.0  0.39249  0.89952  0.01047  1.0000
  Fe  Fe177     1.0  0.34571  0.81238  0.11021  1.0000
  S   S353      1.0  0.31938  0.83166  0.11481  1.0000
  S   S354      1.0  0.36036  0.81047  0.08192  1.0000
  Fe  Fe178     1.0  0.34464  0.79833  0.15018  1.0000
  S   S355      1.0  0.31817  0.81666  0.15812  1.0000
  S   S356      1.0  0.36143  0.77853  0.16876  1.0000
  Fe  Fe179     1.0  0.31003  0.80896  0.13605  1.0000
  S   S357      1.0  0.28315  0.80141  0.13942  1.0000
  Fe  Fe180     1.0  0.33002  0.83756  0.13605  1.0000
  S   S358      1.0  0.33113  0.86614  0.13493  1.0000
  S   S359      1.0  0.33571  0.78902  0.12980  1.0000
  S   S360      1.0  0.35709  0.81975  0.12996  1.0000
  Fe  Fe181     1.0  0.01492  0.67612  0.07811  1.0000
  S   S361      1.0  0.01287  0.67041  0.05230  1.0000
  C   C1006     1.0  0.42463  0.93122  0.14769  1.0000
  S   S362      1.0  0.36502  0.88132  0.98742  1.0000
  Fe  Fe182     1.0  0.04304  0.66424  0.04721  1.0000
  S   S363      1.0  0.06117  0.67204  0.02073  1.0000
  H   H999      1.0  0.19774  0.66514  0.12883  1.0000
  S   S364      1.0  0.04508  0.67221  0.07174  1.0000
  Fe  Fe183     1.0  0.39616  0.91249  0.18292  1.0000
  S   S365      1.0  0.36770  0.92391  0.17978  1.0000
  S   S366      1.0  0.41646  0.91124  0.15711  1.0000
  C   C1007     1.0  0.24507  0.82879  0.00690  1.0000
  C   C1008     1.0  0.42515  0.93420  0.03951  1.0000
  Fe  Fe184     1.0  0.36084  0.90088  0.20208  1.0000
  S   S367      1.0  0.34433  0.88024  0.20546  1.0000
  Fe  Fe185     1.0  0.36657  0.93817  0.20155  1.0000
  S   S368      1.0  0.38952  0.88817  0.20338  1.0000
  S   S369      1.0  0.39552  0.92796  0.20340  1.0000
  C   C1009     1.0  0.42168  0.93098  0.02413  1.0000
  H   H1000     1.0  0.46540  0.92356  0.05194  1.0000
  H   H1001     1.0  0.40145  0.87913  0.16655  1.0000
  C   C1010     1.0  0.33397  0.87034  0.15476  1.0000
  C   C1011     1.0  0.33174  0.85772  0.17085  1.0000
  C   C1012     1.0  0.33459  0.86110  0.18643  1.0000
  C   C1013     1.0  0.34023  0.87680  0.18585  1.0000
  C   C1014     1.0  0.34271  0.88932  0.16972  1.0000
  C   C1015     1.0  0.33928  0.88623  0.15425  1.0000
  H   H1002     1.0  0.32752  0.84552  0.17137  1.0000
  H   H1003     1.0  0.33240  0.85150  0.19894  1.0000
  H   H1004     1.0  0.34692  0.90153  0.16921  1.0000
  H   H1005     1.0  0.34098  0.89604  0.14182  1.0000
  C   C1016     1.0  0.39841  0.84940  0.05519  1.0000
  C   C1017     1.0  0.39098  0.84737  0.07359  1.0000
  C   C1018     1.0  0.37878  0.83594  0.08172  1.0000
  C   C1019     1.0  0.37440  0.82602  0.07163  1.0000
  C   C1020     1.0  0.38175  0.82811  0.05320  1.0000
  C   C1021     1.0  0.39355  0.83999  0.04494  1.0000
  H   H1006     1.0  0.39460  0.85476  0.08152  1.0000
  H   H1007     1.0  0.37302  0.83466  0.09582  1.0000
  H   H1008     1.0  0.37834  0.82054  0.04531  1.0000
  H   H1009     1.0  0.39927  0.84146  0.03076  1.0000
  C   C1022     1.0  0.01465  0.81230  0.06038  1.0000
  C   C1023     1.0  0.01763  0.82478  0.04429  1.0000
  H   H1010     1.0  0.46344  0.93016  0.02096  1.0000
  H   H1011     1.0  0.39134  0.83924  0.98800  1.0000
  H   H1012     1.0  0.36824  0.96640  0.15618  1.0000
  H   H1013     1.0  0.03774  0.83282  0.06679  1.0000
  H   H1014     1.0  0.02973  0.82208  0.03421  1.0000
  H   H1015     1.0  0.48958  0.92202  0.04749  1.0000
  H   H1016     1.0  0.00734  0.85057  0.02882  1.0000
  C   C1024     1.0  0.07554  0.72763  0.00573  1.0000
  C   C1025     1.0  0.06531  0.72216  0.02283  1.0000
  C   C1026     1.0  0.06044  0.70522  0.02759  1.0000
  C   C1027     1.0  0.06615  0.69366  0.01536  1.0000
  C   C1028     1.0  0.07647  0.69917  0.99841  1.0000
  C   C1029     1.0  0.08099  0.71612  0.99356  1.0000
  H   H1017     1.0  0.06091  0.73108  0.03223  1.0000
  H   H1018     1.0  0.05228  0.70117  0.04063  1.0000
  H   H1019     1.0  0.13706  0.80170  0.00387  1.0000
  H   H1020     1.0  0.43573  0.96521  0.15941  1.0000
  C   C1030     1.0  0.26876  0.79409  0.08934  1.0000
  C   C1031     1.0  0.28550  0.79803  0.08831  1.0000
  C   C1032     1.0  0.28990  0.80059  0.10353  1.0000
  C   C1033     1.0  0.27743  0.79956  0.11984  1.0000
  C   C1034     1.0  0.26045  0.79617  0.12076  1.0000
  C   C1035     1.0  0.25616  0.79325  0.10559  1.0000
  H   H1021     1.0  0.29523  0.79884  0.07573  1.0000
  H   H1022     1.0  0.30299  0.80325  0.10267  1.0000
  H   H1023     1.0  0.25071  0.79551  0.13333  1.0000
  H   H1024     1.0  0.24314  0.79044  0.10645  1.0000
  C   C1036     1.0  0.16463  0.78606  0.05644  1.0000
  C   C1037     1.0  0.16357  0.76952  0.06820  1.0000
  C   C1038     1.0  0.14885  0.76153  0.07042  1.0000
  C   C1039     1.0  0.13536  0.76976  0.06053  1.0000
  C   C1040     1.0  0.13643  0.78627  0.04868  1.0000
  C   C1041     1.0  0.15096  0.79450  0.04678  1.0000
  H   H1025     1.0  0.17390  0.76307  0.07590  1.0000
  H   H1026     1.0  0.14789  0.74900  0.07991  1.0000
  H   H1027     1.0  0.12598  0.79275  0.04113  1.0000
  H   H1028     1.0  0.15169  0.80734  0.03775  1.0000
  C   C1042     1.0  0.26630  0.76813  0.00644  1.0000
  C   C1043     1.0  0.27304  0.77522  0.01731  1.0000
  C   C1044     1.0  0.28144  0.78993  0.00996  1.0000
  C   C1045     1.0  0.28317  0.79767  0.99169  1.0000
  H   H1029     1.0  0.21984  0.82774  0.00154  1.0000
  C   C1046     1.0  0.03359  0.83274  0.08141  1.0000
  H   H1030     1.0  0.27200  0.76923  0.03142  1.0000
  H   H1031     1.0  0.28659  0.79531  0.01852  1.0000
  H   H1032     1.0  0.08091  0.69034  0.98891  1.0000
  Fe  Fe186     1.0  0.41427  0.91228  0.99100  1.0000
  C   C1047     1.0  0.26804  0.77580  0.98812  1.0000
  C   C1048     1.0  0.21652  0.68163  0.08562  1.0000
  C   C1049     1.0  0.21996  0.69753  0.08781  1.0000
  C   C1050     1.0  0.21565  0.70165  0.10485  1.0000
  C   C1051     1.0  0.20769  0.68988  0.11964  1.0000
  C   C1052     1.0  0.20391  0.67413  0.11738  1.0000
  H   H1033     1.0  0.22009  0.67841  0.07243  1.0000
  H   H1034     1.0  0.22625  0.70643  0.07637  1.0000
  H   H1035     1.0  0.20438  0.69297  0.13286  1.0000
  H   H1036     1.0  0.08885  0.72027  0.98033  1.0000
  H   H1037     1.0  0.43750  0.95756  0.10689  1.0000
  H   H1038     1.0  0.35939  0.82718  0.19809  1.0000
  C   C1053     1.0  0.48177  0.96027  0.02995  1.0000
  C   C1054     1.0  0.27646  0.79060  0.98074  1.0000
  H   H1039     1.0  0.32042  0.73226  0.00935  1.0000
  C   C1055     1.0  0.42852  0.93702  0.12902  1.0000
  C   C1056     1.0  0.42180  0.96207  0.00968  1.0000
  Fe  Fe187     1.0  0.39166  0.88681  0.98826  1.0000
  H   H1040     1.0  0.10840  0.79422  0.98044  1.0000
  C   C1057     1.0  0.38306  0.78448  0.20783  1.0000
  C   C1058     1.0  0.37840  0.77716  0.19555  1.0000
  C   C1059     1.0  0.36694  0.78789  0.18416  1.0000
  C   C1060     1.0  0.36021  0.80598  0.18504  1.0000
  C   C1061     1.0  0.36482  0.81325  0.19735  1.0000
  C   C1062     1.0  0.24500  0.82639  0.03806  1.0000
  H   H1041     1.0  0.38377  0.76321  0.19477  1.0000
  H   H1042     1.0  0.35129  0.81432  0.17637  1.0000
  H   H1043     1.0  0.99524  0.73349  0.09911  1.0000
  C   C1063     1.0  0.42710  0.94150  0.15864  1.0000
  H   H1044     1.0  0.39209  0.77622  0.21640  1.0000
  H   H1045     1.0  0.42448  0.93694  0.17302  1.0000
  C   C1064     1.0  0.00976  0.84760  0.10289  1.0000
  C   C1065     1.0  0.14231  0.81132  0.99236  1.0000
  C   C1066     1.0  0.09281  0.66612  0.05350  1.0000
  H   H1046     1.0  0.47397  0.93766  0.06053  1.0000
  H   H1047     1.0  0.37288  0.84168  0.16203  1.0000
  H   H1048     1.0  0.25220  0.82990  0.99299  1.0000
  H   H1049     1.0  0.48086  0.81300  0.22723  1.0000
  H   H1050     1.0  0.04538  0.83374  0.08613  1.0000
  C   C1067     1.0  0.38872  0.84946  0.18429  1.0000
  H   H1051     1.0  0.39235  0.83470  0.18508  1.0000
  H   H1052     1.0  0.42045  0.97289  0.99814  1.0000
  H   H1053     1.0  0.29154  0.73101  0.98925  1.0000
  C   C1068     1.0  0.99929  0.87572  0.07582  1.0000
  S   S370      1.0  0.99730  0.70152  0.08591  1.0000
  C   C1069     1.0  0.21815  0.82585  0.02975  1.0000
  C   C1070     1.0  0.13865  0.82947  0.99307  1.0000
  N   N88       1.0  0.22729  0.82497  0.04269  1.0000
  H   H1054     1.0  0.25228  0.82565  0.04830  1.0000
  C   C1071     1.0  0.20836  0.66996  0.10034  1.0000
  H   H1055     1.0  0.46135  0.95323  0.99330  1.0000
  C   C1072     1.0  0.38318  0.96293  0.15247  1.0000
  C   C1073     1.0  0.21798  0.82287  0.06158  1.0000
  H   H1056     1.0  0.38741  0.95599  0.14095  1.0000
  H   H1057     1.0  0.29612  0.73842  0.01527  1.0000
  H   H1058     1.0  0.02662  0.75189  0.07828  1.0000
  H   H1059     1.0  0.42432  0.82657  0.98508  1.0000
  C   C1074     1.0  0.35503  0.97636  0.21775  1.0000
  H   H1060     1.0  0.20413  0.82460  0.03343  1.0000
  H   H1061     1.0  0.21264  0.83625  0.06523  1.0000
  Fe  Fe188     1.0  0.38559  0.90493  0.22359  1.0000
  C   C1075     1.0  0.43467  0.95313  0.12132  1.0000
  H   H1062     1.0  0.37235  0.74854  0.22935  1.0000
  C   C1076     1.0  0.37627  0.80256  0.20873  1.0000
  H   H1063     1.0  0.01372  0.83662  0.11356  1.0000
  H   H1064     1.0  0.42666  0.92914  0.12046  1.0000
  S   S371      1.0  0.46477  0.97293  0.07414  1.0000
  C   C1077     1.0  0.25414  0.82830  0.02013  1.0000
  C   C1078     1.0  0.10392  0.66831  0.06369  1.0000
  C   C1079     1.0  0.43357  0.95744  0.15092  1.0000
  H   H1065     1.0  0.37545  0.85275  0.19334  1.0000
  C   C1080     1.0  0.42717  0.95128  0.04000  1.0000
  H   H1066     1.0  0.32423  0.76862  0.98368  1.0000
  H   H1067     1.0  0.42464  0.94861  0.22143  1.0000
  C   C1081     1.0  0.42538  0.96528  0.02509  1.0000
  H   H1068     1.0  0.02001  0.86123  0.05808  1.0000
  S   S372      1.0  0.09402  0.82669  0.99507  1.0000
  C   C1082     1.0  0.43732  0.96331  0.13225  1.0000
  S   S373      1.0  0.43309  0.95397  0.05912  1.0000
  H   H1069     1.0  0.26831  0.82901  0.01650  1.0000
  N   N89       1.0  0.39194  0.78125  0.10798  1.0000
  C   C1083     1.0  0.39026  0.77884  0.12610  1.0000
  C   C1084     1.0  0.40114  0.79371  0.09644  1.0000
  C   C1085     1.0  0.39787  0.78909  0.13313  1.0000
  C   C1086     1.0  0.40882  0.80428  0.10300  1.0000
  C   C1087     1.0  0.40714  0.80193  0.12148  1.0000
  C   C1088     1.0  0.38381  0.77027  0.10108  1.0000
  H   H1070     1.0  0.38278  0.76911  0.13528  1.0000
  H   H1071     1.0  0.40225  0.79585  0.08207  1.0000
  H   H1072     1.0  0.39621  0.78728  0.14756  1.0000
  H   H1073     1.0  0.41575  0.81441  0.09377  1.0000
  H   H1074     1.0  0.41288  0.81014  0.12677  1.0000
  H   H1075     1.0  0.39002  0.75584  0.10477  1.0000
  H   H1076     1.0  0.36909  0.77232  0.10673  1.0000
  H   H1077     1.0  0.38542  0.77411  0.08624  1.0000
  N   N90       1.0  0.15468  0.71042  0.07605  1.0000
  C   C1089     1.0  0.13659  0.71269  0.08326  1.0000
  C   C1090     1.0  0.16675  0.69842  0.08533  1.0000
  C   C1091     1.0  0.13023  0.70308  0.10035  1.0000
  C   C1092     1.0  0.16082  0.68855  0.10240  1.0000
  C   C1093     1.0  0.14248  0.69105  0.11000  1.0000
  C   C1094     1.0  0.16134  0.72045  0.05812  1.0000
  H   H1078     1.0  0.12694  0.72197  0.07586  1.0000
  H   H1079     1.0  0.18107  0.69637  0.07955  1.0000
  H   H1080     1.0  0.11590  0.70483  0.10607  1.0000
  H   H1081     1.0  0.17036  0.67892  0.10965  1.0000
  H   H1082     1.0  0.13774  0.68352  0.12327  1.0000
  H   H1083     1.0  0.16712  0.71116  0.04864  1.0000
  H   H1084     1.0  0.15044  0.73101  0.05282  1.0000
  H   H1085     1.0  0.17187  0.72738  0.05859  1.0000
  N   N91       1.0  0.35291  0.87836  0.05259  1.0000
  C   C1095     1.0  0.35320  0.87654  0.03570  1.0000
  C   C1096     1.0  0.34483  0.86745  0.06733  1.0000
  C   C1097     1.0  0.34516  0.86364  0.03323  1.0000
  C   C1098     1.0  0.33661  0.85446  0.06532  1.0000
  C   C1099     1.0  0.33687  0.85250  0.04816  1.0000
  C   C1100     1.0  0.36208  0.89151  0.05477  1.0000
  H   H1086     1.0  0.35967  0.88507  0.02399  1.0000
  H   H1087     1.0  0.34491  0.86854  0.08077  1.0000
  H   H1088     1.0  0.34547  0.86228  0.01978  1.0000
  H   H1089     1.0  0.33051  0.84560  0.07697  1.0000
  H   H1090     1.0  0.33082  0.84224  0.04649  1.0000
  H   H1091     1.0  0.37682  0.88601  0.05287  1.0000
  H   H1092     1.0  0.35974  0.90422  0.04471  1.0000
  H   H1093     1.0  0.35715  0.89491  0.06828  1.0000
  S   S374      1.0  0.29332  0.81642  0.98322  1.0000
  H   H1094     1.0  0.10423  0.68166  0.06489  1.0000
  C   C1101     1.0  0.42007  0.94487  0.00912  1.0000
  C   C1102     1.0  0.48080  0.97358  0.01438  1.0000
  C   C1103     1.0  0.46860  0.94222  0.01911  1.0000
  H   H1095     1.0  0.42688  0.97849  0.02537  1.0000
  H   H1096     1.0  0.01954  0.73412  0.07264  1.0000
  N   N92       1.0  0.01843  0.84751  0.08544  1.0000
  S   S375      1.0  0.35783  0.96820  0.19817  1.0000
  N   N93       1.0  0.39059  0.97918  0.14830  1.0000
  H   H1097     1.0  0.48751  0.96237  0.04021  1.0000
  C   C1104     1.0  0.01340  0.86135  0.07197  1.0000
  S   S376      1.0  0.38217  0.81235  0.22358  1.0000
  C   C1105     1.0  0.99892  0.81595  0.07336  1.0000
  H   H1098     1.0  0.08521  0.67459  0.11012  1.0000
  H   H1099     1.0  0.99657  0.80635  0.08586  1.0000
  H   H1100     1.0  0.42029  0.91771  0.02388  1.0000
  H   H1101     1.0  0.13045  0.83398  0.00510  1.0000
  S   S377      1.0  0.43672  0.88959  0.99840  1.0000
  S   S378      1.0  0.41246  0.86238  0.99560  1.0000
  S   S379      1.0  0.41649  0.94081  0.98943  1.0000
  H   H1102     1.0  0.02151  0.75468  0.05663  1.0000
  C   C1106     1.0  0.22695  0.82759  0.01170  1.0000
  N   N94       1.0  0.24822  0.74428  0.13229  1.0000
  C   C1107     1.0  0.25635  0.74303  0.11495  1.0000
  C   C1108     1.0  0.25654  0.74987  0.14255  1.0000
  C   C1109     1.0  0.27309  0.74781  0.10730  1.0000
  C   C1110     1.0  0.27341  0.75451  0.13541  1.0000
  C   C1111     1.0  0.28166  0.75355  0.11764  1.0000
  C   C1112     1.0  0.23054  0.73942  0.13972  1.0000
  H   H1103     1.0  0.24974  0.73849  0.10693  1.0000
  H   H1104     1.0  0.25006  0.75108  0.15624  1.0000
  H   H1105     1.0  0.27914  0.74753  0.09330  1.0000
  H   H1106     1.0  0.27970  0.75961  0.14333  1.0000
  H   H1107     1.0  0.29435  0.75790  0.11171  1.0000
  H   H1108     1.0  0.22098  0.74700  0.13084  1.0000
  H   H1109     1.0  0.23173  0.72484  0.14055  1.0000
  H   H1110     1.0  0.22460  0.74243  0.15330  1.0000
  C   C1113     1.0  0.07528  0.65287  0.10646  1.0000
  H   H1111     1.0  0.38820  0.95316  0.16391  1.0000
  C   C1114     1.0  0.01754  0.74893  0.07117  1.0000
  C   C1115     1.0  0.00495  0.84089  0.04126  1.0000
  H   H1112     1.0  0.22730  0.81458  0.07048  1.0000
  C   C1116     1.0  0.30858  0.74326  0.00742  1.0000
  H   H1113     1.0  0.99494  0.88639  0.06505  1.0000
  S   S380      1.0  0.11749  0.65834  0.12367  1.0000
  H   H1114     1.0  0.39906  0.85303  0.18931  1.0000
  H   H1115     1.0  0.42647  0.92332  0.05102  1.0000
  H   H1116     1.0  0.08455  0.67773  0.04656  1.0000
  H   H1117     1.0  0.20663  0.81583  0.06423  1.0000
  C   C1117     1.0  0.08725  0.66019  0.11161  1.0000
  C   C1118     1.0  0.47626  0.93132  0.04882  1.0000
  N   N95       1.0  0.30811  0.74909  0.98829  1.0000
  N   N96       1.0  0.38779  0.85910  0.16589  1.0000
  C   C1119     1.0  0.39485  0.87424  0.15879  1.0000
  C   C1120     1.0  0.37918  0.85322  0.15613  1.0000
  C   C1121     1.0  0.39363  0.88378  0.14140  1.0000
  C   C1122     1.0  0.37791  0.86231  0.13860  1.0000
  C   C1123     1.0  0.38509  0.87774  0.13126  1.0000
  H   H1118     1.0  0.02979  0.81954  0.08804  1.0000
  N   N97       1.0  0.47533  0.94502  0.03232  1.0000
  C   C1124     1.0  0.46742  0.95524  0.00337  1.0000
  H   H1119     1.0  0.39915  0.89587  0.13595  1.0000
  H   H1120     1.0  0.37070  0.85784  0.13106  1.0000
  H   H1121     1.0  0.38376  0.88519  0.11786  1.0000
  H   H1122     1.0  0.37183  0.85581  0.22629  1.0000
  H   H1123     1.0  0.42428  0.89660  0.22600  1.0000
  C   C1125     1.0  0.47340  0.97109  0.00110  1.0000
  S   S381      1.0  0.44491  0.98357  0.12282  1.0000
  H   H1124     1.0  0.34857  0.84107  0.22632  1.0000
  S   S382      1.0  0.35647  0.91644  0.22358  1.0000
  H   H1125     1.0  0.47219  0.98147  0.98914  1.0000
  H   H1126     1.0  0.39095  0.97771  0.17560  1.0000
  H   H1127     1.0  0.30925  0.75461  0.01306  1.0000
  Fe  Fe189     1.0  0.44035  0.97896  0.06206  1.0000
  H   H1128     1.0  0.33774  0.86570  0.98294  1.0000
  H   H1129     1.0  0.26268  0.77046  0.97972  1.0000
  H   H1130     1.0  0.12280  0.65471  0.08086  1.0000
  C   C1126     1.0  0.11439  0.65322  0.07255  1.0000
  H   H1131     1.0  0.39125  0.98399  0.12025  1.0000
  H   H1132     1.0  0.06722  0.81673  0.98003  1.0000
  H   H1133     1.0  0.99899  0.78166  0.05973  1.0000
  N   N98       1.0  0.99879  0.75668  0.07845  1.0000
  C   C1127     1.0  0.99568  0.86184  0.10723  1.0000
  H   H1134     1.0  0.39126  0.95279  0.22969  1.0000
  S   S383      1.0  0.40432  0.95342  0.39607  1.0000
  S   S384      1.0  0.33656  0.69839  0.31873  1.0000
  Fe  Fe190     1.0  0.46309  0.87672  0.29396  1.0000
  S   S385      1.0  0.43709  0.89305  0.30623  1.0000
  S   S386      1.0  0.46862  0.87729  0.26448  1.0000
  C   C1128     1.0  0.00423  0.95837  0.35209  1.0000
  S   S387      1.0  0.44880  0.87519  0.34491  1.0000
  N   N99       1.0  0.35924  0.73907  0.25598  1.0000
  Fe  Fe191     1.0  0.43531  0.86765  0.32681  1.0000
  S   S388      1.0  0.40905  0.85849  0.33695  1.0000
  Fe  Fe192     1.0  0.45317  0.89909  0.32280  1.0000
  S   S389      1.0  0.45240  0.92694  0.32609  1.0000
  S   S390      1.0  0.46043  0.85094  0.31379  1.0000
  H   H1135     1.0  0.45541  0.89038  0.23140  1.0000
  Fe  Fe193     1.0  0.39944  0.79054  0.28293  1.0000
  S   S391      1.0  0.41262  0.80616  0.25712  1.0000
  S   S392      1.0  0.38542  0.80244  0.30716  1.0000
  Fe  Fe194     1.0  0.40580  0.75681  0.26810  1.0000
  H   H1136     1.0  0.33737  0.70471  0.27528  1.0000
  S   S393      1.0  0.40579  0.72733  0.27215  1.0000
  Fe  Fe195     1.0  0.43321  0.78053  0.25608  1.0000
  S   S394      1.0  0.46304  0.77848  0.24804  1.0000
  Fe  Fe196     1.0  0.39736  0.79400  0.24435  1.0000
  C   C1129     1.0  0.45715  0.82542  0.24407  1.0000
  S   S395      1.0  0.42136  0.76583  0.28313  1.0000
  S   S396      1.0  0.38245  0.78016  0.27040  1.0000
  H   H1137     1.0  0.34995  0.96271  0.26312  1.0000
  H   H1138     1.0  0.42802  0.91393  0.27265  1.0000
  C   C1130     1.0  0.35144  0.97158  0.25008  1.0000
  S   S397      1.0  0.34091  0.65779  0.29559  1.0000
  H   H1139     1.0  0.31644  0.72826  0.29047  1.0000
  C   C1131     1.0  0.39128  0.93535  0.25578  1.0000
  C   C1132     1.0  0.34216  0.84243  0.24038  1.0000
  C   C1133     1.0  0.33899  0.96981  0.45876  1.0000
  H   H1140     1.0  0.44802  0.82425  0.23637  1.0000
  C   C1134     1.0  0.35280  0.97560  0.40210  1.0000
  S   S398      1.0  0.39046  0.89252  0.25120  1.0000
  C   C1135     1.0  0.47213  0.77978  0.26566  1.0000
  H   H1141     1.0  0.48664  0.82571  0.28965  1.0000
  S   S399      1.0  0.41933  0.76978  0.24081  1.0000
  C   C1136     1.0  0.39942  0.94433  0.23909  1.0000
  C   C1137     1.0  0.46125  0.78767  0.27986  1.0000
  C   C1138     1.0  0.34753  0.75231  0.26399  1.0000
  Fe  Fe197     1.0  0.47441  0.86108  0.32956  1.0000
  H   H1142     1.0  0.44697  0.79252  0.28034  1.0000
  C   C1139     1.0  0.40315  0.84382  0.32688  1.0000
  C   C1140     1.0  0.38646  0.83893  0.33425  1.0000
  C   C1141     1.0  0.38138  0.82637  0.32785  1.0000
  C   C1142     1.0  0.39284  0.81854  0.31389  1.0000
  C   C1143     1.0  0.40957  0.82351  0.30615  1.0000
  C   C1144     1.0  0.41477  0.83614  0.31273  1.0000
  H   H1143     1.0  0.37747  0.84469  0.34522  1.0000
  H   H1144     1.0  0.36849  0.82258  0.33391  1.0000
  H   H1145     1.0  0.41855  0.81739  0.29542  1.0000
  H   H1146     1.0  0.42779  0.83967  0.30713  1.0000
  C   C1145     1.0  0.44773  0.87893  0.25951  1.0000
  C   C1146     1.0  0.43370  0.87380  0.27340  1.0000
  C   C1147     1.0  0.41633  0.87706  0.27034  1.0000
  C   C1148     1.0  0.47563  0.81918  0.23887  1.0000
  C   C1149     1.0  0.35617  0.96195  0.45051  1.0000
  C   C1150     1.0  0.45337  0.68599  0.31818  1.0000
  H   H1147     1.0  0.43610  0.86761  0.28668  1.0000
  H   H1148     1.0  0.40545  0.87355  0.28136  1.0000
  C   C1151     1.0  0.44443  0.71411  0.29937  1.0000
  H   H1149     1.0  0.47355  0.89650  0.34668  1.0000
  C   C1152     1.0  0.35671  0.70562  0.30738  1.0000
  C   C1153     1.0  0.37079  0.69458  0.29785  1.0000
  C   C1154     1.0  0.38601  0.70126  0.28740  1.0000
  C   C1155     1.0  0.38716  0.71902  0.28639  1.0000
  C   C1156     1.0  0.37328  0.72994  0.29622  1.0000
  C   C1157     1.0  0.35810  0.72322  0.30674  1.0000
  H   H1150     1.0  0.36974  0.68104  0.29821  1.0000
  H   H1151     1.0  0.39674  0.69273  0.27982  1.0000
  H   H1152     1.0  0.37416  0.74359  0.29564  1.0000
  H   H1153     1.0  0.34724  0.73178  0.31415  1.0000
  C   C1158     1.0  0.41776  0.94601  0.37668  1.0000
  C   C1159     1.0  0.42780  0.95725  0.36339  1.0000
  C   C1160     1.0  0.43850  0.95117  0.34799  1.0000
  C   C1161     1.0  0.43899  0.93395  0.34568  1.0000
  C   C1162     1.0  0.42891  0.92270  0.35894  1.0000
  C   C1163     1.0  0.41838  0.92871  0.37446  1.0000
  H   H1154     1.0  0.42749  0.97057  0.36505  1.0000
  H   H1155     1.0  0.44644  0.95984  0.33786  1.0000
  H   H1156     1.0  0.42912  0.90945  0.35722  1.0000
  H   H1157     1.0  0.41060  0.91998  0.38470  1.0000
  H   H1158     1.0  0.33156  0.85490  0.23996  1.0000
  C   C1164     1.0  0.45047  0.83271  0.25944  1.0000
  C   C1165     1.0  0.32636  0.97920  0.44832  1.0000
  C   C1166     1.0  0.38258  0.85250  0.24962  1.0000
  H   H1159     1.0  0.36616  0.95468  0.45846  1.0000
  H   H1160     1.0  0.00596  0.95081  0.31584  1.0000
  H   H1161     1.0  0.48917  0.92079  0.33817  1.0000
  C   C1167     1.0  0.35283  0.83780  0.26817  1.0000
  Fe  Fe198     1.0  0.40219  0.98279  0.39482  1.0000
  C   C1168     1.0  0.45585  0.72173  0.30491  1.0000
  C   C1169     1.0  0.39251  0.91555  0.28513  1.0000
  C   C1170     1.0  0.36504  0.83937  0.27758  1.0000
  C   C1171     1.0  0.36996  0.85101  0.24069  1.0000
  S   S400      1.0  0.47956  0.88533  0.30830  1.0000
  H   H1162     1.0  0.45723  0.83913  0.28143  1.0000
  H   H1163     1.0  0.35043  0.76565  0.26104  1.0000
  H   H1164     1.0  0.34554  0.96756  0.39782  1.0000
  H   H1165     1.0  0.37389  0.95761  0.42555  1.0000
  N   N100      1.0  0.35547  0.84347  0.24994  1.0000
  H   H1166     1.0  0.42041  0.98047  0.32327  1.0000
  H   H1167     1.0  0.36293  0.83486  0.29204  1.0000
  C   C1172     1.0  0.38002  0.84674  0.26821  1.0000
  C   C1173     1.0  0.42698  0.88997  0.23914  1.0000
  H   H1168     1.0  0.43528  0.67400  0.30180  1.0000
  H   H1169     1.0  0.32288  0.75902  0.28316  1.0000
  C   C1174     1.0  0.00499  0.97087  0.36158  1.0000
  C   C1175     1.0  0.43109  0.68886  0.30019  1.0000
  H   H1170     1.0  0.43614  0.83767  0.26360  1.0000
  N   N101      1.0  0.46796  0.80399  0.35062  1.0000
  C   C1176     1.0  0.45744  0.81871  0.35703  1.0000
  C   C1177     1.0  0.46052  0.79345  0.34437  1.0000
  C   C1178     1.0  0.43887  0.82291  0.35777  1.0000
  C   C1179     1.0  0.44202  0.79734  0.34481  1.0000
  C   C1180     1.0  0.43114  0.81208  0.35170  1.0000
  H   H1171     1.0  0.47497  0.71689  0.32188  1.0000
  H   H1172     1.0  0.46339  0.82734  0.36154  1.0000
  H   H1173     1.0  0.48538  0.68161  0.36633  1.0000
  H   H1174     1.0  0.43053  0.83466  0.36275  1.0000
  C   C1181     1.0  0.36049  0.96375  0.43185  1.0000
  C   C1182     1.0  0.41285  0.88569  0.25341  1.0000
  C   C1183     1.0  0.46614  0.71115  0.31733  1.0000
  H   H1175     1.0  0.99582  0.97202  0.37435  1.0000
  C   C1184     1.0  0.42845  0.93112  0.24672  1.0000
  H   H1176     1.0  0.33550  0.96885  0.47319  1.0000
  C   C1185     1.0  0.46490  0.69317  0.32404  1.0000
  C   C1186     1.0  0.35552  0.72228  0.25956  1.0000
  S   S401      1.0  0.31048  0.65926  0.33335  1.0000
  C   C1187     1.0  0.33993  0.71825  0.27179  1.0000
  C   C1188     1.0  0.32813  0.73152  0.28035  1.0000
  H   H1177     1.0  0.00839  0.93286  0.33494  1.0000
  C   C1189     1.0  0.02737  0.96841  0.32837  1.0000
  H   H1178     1.0  0.05122  0.87607  0.47078  1.0000
  C   C1190     1.0  0.35358  0.96483  0.23461  1.0000
  C   C1191     1.0  0.48746  0.80014  0.34948  1.0000
  H   H1179     1.0  0.43616  0.78906  0.33971  1.0000
  C   C1192     1.0  0.33187  0.74870  0.27638  1.0000
  C   C1193     1.0  0.46245  0.83344  0.26953  1.0000
  C   C1194     1.0  0.01451  0.94409  0.32587  1.0000
  H   H1180     1.0  0.38086  0.75319  0.24661  1.0000
  H   H1181     1.0  0.38576  0.92545  0.29384  1.0000
  H   H1182     1.0  0.03574  0.96803  0.31510  1.0000
  H   H1183     1.0  0.34123  0.83205  0.27557  1.0000
  H   H1184     1.0  0.33597  0.83052  0.24680  1.0000
  C   C1195     1.0  0.47717  0.89246  0.36007  1.0000
  C   C1196     1.0  0.02872  0.98081  0.33765  1.0000
  H   H1185     1.0  0.43631  0.72245  0.28985  1.0000
  C   C1197     1.0  0.41984  0.92257  0.26339  1.0000
  H   H1186     1.0  0.39410  0.85838  0.24221  1.0000
  H   H1187     1.0  0.43073  0.69441  0.28579  1.0000
  C   C1198     1.0  0.46898  0.78997  0.29310  1.0000
  H   H1188     1.0  0.41676  0.81526  0.35215  1.0000
  H   H1189     1.0  0.02810  0.93817  0.31887  1.0000
  H   H1190     1.0  0.41726  0.69218  0.30826  1.0000
  N   N102      1.0  0.34818  0.97351  0.42166  1.0000
  H   H1191     1.0  0.38956  0.84809  0.27535  1.0000
  C   C1199     1.0  0.44453  0.88648  0.24220  1.0000
  H   H1192     1.0  0.40214  0.90483  0.29209  1.0000
  H   H1193     1.0  0.38234  0.90890  0.28337  1.0000
  C   C1200     1.0  0.41814  0.94205  0.23449  1.0000
  C   C1201     1.0  0.37547  0.74317  0.24291  1.0000
  N   N103      1.0  0.44348  0.69640  0.30585  1.0000
  N   N104      1.0  0.01554  0.95709  0.33581  1.0000
  H   H1194     1.0  0.37676  0.93674  0.25906  1.0000
  Fe  Fe199     1.0  0.33592  0.66956  0.31998  1.0000
  H   H1195     1.0  0.45237  0.67203  0.32358  1.0000
  N   N105      1.0  0.40149  0.92457  0.26765  1.0000
  H   H1196     1.0  0.46892  0.78199  0.33895  1.0000
  H   H1197     1.0  0.46062  0.79651  0.30380  1.0000
  C   C1202     1.0  0.49063  0.77372  0.26499  1.0000
  H   H1198     1.0  0.47272  0.68486  0.33382  1.0000
  H   H1199     1.0  0.36748  0.97108  0.39714  1.0000
  H   H1200     1.0  0.46592  0.89888  0.36972  1.0000
  H   H1201     1.0  0.35380  0.95079  0.23576  1.0000
  H   H1202     1.0  0.40782  0.65839  0.31795  1.0000
  H   H1203     1.0  0.36486  0.71174  0.25336  1.0000
  H   H1204     1.0  0.47880  0.87759  0.36401  1.0000
  N   N106      1.0  0.48052  0.82707  0.26448  1.0000
  C   C1203     1.0  0.48749  0.78381  0.29245  1.0000
  H   H1205     1.0  0.45662  0.73577  0.29964  1.0000
  H   H1206     1.0  0.44305  0.92897  0.24324  1.0000
  H   H1207     1.0  0.38645  0.73101  0.24257  1.0000
  C   C1204     1.0  0.33126  0.98109  0.42966  1.0000
  H   H1208     1.0  0.10459  0.65543  0.47573  1.0000
  H   H1209     1.0  0.49076  0.80393  0.36073  1.0000
  C   C1205     1.0  0.48722  0.82017  0.24926  1.0000
  H   H1210     1.0  0.99441  0.94982  0.35777  1.0000
  C   C1206     1.0  0.01743  0.98206  0.35434  1.0000
  H   H1211     1.0  0.06389  0.83583  0.59712  1.0000
  H   H1212     1.0  0.17494  0.84720  0.70958  1.0000
  H   H1213     1.0  0.27214  0.77292  0.70179  1.0000
  C   C1207     1.0  0.09739  0.65548  0.48943  1.0000
  H   H1214     1.0  0.01185  0.72280  0.54345  1.0000
  Fe  Fe200     1.0  0.05094  0.89337  0.55545  1.0000
  S   S402      1.0  0.07439  0.88793  0.53286  1.0000
  Fe  Fe201     1.0  0.07516  0.89378  0.58010  1.0000
  S   S403      1.0  0.10019  0.88851  0.55926  1.0000
  S   S404      1.0  0.07981  0.89232  0.60755  1.0000
  Fe  Fe202     1.0  0.08468  0.90873  0.54024  1.0000
  S   S405      1.0  0.09908  0.92861  0.51909  1.0000
  Fe  Fe203     1.0  0.08754  0.86833  0.55427  1.0000
  S   S406      1.0  0.10126  0.83968  0.55286  1.0000
  S   S407      1.0  0.06023  0.91570  0.56146  1.0000
  S   S408      1.0  0.06331  0.87229  0.57625  1.0000
  Fe  Fe204     1.0  0.16508  0.73528  0.62319  1.0000
  S   S409      1.0  0.14135  0.73058  0.64577  1.0000
  S   S410      1.0  0.18636  0.71317  0.61235  1.0000
  Fe  Fe205     1.0  0.15324  0.77581  0.61688  1.0000
  S   S411      1.0  0.12867  0.77418  0.63854  1.0000
  S   S412      1.0  0.15631  0.80416  0.60423  1.0000
  Fe  Fe206     1.0  0.14681  0.75345  0.65467  1.0000
  S   S413      1.0  0.14178  0.75880  0.68257  1.0000
  Fe  Fe207     1.0  0.12565  0.75194  0.62744  1.0000
  S   S414      1.0  0.09860  0.75373  0.62153  1.0000
  S   S415      1.0  0.17182  0.75645  0.63362  1.0000
  S   S416      1.0  0.14892  0.75513  0.60433  1.0000
  C   C1208     1.0  0.16653  0.66867  0.59996  1.0000
  C   C1209     1.0  0.09157  0.95131  0.54268  1.0000
  Fe  Fe208     1.0  0.13985  0.92892  0.66370  1.0000
  S   S417      1.0  0.11437  0.95009  0.66496  1.0000
  S   S418      1.0  0.13871  0.90200  0.68208  1.0000
  Fe  Fe209     1.0  0.16111  0.95281  0.63384  1.0000
  C   C1210     1.0  0.04547  0.87132  0.48515  1.0000
  Fe  Fe210     1.0  0.13267  0.96869  0.66260  1.0000
  Fe  Fe211     1.0  0.12188  0.95493  0.63491  1.0000
  S   S419      1.0  0.10355  0.96054  0.61557  1.0000
  S   S420      1.0  0.15761  0.94717  0.66380  1.0000
  S   S421      1.0  0.14586  0.93231  0.63379  1.0000
  Fe  Fe212     1.0  0.04140  0.66776  0.58004  1.0000
  S   S422      1.0  0.03659  0.68924  0.55585  1.0000
  Fe  Fe213     1.0  0.06627  0.68648  0.58947  1.0000
  S   S423      1.0  0.06344  0.70961  0.56624  1.0000
  S   S424      1.0  0.08502  0.68280  0.60804  1.0000
  Fe  Fe214     1.0  0.03414  0.70823  0.57365  1.0000
  S   S425      1.0  0.01222  0.73271  0.57667  1.0000
  Fe  Fe215     1.0  0.06619  0.68845  0.55071  1.0000
  S   S426      1.0  0.08451  0.68930  0.52371  1.0000
  S   S427      1.0  0.03671  0.68680  0.59843  1.0000
  N   N107      1.0  0.03623  0.88672  0.49360  1.0000
  C   C1211     1.0  0.19174  0.86546  0.69305  1.0000
  C   C1212     1.0  0.17538  0.85989  0.70051  1.0000
  C   C1213     1.0  0.15928  0.87099  0.69654  1.0000
  C   C1214     1.0  0.15938  0.88781  0.68510  1.0000
  C   C1215     1.0  0.17575  0.89329  0.67714  1.0000
  C   C1216     1.0  0.19192  0.88210  0.68113  1.0000
  H   H1215     1.0  0.14037  0.68074  0.61317  1.0000
  H   H1216     1.0  0.17593  0.90623  0.66817  1.0000
  H   H1217     1.0  0.20455  0.88648  0.67519  1.0000
  C   C1217     1.0  0.15994  0.76162  0.69017  1.0000
  C   C1218     1.0  0.15666  0.77283  0.70246  1.0000
  C   C1219     1.0  0.17083  0.77478  0.70923  1.0000
  H   H1218     1.0  0.14310  0.77995  0.70685  1.0000
  C   C1220     1.0  0.01884  0.91592  0.50966  1.0000
  C   C1221     1.0  0.09507  0.73404  0.61751  1.0000
  C   C1222     1.0  0.08070  0.73494  0.60962  1.0000
  C   C1223     1.0  0.07745  0.71927  0.60665  1.0000
  C   C1224     1.0  0.08830  0.70260  0.61202  1.0000
  C   C1225     1.0  0.10239  0.70168  0.62030  1.0000
  C   C1226     1.0  0.10604  0.71739  0.62269  1.0000
  H   H1219     1.0  0.07209  0.74778  0.60571  1.0000
  H   H1220     1.0  0.06641  0.72008  0.60044  1.0000
  H   H1221     1.0  0.11055  0.68875  0.62473  1.0000
  H   H1222     1.0  0.11716  0.71660  0.62875  1.0000
  C   C1227     1.0  0.10103  0.94751  0.52599  1.0000
  C   C1228     1.0  0.11249  0.95876  0.51473  1.0000
  H   H1223     1.0  0.08264  0.94281  0.55141  1.0000
  H   H1224     1.0  0.11981  0.95588  0.50179  1.0000
  C   C1229     1.0  0.11758  0.83025  0.56614  1.0000
  C   C1230     1.0  0.12243  0.84058  0.57549  1.0000
  C   C1231     1.0  0.13508  0.83269  0.58643  1.0000
  C   C1232     1.0  0.14243  0.81426  0.58860  1.0000
  C   C1233     1.0  0.13766  0.80391  0.57922  1.0000
  C   C1234     1.0  0.12541  0.81193  0.56786  1.0000
  H   H1225     1.0  0.11634  0.85460  0.57448  1.0000
  H   H1226     1.0  0.13865  0.84075  0.59371  1.0000
  H   H1227     1.0  0.14353  0.78976  0.58056  1.0000
  H   H1228     1.0  0.12184  0.80388  0.56056  1.0000
  C   C1235     1.0  0.08588  0.91146  0.61004  1.0000
  C   C1236     1.0  0.09326  0.91055  0.62475  1.0000
  C   C1237     1.0  0.09861  0.92559  0.62668  1.0000
  C   C1238     1.0  0.09618  0.94172  0.61411  1.0000
  C   C1239     1.0  0.08855  0.94268  0.59959  1.0000
  C   C1240     1.0  0.08365  0.92753  0.59739  1.0000
  H   H1229     1.0  0.09497  0.89815  0.63460  1.0000
  H   H1230     1.0  0.10448  0.92474  0.63795  1.0000
  H   H1231     1.0  0.08660  0.95509  0.58992  1.0000
  H   H1232     1.0  0.07793  0.92836  0.58604  1.0000
  C   C1241     1.0  0.03339  0.86530  0.53796  1.0000
  H   H1233     1.0  0.04668  0.86470  0.53992  1.0000
  H   H1234     1.0  0.04215  0.84333  0.52401  1.0000
  C   C1242     1.0  0.07874  0.65583  0.52480  1.0000
  C   C1243     1.0  0.09357  0.96625  0.54808  1.0000
  H   H1235     1.0  0.10378  0.75858  0.68407  1.0000
  S   S428      1.0  0.39437  0.65643  0.71254  1.0000
  H   H1236     1.0  0.12252  0.95639  0.70100  1.0000
  C   C1244     1.0  0.15445  0.68131  0.60932  1.0000
  C   C1245     1.0  0.16045  0.69492  0.61329  1.0000
  C   C1246     1.0  0.17867  0.69583  0.60808  1.0000
  C   C1247     1.0  0.19085  0.68299  0.59895  1.0000
  H   H1237     1.0  0.14721  0.92522  0.70908  1.0000
  H   H1238     1.0  0.15097  0.70478  0.62023  1.0000
  H   H1239     1.0  0.20497  0.68364  0.59492  1.0000
  S   S429      1.0  0.22950  0.80049  0.71594  1.0000
  C   C1248     1.0  0.01892  0.87841  0.54400  1.0000
  C   C1249     1.0  0.02200  0.79308  0.53531  1.0000
  C   C1250     1.0  0.03078  0.85319  0.52897  1.0000
  S   S430      1.0  0.01177  0.84024  0.51241  1.0000
  H   H1240     1.0  0.12122  0.72980  0.69813  1.0000
  H   H1241     1.0  0.04322  0.75008  0.54890  1.0000
  C   C1251     1.0  0.28664  0.75645  0.72205  1.0000
  H   H1242     1.0  0.19420  0.65979  0.58753  1.0000
  C   C1252     1.0  0.27167  0.76277  0.71407  1.0000
  C   C1253     1.0  0.12327  0.98350  0.70129  1.0000
  C   C1254     1.0  0.07511  0.83138  0.60391  1.0000
  C   C1255     1.0  0.12159  0.96578  0.70928  1.0000
  S   S431      1.0  0.20637  0.76652  0.71275  1.0000
  H   H1243     1.0  0.10146  0.68167  0.48904  1.0000
  H   H1244     1.0  0.41878  0.68550  0.70736  1.0000
  H   H1245     1.0  0.10078  0.68617  0.68036  1.0000
  H   H1246     1.0  0.03664  0.77606  0.48533  1.0000
  H   H1247     1.0  0.08598  0.96928  0.56084  1.0000
  C   C1256     1.0  0.00378  0.73611  0.54385  1.0000
  H   H1248     1.0  0.11053  0.69377  0.56938  1.0000
  C   C1257     1.0  0.01804  0.89271  0.49507  1.0000
  C   C1258     1.0  0.09564  0.67032  0.49696  1.0000
  H   H1249     1.0  0.24421  0.76138  0.71615  1.0000
  H   H1250     1.0  0.99454  0.91158  0.50503  1.0000
  C   C1259     1.0  0.42843  0.70290  0.71826  1.0000
  C   C1260     1.0  0.25588  0.75626  0.72231  1.0000
  H   H1251     1.0  0.00913  0.66705  0.61058  1.0000
  H   H1252     1.0  0.02116  0.76096  0.49616  1.0000
  C   C1261     1.0  0.09224  0.72976  0.66538  1.0000
  H   H1253     1.0  0.08589  0.80923  0.57848  1.0000
  H   H1254     1.0  0.09075  0.78950  0.59551  1.0000
  C   C1262     1.0  0.41518  0.69532  0.71585  1.0000
  H   H1255     1.0  0.06039  0.89058  0.49839  1.0000
  H   H1256     1.0  0.11525  0.69306  0.65897  1.0000
  H   H1257     1.0  0.14663  0.86669  0.70267  1.0000
  H   H1258     1.0  0.12334  0.67734  0.58443  1.0000
  N   N108      1.0  0.08596  0.81481  0.60333  1.0000
  H   H1259     1.0  0.04505  0.91630  0.51314  1.0000
  C   C1263     1.0  0.10033  0.80929  0.61159  1.0000
  C   C1264     1.0  0.07859  0.84299  0.61287  1.0000
  C   C1265     1.0  0.10423  0.82056  0.62063  1.0000
  C   C1266     1.0  0.09334  0.83758  0.62111  1.0000
  H   H1260     1.0  0.01262  0.78449  0.49114  1.0000
  H   H1261     1.0  0.01197  0.92672  0.51675  1.0000
  H   H1262     1.0  0.10921  0.79636  0.61069  1.0000
  H   H1263     1.0  0.18007  0.91420  0.70789  1.0000
  H   H1264     1.0  0.11606  0.81636  0.62654  1.0000
  H   H1265     1.0  0.09645  0.84675  0.62755  1.0000
  C   C1267     1.0  0.39740  0.70003  0.72486  1.0000
  H   H1266     1.0  0.18013  0.74361  0.67529  1.0000
  C   C1268     1.0  0.17748  0.75239  0.68464  1.0000
  H   H1267     1.0  0.99703  0.68000  0.55752  1.0000
  H   H1268     1.0  0.15283  0.65867  0.48989  1.0000
  C   C1269     1.0  0.10300  0.74603  0.68120  1.0000
  C   C1270     1.0  0.21557  0.97087  0.60820  1.0000
  H   H1269     1.0  0.13063  0.67912  0.56048  1.0000
  H   H1270     1.0  0.01362  0.80332  0.51018  1.0000
  H   H1271     1.0  0.19605  0.97672  0.55469  1.0000
  C   C1271     1.0  0.04598  0.89533  0.49952  1.0000
  H   H1272     1.0  0.03977  0.74820  0.51916  1.0000
  C   C1272     1.0  0.15217  0.91221  0.71696  1.0000
  C   C1273     1.0  0.99562  0.74584  0.52937  1.0000
  H   H1273     1.0  0.16393  0.73130  0.57480  1.0000
  H   H1274     1.0  0.06814  0.80226  0.59689  1.0000
  C   C1274     1.0  0.10533  0.97723  0.53705  1.0000
  H   H1275     1.0  0.03156  0.77890  0.55944  1.0000
  C   C1275     1.0  0.08251  0.80335  0.59307  1.0000
  C   C1276     1.0  0.03698  0.76191  0.54033  1.0000
  C   C1277     1.0  0.19694  0.97247  0.61388  1.0000
  S   S432      1.0  0.13765  0.97582  0.63254  1.0000
  H   H1276     1.0  0.20132  0.98247  0.65172  1.0000
  C   C1278     1.0  0.17060  0.90601  0.71628  1.0000
  C   C1279     1.0  0.08628  0.67057  0.51462  1.0000
  H   H1277     1.0  0.23812  0.98345  0.60363  1.0000
  N   N109      1.0  0.02622  0.77556  0.51308  1.0000
  H   H1278     1.0  0.18672  0.97530  0.57846  1.0000
  H   H1279     1.0  0.01689  0.80581  0.53967  1.0000
  C   C1280     1.0  0.99904  0.86670  0.53260  1.0000
  S   S433      1.0  0.21194  0.85230  0.69903  1.0000
  C   C1281     1.0  0.02012  0.79159  0.51861  1.0000
  H   H1280     1.0  0.22384  0.95851  0.60456  1.0000
  C   C1282     1.0  0.03743  0.90999  0.50770  1.0000
  H   H1281     1.0  0.20499  0.74635  0.68785  1.0000
  N   N110      1.0  0.10196  0.71392  0.67315  1.0000
  S   S434      1.0  0.18752  0.95428  0.61457  1.0000
  C   C1283     1.0  0.11222  0.71381  0.68484  1.0000
  C   C1284     1.0  0.03487  0.76091  0.52355  1.0000
  C   C1285     1.0  0.09268  0.74604  0.66922  1.0000
  H   H1282     1.0  0.44237  0.69895  0.71170  1.0000
  H   H1283     1.0  0.12588  0.90580  0.72733  1.0000
  H   H1284     1.0  0.01025  0.88575  0.49059  1.0000
  C   C1286     1.0  0.02416  0.77422  0.49553  1.0000
  Fe  Fe216     1.0  0.21074  0.82664  0.71988  1.0000
  C   C1287     1.0  0.19153  0.75391  0.69183  1.0000
  C   C1288     1.0  0.10228  0.69705  0.66823  1.0000
  C   C1289     1.0  0.00159  0.74380  0.55865  1.0000
  C   C1290     1.0  0.01370  0.85407  0.52595  1.0000
  C   C1291     1.0  0.03036  0.77808  0.54628  1.0000
  H   H1285     1.0  0.08537  0.75860  0.66259  1.0000
  H   H1286     1.0  0.12031  0.70134  0.69065  1.0000
  N   N111      1.0  0.13359  0.93938  0.57270  1.0000
  C   C1292     1.0  0.13391  0.92743  0.58869  1.0000
  C   C1293     1.0  0.13117  0.93431  0.55827  1.0000
  C   C1294     1.0  0.13184  0.90987  0.59054  1.0000
  C   C1295     1.0  0.12902  0.91687  0.55963  1.0000
  C   C1296     1.0  0.12934  0.90459  0.57591  1.0000
  C   C1297     1.0  0.13445  0.95806  0.57146  1.0000
  H   H1287     1.0  0.13517  0.93164  0.60031  1.0000
  H   H1288     1.0  0.13063  0.94382  0.54567  1.0000
  H   H1289     1.0  0.13153  0.90062  0.60341  1.0000
  H   H1290     1.0  0.12672  0.91310  0.54819  1.0000
  H   H1291     1.0  0.12735  0.89110  0.57733  1.0000
  H   H1292     1.0  0.14306  0.95894  0.58027  1.0000
  H   H1293     1.0  0.13997  0.96452  0.55750  1.0000
  H   H1294     1.0  0.12067  0.96577  0.57574  1.0000
  S   S435      1.0  0.02234  0.89515  0.55326  1.0000
  S   S436      1.0  0.15793  0.65301  0.59385  1.0000
  H   H1295     1.0  0.08434  0.72998  0.65586  1.0000
  C   C1298     1.0  0.11472  0.97355  0.52028  1.0000
  S   S437      1.0  0.07136  0.66533  0.57330  1.0000
  N   N112      1.0  0.17398  0.80950  0.65739  1.0000
  C   C1299     1.0  0.16877  0.82730  0.65831  1.0000
  C   C1300     1.0  0.18760  0.79871  0.66537  1.0000
  C   C1301     1.0  0.17743  0.83474  0.66725  1.0000
  C   C1302     1.0  0.19643  0.80565  0.67456  1.0000
  C   C1303     1.0  0.19134  0.82380  0.67543  1.0000
  C   C1304     1.0  0.16481  0.80165  0.64818  1.0000
  H   H1296     1.0  0.15791  0.83589  0.65208  1.0000
  H   H1297     1.0  0.19164  0.78460  0.66472  1.0000
  H   H1298     1.0  0.17338  0.84890  0.66786  1.0000
  H   H1299     1.0  0.20708  0.79696  0.68106  1.0000
  H   H1300     1.0  0.19817  0.82937  0.68243  1.0000
  H   H1301     1.0  0.15699  0.79210  0.65809  1.0000
  H   H1302     1.0  0.15547  0.81202  0.64056  1.0000
  H   H1303     1.0  0.17479  0.79431  0.63829  1.0000
  C   C1305     1.0  0.11279  0.72982  0.68914  1.0000
  C   C1306     1.0  0.00167  0.87884  0.54163  1.0000
  C   C1307     1.0  0.18827  0.76509  0.70414  1.0000
  H   H1304     1.0  0.07018  0.85629  0.61307  1.0000
  N   N113      1.0  0.13512  0.69978  0.57091  1.0000
  C   C1308     1.0  0.15345  0.69580  0.56542  1.0000
  C   C1309     1.0  0.12689  0.71508  0.57741  1.0000
  C   C1310     1.0  0.16404  0.70723  0.56646  1.0000
  C   C1311     1.0  0.13706  0.72675  0.57873  1.0000
  C   C1312     1.0  0.15577  0.72272  0.57330  1.0000
  C   C1313     1.0  0.12437  0.68690  0.57126  1.0000
  H   H1305     1.0  0.16005  0.68334  0.56092  1.0000
  H   H1306     1.0  0.11240  0.71817  0.58188  1.0000
  H   H1307     1.0  0.17861  0.70367  0.56274  1.0000
  H   H1308     1.0  0.13046  0.73863  0.58430  1.0000
  Fe  Fe217     1.0  0.20488  0.78848  0.72715  1.0000
  C   C1314     1.0  0.18478  0.66947  0.59480  1.0000
  H   H1309     1.0  0.09114  0.69835  0.66136  1.0000
  H   H1310     1.0  0.29884  0.76171  0.71607  1.0000
  H   H1311     1.0  0.12373  0.98201  0.51163  1.0000
  H   H1312     1.0  0.99908  0.70060  0.57564  1.0000
  H   H1313     1.0  0.16817  0.78339  0.71875  1.0000
  C   C1315     1.0  0.00906  0.90736  0.50316  1.0000
  H   H1314     1.0  0.38696  0.69416  0.72322  1.0000
  H   H1315     1.0  0.07136  0.65600  0.53841  1.0000
  H   H1316     1.0  0.05640  0.86289  0.49203  1.0000
  C   C1316     1.0  0.99992  0.66017  0.60834  1.0000
  H   H1317     1.0  0.16881  0.98383  0.66579  1.0000
  H   H1318     1.0  0.19119  0.88385  0.72470  1.0000
  H   H1319     1.0  0.03609  0.86242  0.48619  1.0000
  C   C1317     1.0  0.22364  0.98497  0.60768  1.0000
  C   C1318     1.0  0.18916  0.98465  0.56527  1.0000
  H   H1320     1.0  0.22497  0.97994  0.55717  1.0000
  H   H1321     1.0  0.13205  0.65795  0.51968  1.0000
  H   H1322     1.0  0.99739  0.73990  0.51790  1.0000
  C   C1319     1.0  0.17679  0.88882  0.72579  1.0000
  C   C1320     1.0  0.11832  0.96031  0.72805  1.0000
  C   C1321     1.0  0.14017  0.90127  0.72722  1.0000
  S   S438      1.0  0.18591  0.81492  0.72914  1.0000
  C   C1322     1.0  0.29565  0.80537  0.74477  1.0000
  H   H1323     1.0  0.12512  0.78950  0.95024  1.0000
  H   H1324     1.0  0.39772  0.68692  0.81225  1.0000
  H   H1325     1.0  0.30888  0.76291  0.93736  1.0000
  C   C1323     1.0  0.48058  0.74206  0.83234  1.0000
  Fe  Fe218     1.0  0.33351  0.77711  0.81811  1.0000
  S   S439      1.0  0.34617  0.79763  0.79653  1.0000
  S   S440      1.0  0.31126  0.78758  0.83961  1.0000
  Fe  Fe219     1.0  0.35485  0.74627  0.79944  1.0000
  S   S441      1.0  0.36396  0.71636  0.80169  1.0000
  Fe  Fe220     1.0  0.37200  0.77731  0.79740  1.0000
  S   S442      1.0  0.39949  0.77984  0.79910  1.0000
  Fe  Fe221     1.0  0.34130  0.78279  0.77788  1.0000
  S   S443      1.0  0.32826  0.79880  0.75465  1.0000
  S   S444      1.0  0.35964  0.75792  0.82054  1.0000
  S   S445      1.0  0.32719  0.76334  0.79958  1.0000
  Fe  Fe222     1.0  0.46594  0.85150  0.84302  1.0000
  S   S446      1.0  0.47216  0.82931  0.86624  1.0000
  C   C1324     1.0  0.47257  0.90195  0.86655  1.0000
  Fe  Fe223     1.0  0.43329  0.83832  0.84072  1.0000
  S   S447      1.0  0.43691  0.81506  0.86363  1.0000
  S   S448      1.0  0.40996  0.84421  0.82705  1.0000
  Fe  Fe224     1.0  0.44219  0.83489  0.87667  1.0000
  S   S449      1.0  0.42581  0.83738  0.90418  1.0000
  Fe  Fe225     1.0  0.46636  0.81178  0.85078  1.0000
  S   S450      1.0  0.47499  0.72179  0.78524  1.0000
  S   S451      1.0  0.43640  0.85857  0.85461  1.0000
  S   S452      1.0  0.46225  0.83363  0.82679  1.0000
  Fe  Fe226     1.0  0.18222  0.84987  0.90205  1.0000
  S   S453      1.0  0.18141  0.82504  0.89368  1.0000
  S   S454      1.0  0.19777  0.84441  0.92383  1.0000
  Fe  Fe227     1.0  0.15391  0.87281  0.88100  1.0000
  S   S455      1.0  0.15052  0.84935  0.87169  1.0000
  S   S456      1.0  0.13477  0.89880  0.87336  1.0000
  Fe  Fe228     1.0  0.15146  0.83442  0.89999  1.0000
  S   S457      1.0  0.13523  0.81398  0.91738  1.0000
  Fe  Fe229     1.0  0.18070  0.84248  0.86637  1.0000
  S   S458      1.0  0.19987  0.83441  0.84158  1.0000
  S   S459      1.0  0.15228  0.85841  0.90973  1.0000
  S   S460      1.0  0.18417  0.86682  0.87414  1.0000
  C   C1325     1.0  0.34733  0.86731  0.97030  1.0000
  S   S461      1.0  0.21573  0.82409  0.74735  1.0000
  S   S462      1.0  0.48289  0.87208  0.82846  1.0000
  C   C1326     1.0  0.26896  0.81248  0.78619  1.0000
  H   H1326     1.0  0.23962  0.78411  0.80057  1.0000
  H   H1327     1.0  0.38288  0.70274  0.83497  1.0000
  H   H1328     1.0  0.33712  0.71490  0.75220  1.0000
  Fe  Fe230     1.0  0.19180  0.81103  0.75654  1.0000
  S   S463      1.0  0.17052  0.82025  0.77954  1.0000
  S   S464      1.0  0.20787  0.78316  0.75568  1.0000
  C   C1327     1.0  0.42624  0.67912  0.76037  1.0000
  C   C1328     1.0  0.39319  0.71203  0.73642  1.0000
  H   H1329     1.0  0.47166  0.67524  0.75183  1.0000
  N   N114      1.0  0.40533  0.71027  0.81499  1.0000
  H   H1330     1.0  0.43420  0.72024  0.73220  1.0000
  H   H1331     1.0  0.28745  0.78221  0.81850  1.0000
  N   N115      1.0  0.28094  0.80398  0.79710  1.0000
  S   S465      1.0  0.45505  0.86592  0.95680  1.0000
  Fe  Fe231     1.0  0.43220  0.87834  0.97680  1.0000
  H   H1332     1.0  0.17295  0.86061  0.75895  1.0000
  H   H1333     1.0  0.49088  0.85768  0.86406  1.0000
  H   H1334     1.0  0.26936  0.81083  0.73824  1.0000
  S   S466      1.0  0.15991  0.96606  0.81786  1.0000
  H   H1335     1.0  0.43914  0.80363  0.78557  1.0000
  C   C1329     1.0  0.12826  0.92775  0.80779  1.0000
  C   C1330     1.0  0.45796  0.65936  0.74324  1.0000
  C   C1331     1.0  0.06555  0.82098  0.96588  1.0000
  H   H1336     1.0  0.48443  0.81712  0.79623  1.0000
  Fe  Fe232     1.0  0.46580  0.69803  0.78245  1.0000
  S   S467      1.0  0.45849  0.68741  0.81194  1.0000
  S   S468      1.0  0.44331  0.70149  0.76822  1.0000
  C   C1332     1.0  0.46822  0.89619  0.91604  1.0000
  Fe  Fe233     1.0  0.48686  0.67198  0.80918  1.0000
  H   H1337     1.0  0.07006  0.97858  0.81452  1.0000
  Fe  Fe234     1.0  0.46965  0.70983  0.81463  1.0000
  S   S469      1.0  0.45201  0.72744  0.83324  1.0000
  N   N116      1.0  0.46433  0.89647  0.89874  1.0000
  C   C1333     1.0  0.13607  0.89952  0.82794  1.0000
  Fe  Fe235     1.0  0.29632  0.84254  0.91670  1.0000
  S   S470      1.0  0.29458  0.81472  0.93264  1.0000
  S   S471      1.0  0.27713  0.85809  0.89860  1.0000
  Fe  Fe236     1.0  0.33159  0.84204  0.92648  1.0000
  S   S472      1.0  0.33292  0.81420  0.94310  1.0000
  S   S473      1.0  0.35505  0.85562  0.92123  1.0000
  Fe  Fe237     1.0  0.32405  0.80799  0.92098  1.0000
  S   S474      1.0  0.33665  0.78254  0.91087  1.0000
  Fe  Fe238     1.0  0.30340  0.82346  0.95341  1.0000
  S   S475      1.0  0.32530  0.83499  0.90326  1.0000
  S   S476      1.0  0.30264  0.85210  0.93852  1.0000
  H   H1338     1.0  0.37545  0.66800  0.76956  1.0000
  C   C1334     1.0  0.39225  0.71179  0.83017  1.0000
  H   H1339     1.0  0.16525  0.79950  0.94413  1.0000
  N   N117      1.0  0.07577  0.80715  0.95561  1.0000
  H   H1340     1.0  0.24466  0.81196  0.77839  1.0000
  H   H1341     1.0  0.18018  0.88983  0.82836  1.0000
  C   C1335     1.0  0.29639  0.81178  0.79589  1.0000
  H   H1342     1.0  0.48179  0.90631  0.85421  1.0000
  C   C1336     1.0  0.30864  0.75897  0.95167  1.0000
  C   C1337     1.0  0.15922  0.91450  0.80961  1.0000
  H   H1343     1.0  0.43827  0.77377  0.78713  1.0000
  C   C1338     1.0  0.37437  0.87715  0.95217  1.0000
  C   C1339     1.0  0.37169  0.87176  0.93750  1.0000
  C   C1340     1.0  0.35711  0.86373  0.93934  1.0000
  C   C1341     1.0  0.34489  0.86154  0.95577  1.0000
  H   H1344     1.0  0.27128  0.82446  0.77619  1.0000
  H   H1345     1.0  0.38571  0.88324  0.95067  1.0000
  H   H1346     1.0  0.38095  0.87379  0.92469  1.0000
  H   H1347     1.0  0.33355  0.85545  0.95730  1.0000
  H   H1348     1.0  0.27746  0.79668  0.96670  1.0000
  H   H1349     1.0  0.26122  0.85312  0.84620  1.0000
  H   H1350     1.0  0.07436  0.97418  0.77933  1.0000
  C   C1342     1.0  0.05689  0.98350  0.81032  1.0000
  H   H1351     1.0  0.42455  0.80883  0.93791  1.0000
  C   C1343     1.0  0.12459  0.81763  0.93911  1.0000
  C   C1344     1.0  0.11896  0.83497  0.94265  1.0000
  C   C1345     1.0  0.10976  0.83760  0.95991  1.0000
  H   H1352     1.0  0.12118  0.84644  0.93201  1.0000
  H   H1353     1.0  0.10536  0.85107  0.96253  1.0000
  C   C1346     1.0  0.14237  0.91788  0.85934  1.0000
  C   C1347     1.0  0.16070  0.91814  0.85299  1.0000
  C   C1348     1.0  0.16608  0.93320  0.84060  1.0000
  C   C1349     1.0  0.15314  0.94796  0.83456  1.0000
  C   C1350     1.0  0.13488  0.94787  0.84143  1.0000
  C   C1351     1.0  0.12952  0.93288  0.85372  1.0000
  H   H1354     1.0  0.17070  0.90675  0.85752  1.0000
  H   H1355     1.0  0.18025  0.93330  0.83553  1.0000
  H   H1356     1.0  0.12483  0.95942  0.83746  1.0000
  H   H1357     1.0  0.11533  0.93286  0.85881  1.0000
  C   C1352     1.0  0.19133  0.83023  0.82474  1.0000
  C   C1353     1.0  0.20346  0.82327  0.81046  1.0000
  C   C1354     1.0  0.19718  0.81993  0.79671  1.0000
  C   C1355     1.0  0.17870  0.82379  0.79698  1.0000
  C   C1356     1.0  0.16655  0.83077  0.81127  1.0000
  C   C1357     1.0  0.17283  0.83392  0.82515  1.0000
  H   H1358     1.0  0.21775  0.82033  0.81013  1.0000
  H   H1359     1.0  0.20663  0.81421  0.78601  1.0000
  H   H1360     1.0  0.15224  0.83363  0.81165  1.0000
  H   H1361     1.0  0.16336  0.83915  0.83614  1.0000
  C   C1358     1.0  0.21939  0.84936  0.91715  1.0000
  C   C1359     1.0  0.23142  0.84241  0.92882  1.0000
  C   C1360     1.0  0.24904  0.84555  0.92348  1.0000
  C   C1361     1.0  0.25460  0.85578  0.90650  1.0000
  C   C1362     1.0  0.24237  0.86322  0.89508  1.0000
  C   C1363     1.0  0.22485  0.85983  0.90030  1.0000
  H   H1362     1.0  0.22718  0.83443  0.94194  1.0000
  H   H1363     1.0  0.25833  0.83998  0.93245  1.0000
  H   H1364     1.0  0.24658  0.87132  0.88202  1.0000
  H   H1365     1.0  0.21557  0.86541  0.89133  1.0000
  H   H1366     1.0  0.40060  0.74837  0.83966  1.0000
  C   C1364     1.0  0.40192  0.73757  0.83287  1.0000
  C   C1365     1.0  0.41657  0.72223  0.80846  1.0000
  C   C1366     1.0  0.42545  0.66599  0.75162  1.0000
  C   C1367     1.0  0.39047  0.72534  0.83945  1.0000
  C   C1368     1.0  0.43447  0.84645  0.91753  1.0000
  C   C1369     1.0  0.42242  0.85487  0.93084  1.0000
  C   C1370     1.0  0.42871  0.86089  0.94286  1.0000
  C   C1371     1.0  0.44719  0.85845  0.94167  1.0000
  C   C1372     1.0  0.45937  0.85028  0.92816  1.0000
  C   C1373     1.0  0.45301  0.84436  0.91600  1.0000
  H   H1367     1.0  0.40814  0.85641  0.93210  1.0000
  H   H1368     1.0  0.41922  0.86723  0.95317  1.0000
  H   H1369     1.0  0.47371  0.84838  0.92721  1.0000
  H   H1370     1.0  0.46242  0.83775  0.90582  1.0000
  H   H1371     1.0  0.16502  0.82232  0.93330  1.0000
  C   C1374     1.0  0.14520  0.84179  0.97811  1.0000
  C   C1375     1.0  0.36215  0.87496  0.96861  1.0000
  C   C1376     1.0  0.46187  0.74382  0.83614  1.0000
  C   C1377     1.0  0.45071  0.75892  0.84228  1.0000
  C   C1378     1.0  0.45820  0.77228  0.84465  1.0000
  S   S477      1.0  0.25441  0.77885  0.75719  1.0000
  H   H1372     1.0  0.15466  0.79172  0.97594  1.0000
  H   H1373     1.0  0.43623  0.76027  0.84526  1.0000
  H   H1374     1.0  0.44948  0.78386  0.84936  1.0000
  C   C1379     1.0  0.30822  0.79298  0.75404  1.0000
  H   H1375     1.0  0.45256  0.75703  0.80023  1.0000
  C   C1380     1.0  0.27912  0.80117  0.74518  1.0000
  C   C1381     1.0  0.27521  0.78457  0.75492  1.0000
  C   C1382     1.0  0.28796  0.77210  0.76376  1.0000
  C   C1383     1.0  0.30445  0.77620  0.76315  1.0000
  H   H1376     1.0  0.28504  0.75920  0.77124  1.0000
  H   H1377     1.0  0.31436  0.76624  0.76952  1.0000
  C   C1384     1.0  0.40076  0.79714  0.80883  1.0000
  C   C1385     1.0  0.38890  0.81378  0.80664  1.0000
  C   C1386     1.0  0.39169  0.82812  0.81249  1.0000
  C   C1387     1.0  0.40618  0.82580  0.82075  1.0000
  C   C1388     1.0  0.41760  0.80895  0.82358  1.0000
  C   C1389     1.0  0.41489  0.79467  0.81761  1.0000
  H   H1378     1.0  0.27716  0.83730  0.87083  1.0000
  H   H1379     1.0  0.38283  0.84115  0.81024  1.0000
  H   H1380     1.0  0.42876  0.80702  0.83001  1.0000
  H   H1381     1.0  0.42400  0.78177  0.81949  1.0000
  C   C1390     1.0  0.31857  0.78595  0.85933  1.0000
  C   C1391     1.0  0.33238  0.77192  0.86469  1.0000
  C   C1392     1.0  0.33774  0.77070  0.88071  1.0000
  C   C1393     1.0  0.32951  0.78368  0.89120  1.0000
  C   C1394     1.0  0.31586  0.79780  0.88572  1.0000
  C   C1395     1.0  0.31028  0.79881  0.86991  1.0000
  H   H1382     1.0  0.33867  0.76182  0.85670  1.0000
  H   H1383     1.0  0.34834  0.75978  0.88490  1.0000
  H   H1384     1.0  0.30962  0.80798  0.89362  1.0000
  H   H1385     1.0  0.29978  0.80975  0.86564  1.0000
  H   H1386     1.0  0.11828  0.93852  0.80216  1.0000
  H   H1387     1.0  0.42685  0.72113  0.79638  1.0000
  H   H1388     1.0  0.37932  0.68213  0.79240  1.0000
  H   H1389     1.0  0.48925  0.73036  0.82765  1.0000
  C   C1396     1.0  0.23799  0.73819  0.74734  1.0000
  H   H1390     1.0  0.37560  0.83623  0.96595  1.0000
  H   H1391     1.0  0.45988  0.76289  0.77610  1.0000
  C   C1397     1.0  0.26321  0.78138  0.81111  1.0000
  H   H1392     1.0  0.17331  0.91534  0.80542  1.0000
  H   H1393     1.0  0.13185  0.88848  0.83838  1.0000
  C   C1398     1.0  0.35607  0.69039  0.75925  1.0000
  C   C1399     1.0  0.34639  0.70778  0.76093  1.0000
  C   C1400     1.0  0.34883  0.71608  0.77376  1.0000
  C   C1401     1.0  0.36067  0.70680  0.78520  1.0000
  H   H1394     1.0  0.30213  0.81743  0.78170  1.0000
  H   H1395     1.0  0.38002  0.72663  0.85138  1.0000
  H   H1396     1.0  0.26118  0.76915  0.82083  1.0000
  H   H1397     1.0  0.34138  0.72949  0.77497  1.0000
  H   H1398     1.0  0.42379  0.74561  0.81203  1.0000
  H   H1399     1.0  0.42116  0.68792  0.80385  1.0000
  H   H1400     1.0  0.48496  0.76268  0.79544  1.0000
  H   H1401     1.0  0.47673  0.88302  0.92078  1.0000
  C   C1402     1.0  0.17171  0.86005  0.74539  1.0000
  C   C1403     1.0  0.44287  0.68268  0.76027  1.0000
  C   C1404     1.0  0.14681  0.88417  0.73664  1.0000
  C   C1405     1.0  0.09514  0.78086  0.93620  1.0000
  H   H1402     1.0  0.30738  0.80144  0.80111  1.0000
  Fe  Fe239     1.0  0.23162  0.79649  0.74455  1.0000
  N   N118      1.0  0.25499  0.74391  0.73813  1.0000
  H   H1403     1.0  0.18314  0.81016  0.94454  1.0000
  S   S478      1.0  0.36868  0.76456  0.77627  1.0000
  H   H1404     1.0  0.17019  0.87408  0.82290  1.0000
  C   C1406     1.0  0.41495  0.73608  0.81724  1.0000
  H   H1405     1.0  0.47026  0.65192  0.73637  1.0000
  H   H1406     1.0  0.41252  0.66390  0.75119  1.0000
  C   C1407     1.0  0.44631  0.88947  0.88198  1.0000
  S   S479      1.0  0.11256  0.96553  0.76229  1.0000
  C   C1408     1.0  0.45253  0.79948  0.78852  1.0000
  C   C1409     1.0  0.27810  0.78878  0.80964  1.0000
  H   H1407     1.0  0.16244  0.88083  0.84432  1.0000
  H   H1408     1.0  0.41341  0.73078  0.75731  1.0000
  H   H1409     1.0  0.16262  0.85071  0.74697  1.0000
  N   N119      1.0  0.15392  0.90030  0.82234  1.0000
  C   C1410     1.0  0.39868  0.83200  0.97740  1.0000
  N   N120      1.0  0.25683  0.82227  0.88502  1.0000
  C   C1411     1.0  0.24051  0.81875  0.88543  1.0000
  C   C1412     1.0  0.26436  0.83427  0.87100  1.0000
  C   C1413     1.0  0.23125  0.82744  0.87162  1.0000
  C   C1414     1.0  0.25537  0.84333  0.85705  1.0000
  C   C1415     1.0  0.23871  0.83984  0.85739  1.0000
  C   C1416     1.0  0.26661  0.81247  0.89928  1.0000
  H   H1410     1.0  0.23448  0.80932  0.89657  1.0000
  H   H1411     1.0  0.21835  0.82462  0.87192  1.0000
  H   H1412     1.0  0.23148  0.84675  0.84672  1.0000
  H   H1413     1.0  0.27419  0.79917  0.89638  1.0000
  H   H1414     1.0  0.27627  0.82006  0.90044  1.0000
  H   H1415     1.0  0.25718  0.81061  0.91252  1.0000
  C   C1417     1.0  0.47590  0.90197  0.88315  1.0000
  H   H1416     1.0  0.47532  0.90706  0.91503  1.0000
  H   H1417     1.0  0.43494  0.88411  0.88177  1.0000
  C   C1418     1.0  0.25107  0.78982  0.79986  1.0000
  H   H1418     1.0  0.45354  0.82632  0.78978  1.0000
  C   C1419     1.0  0.29922  0.74586  0.96247  1.0000
  C   C1420     1.0  0.40162  0.73102  0.75184  1.0000
  H   H1419     1.0  0.45562  0.89813  0.92644  1.0000
  H   H1420     1.0  0.45557  0.89465  0.85320  1.0000
  H   H1421     1.0  0.40430  0.70219  0.79176  1.0000
  C   C1421     1.0  0.45253  0.76824  0.78831  1.0000
  C   C1422     1.0  0.48672  0.78931  0.79608  1.0000
  C   C1423     1.0  0.16848  0.81210  0.94519  1.0000
  H   H1422     1.0  0.08367  0.82612  0.93182  1.0000
  C   C1424     1.0  0.48809  0.75525  0.83517  1.0000
  C   C1425     1.0  0.47687  0.77037  0.84136  1.0000
  H   H1423     1.0  0.26877  0.72821  0.75881  1.0000
  C   C1426     1.0  0.09396  0.79900  0.92814  1.0000
  C   C1427     1.0  0.31776  0.76709  0.95935  1.0000
  C   C1428     1.0  0.14647  0.92848  0.80223  1.0000
  C   C1429     1.0  0.26963  0.73760  0.74602  1.0000
  C   C1430     1.0  0.38977  0.82162  0.93719  1.0000
  C   C1431     1.0  0.47792  0.80726  0.79446  1.0000
  C   C1432     1.0  0.07657  0.78938  0.96351  1.0000
  H   H1424     1.0  0.15064  0.94000  0.79253  1.0000
  N   N121      1.0  0.46118  0.78182  0.79039  1.0000
  C   C1433     1.0  0.16738  0.88553  0.82974  1.0000
  H   H1425     1.0  0.39038  0.83417  0.92681  1.0000
  H   H1426     1.0  0.39621  0.80999  0.93060  1.0000
  H   H1427     1.0  0.37536  0.82099  0.94286  1.0000
  C   C1434     1.0  0.08406  0.81206  0.93806  1.0000
  S   S480      1.0  0.48640  0.78680  0.84476  1.0000
  N   N122      1.0  0.15819  0.81804  0.96175  1.0000
  C   C1435     1.0  0.45783  0.89541  0.86600  1.0000
  C   C1436     1.0  0.12298  0.91324  0.82082  1.0000
  H   H1428     1.0  0.37805  0.81583  0.79975  1.0000
  C   C1437     1.0  0.25385  0.80554  0.78742  1.0000
  C   C1438     1.0  0.08632  0.77599  0.95397  1.0000
  H   H1429     1.0  0.29718  0.73889  0.74450  1.0000
  H   H1430     1.0  0.24034  0.72341  0.75239  1.0000
  H   H1431     1.0  0.37940  0.71557  0.74342  1.0000
  H   H1432     1.0  0.29232  0.82244  0.80388  1.0000
  C   C1439     1.0  0.41708  0.81480  0.94934  1.0000
  C   C1440     1.0  0.45877  0.67247  0.75208  1.0000
  C   C1441     1.0  0.44969  0.89028  0.89831  1.0000
  N   N123      1.0  0.37764  0.83899  0.87465  1.0000
  C   C1442     1.0  0.37573  0.82557  0.88955  1.0000
  C   C1443     1.0  0.37306  0.83806  0.85934  1.0000
  C   C1444     1.0  0.36985  0.81034  0.88912  1.0000
  C   C1445     1.0  0.36723  0.82299  0.85840  1.0000
  C   C1446     1.0  0.36571  0.80903  0.87338  1.0000
  C   C1447     1.0  0.38375  0.85484  0.87544  1.0000
  H   H1433     1.0  0.37865  0.82670  0.90187  1.0000
  H   H1434     1.0  0.37416  0.84889  0.84765  1.0000
  H   H1435     1.0  0.36830  0.79971  0.90094  1.0000
  H   H1436     1.0  0.36399  0.82212  0.84611  1.0000
  H   H1437     1.0  0.36117  0.79729  0.87285  1.0000
  H   H1438     1.0  0.37205  0.86479  0.88082  1.0000
  H   H1439     1.0  0.39363  0.85116  0.88433  1.0000
  H   H1440     1.0  0.39063  0.86114  0.86193  1.0000
  H   H1441     1.0  0.05103  0.82352  0.96564  1.0000
  C   C1448     1.0  0.40723  0.69606  0.80531  1.0000
  C   C1449     1.0  0.36805  0.68136  0.77056  1.0000
  H   H1442     1.0  0.10883  0.91276  0.82562  1.0000
  H   H1443     1.0  0.29861  0.81831  0.73749  1.0000
  S   S481      1.0  0.41123  0.90206  0.96784  1.0000
  C   C1450     1.0  0.37022  0.68945  0.78356  1.0000
  C   C1451     1.0  0.12093  0.80295  0.95291  1.0000
  H   H1444     1.0  0.44061  0.88575  0.91065  1.0000
  H   H1445     1.0  0.41387  0.68694  0.76664  1.0000
  C   C1452     1.0  0.15517  0.83578  0.96251  1.0000
  C   C1453     1.0  0.46067  0.81243  0.79074  1.0000
  N   N124      1.0  0.39900  0.82178  0.95107  1.0000
  S   S482      1.0  0.11134  0.97688  0.80640  1.0000
  C   C1454     1.0  0.38981  0.83031  0.96485  1.0000
  H   H1446     1.0  0.48793  0.90622  0.88344  1.0000
  H   H1447     1.0  0.32504  0.77733  0.95104  1.0000
  N   N125      1.0  0.40635  0.71891  0.73919  1.0000
  H   H1448     1.0  0.08719  0.76191  0.96044  1.0000
  C   C1455     1.0  0.42640  0.81624  0.96166  1.0000
  H   H1449     1.0  0.11673  0.94668  0.73422  1.0000
  H   H1450     1.0  0.10121  0.80296  0.91449  1.0000
  H   H1451     1.0  0.14238  0.85594  0.97851  1.0000
  H   H1452     1.0  0.39658  0.74497  0.74507  1.0000
  C   C1456     1.0  0.11707  0.97244  0.73883  1.0000
  C   C1457     1.0  0.10594  0.82294  0.97367  1.0000
  H   H1453     1.0  0.16029  0.84539  0.95090  1.0000
  C   C1458     1.0  0.47810  0.77668  0.79398  1.0000
  H   H1454     1.0  0.10308  0.77060  0.92878  1.0000
  C   C1459     1.0  0.44128  0.65633  0.74271  1.0000
  Fe  Fe240     1.0  0.37283  0.65453  0.73774  1.0000
  S   S483      1.0  0.35351  0.68053  0.74254  1.0000
  H   H1455     1.0  0.22830  0.74160  0.73827  1.0000
  C   C1460     1.0  0.28571  0.74364  0.73803  1.0000
  Fe  Fe241     1.0  0.13768  0.98400  0.80445  1.0000
  N   N126      1.0  0.16493  0.87807  0.73562  1.0000
  H   H1456     1.0  0.23164  0.74507  0.75880  1.0000
  H   H1457     1.0  0.05147  0.97189  0.80999  1.0000
  H   H1458     1.0  0.18508  0.85406  0.73798  1.0000
  C   C1461     1.0  0.31735  0.76199  0.97779  1.0000
  C   C1462     1.0  0.11150  0.80560  0.97009  1.0000
  H   H1459     1.0  0.29188  0.73961  0.95668  1.0000
  H   H1460     1.0  0.07052  0.83376  0.96049  1.0000
  H   H1461     1.0  0.39102  0.72682  0.76355  1.0000
  H   H1462     1.0  0.13741  0.87564  0.74436  1.0000
  H   H1463     1.0  0.44086  0.81136  0.95983  1.0000
  C   C1463     1.0  0.15220  0.80579  0.97650  1.0000
  C   C1464     1.0  0.41712  0.82492  0.97576  1.0000
  H   H1464     1.0  0.06993  0.78542  0.97739  1.0000
  C   C1465     1.0  0.42371  0.71488  0.72994  1.0000
  Fe  Fe242     1.0  0.11680  0.98499  0.77655  1.0000
  Fe  Fe243     1.0  0.70183  0.12002  0.05780  1.0000
  S   S484      1.0  0.69464  0.09581  0.07799  1.0000
  S   S485      1.0  0.71467  0.12060  0.02882  1.0000
  Fe  Fe244     1.0  0.68649  0.14478  0.08454  1.0000
  S   S486      1.0  0.67790  0.12265  0.10693  1.0000
  S   S487      1.0  0.68031  0.17404  0.08538  1.0000
  Fe  Fe245     1.0  0.70505  0.10642  0.09638  1.0000
  S   S488      1.0  0.72280  0.08754  0.11466  1.0000
  Fe  Fe246     1.0  0.66842  0.11436  0.08620  1.0000
  S   S489      1.0  0.64006  0.11105  0.08902  1.0000
  S   S490      1.0  0.71425  0.12938  0.07544  1.0000
  S   S491      1.0  0.67506  0.13780  0.06467  1.0000
  Fe  Fe247     1.0  0.59560  0.05893  0.00726  1.0000
  S   S492      1.0  0.59506  0.03878  0.03328  1.0000
  N   N127      1.0  0.67832  0.29838  0.19184  1.0000
  Fe  Fe248     1.0  0.57922  0.09065  0.02614  1.0000
  S   S493      1.0  0.57773  0.07292  0.05339  1.0000
  S   S494      1.0  0.57139  0.12083  0.02155  1.0000
  Fe  Fe249     1.0  0.60526  0.05857  0.04216  1.0000
  S   S495      1.0  0.63080  0.05186  0.05252  1.0000
  Fe  Fe250     1.0  0.56737  0.05517  0.04175  1.0000
  S   S496      1.0  0.54238  0.04600  0.05976  1.0000
  S   S497      1.0  0.60746  0.07764  0.01575  1.0000
  S   S498      1.0  0.56713  0.07400  0.01490  1.0000
  Fe  Fe251     1.0  0.64770  0.22523  0.15746  1.0000
  S   S499      1.0  0.62474  0.22516  0.18123  1.0000
  S   S500      1.0  0.66855  0.19958  0.15802  1.0000
  Fe  Fe252     1.0  0.63240  0.26343  0.14027  1.0000
  S   S501      1.0  0.60851  0.26629  0.16285  1.0000
  S   S502      1.0  0.63480  0.28590  0.11628  1.0000
  Fe  Fe253     1.0  0.62865  0.25265  0.18037  1.0000
  H   H1465     1.0  0.72251  0.11257  0.16217  1.0000
  Fe  Fe254     1.0  0.60739  0.23860  0.16105  1.0000
  S   S503      1.0  0.58214  0.22971  0.16155  1.0000
  S   S504      1.0  0.65277  0.25198  0.15772  1.0000
  S   S505      1.0  0.63008  0.23653  0.13729  1.0000
  H   H1466     1.0  0.56090  0.28316  0.00365  1.0000
  C   C1466     1.0  0.64997  0.01973  0.98960  1.0000
  H   H1467     1.0  0.58004  0.29528  0.13335  1.0000
  H   H1468     1.0  0.91561  0.06239  0.20392  1.0000
  C   C1467     1.0  0.56364  0.25820  0.03379  1.0000
  C   C1468     1.0  0.66418  0.04788  0.01307  1.0000
  C   C1469     1.0  0.64994  0.03009  0.00166  1.0000
  N   N128      1.0  0.87719  0.99740  0.15937  1.0000
  C   C1470     1.0  0.89158  0.00469  0.17928  1.0000
  Fe  Fe255     1.0  0.82016  0.08186  0.12428  1.0000
  S   S506      1.0  0.84563  0.09186  0.12018  1.0000
  S   S507      1.0  0.80297  0.09655  0.10381  1.0000
  Fe  Fe256     1.0  0.83070  0.05078  0.15460  1.0000
  S   S508      1.0  0.85690  0.05826  0.15261  1.0000
  S   S509      1.0  0.82435  0.02493  0.17241  1.0000
  Fe  Fe257     1.0  0.84069  0.08645  0.15035  1.0000
  S   S510      1.0  0.84115  0.10595  0.16691  1.0000
  Fe  Fe258     1.0  0.85916  0.06278  0.12289  1.0000
  S   S511      1.0  0.88316  0.04957  0.10469  1.0000
  S   S512      1.0  0.81398  0.07869  0.15428  1.0000
  S   S513      1.0  0.83415  0.05315  0.12505  1.0000
  Fe  Fe259     1.0  0.88003  0.05185  0.00823  1.0000
  S   S514      1.0  0.87313  0.02484  0.02061  1.0000
  S   S515      1.0  0.87642  0.07377  0.02326  1.0000
  H   H1469     1.0  0.86972  0.11545  0.21100  1.0000
  H   H1470     1.0  0.57416  0.25620  0.02156  1.0000
  Fe  Fe260     1.0  0.85768  0.03078  0.99875  1.0000
  H   H1471     1.0  0.49868  0.18059  0.10290  1.0000
  H   H1472     1.0  0.74140  0.09592  0.15400  1.0000
  S   S516      1.0  0.91776  0.98950  0.00548  1.0000
  H   H1473     1.0  0.54366  0.27389  0.06052  1.0000
  Fe  Fe261     1.0  0.54651  0.18752  0.08009  1.0000
  S   S517      1.0  0.53259  0.20384  0.10130  1.0000
  S   S518      1.0  0.56150  0.15890  0.08609  1.0000
  Fe  Fe262     1.0  0.53661  0.21796  0.04970  1.0000
  C   C1471     1.0  0.51943  0.27756  0.00896  1.0000
  C   C1472     1.0  0.82660  0.09487  0.05949  1.0000
  Fe  Fe263     1.0  0.54524  0.22587  0.08190  1.0000
  S   S519      1.0  0.55973  0.24499  0.08675  1.0000
  H   H1474     1.0  0.93390  0.04561  0.21141  1.0000
  S   S520      1.0  0.56091  0.20872  0.06202  1.0000
  S   S521      1.0  0.52345  0.19520  0.06599  1.0000
  H   H1475     1.0  0.90330  0.12859  0.16167  1.0000
  C   C1473     1.0  0.83710  0.99873  0.19898  1.0000
  H   H1476     1.0  0.63297  0.30708  0.20562  1.0000
  H   H1477     1.0  0.66969  0.09439  0.01912  1.0000
  N   N129      1.0  0.88272  0.14702  0.17511  1.0000
  C   C1474     1.0  0.51168  0.01194  0.04415  1.0000
  C   C1475     1.0  0.60976  0.31295  0.10219  1.0000
  C   C1476     1.0  0.88151  0.05629  0.08201  1.0000
  C   C1477     1.0  0.88753  0.04374  0.07081  1.0000
  C   C1478     1.0  0.88592  0.04892  0.05275  1.0000
  C   C1479     1.0  0.87875  0.06680  0.04574  1.0000
  C   C1480     1.0  0.87317  0.07942  0.05682  1.0000
  C   C1481     1.0  0.87423  0.07413  0.07499  1.0000
  H   H1478     1.0  0.89327  0.02995  0.07616  1.0000
  H   H1479     1.0  0.89044  0.03913  0.04425  1.0000
  H   H1480     1.0  0.86784  0.09331  0.05140  1.0000
  H   H1481     1.0  0.86978  0.08392  0.08350  1.0000
  C   C1482     1.0  0.83583  0.01676  0.19022  1.0000
  H   H1482     1.0  0.89406  0.14903  0.14733  1.0000
  H   H1483     1.0  0.83225  0.09869  0.06924  1.0000
  C   C1483     1.0  0.84399  0.02785  0.19555  1.0000
  C   C1484     1.0  0.60940  0.31075  0.13345  1.0000
  H   H1484     1.0  0.72031  0.09867  0.14803  1.0000
  H   H1485     1.0  0.84264  0.04191  0.18923  1.0000
  C   C1485     1.0  0.88902  0.10134  0.19180  1.0000
  C   C1486     1.0  0.87170  0.10917  0.19975  1.0000
  C   C1487     1.0  0.85694  0.10980  0.19245  1.0000
  C   C1488     1.0  0.85938  0.10225  0.17745  1.0000
  C   C1489     1.0  0.87658  0.09348  0.17017  1.0000
  C   C1490     1.0  0.89138  0.09313  0.17726  1.0000
  H   H1486     1.0  0.89487  0.00201  0.19239  1.0000
  C   C1491     1.0  0.85369  0.02080  0.20936  1.0000
  H   H1487     1.0  0.87857  0.08769  0.15855  1.0000
  H   H1488     1.0  0.90478  0.08704  0.17104  1.0000
  C   C1492     1.0  0.68209  0.25660  0.22070  1.0000
  C   C1493     1.0  0.62550  0.19906  0.11660  1.0000
  H   H1489     1.0  0.74713  0.15649  0.09323  1.0000
  H   H1490     1.0  0.66074  0.30646  0.21526  1.0000
  C   C1494     1.0  0.56303  0.27879  0.15270  1.0000
  H   H1491     1.0  0.71577  0.15147  0.10285  1.0000
  H   H1492     1.0  0.77037  0.13768  0.11042  1.0000
  S   S522      1.0  0.62824  0.26157  0.20557  1.0000
  C   C1495     1.0  0.52657  0.28225  0.99056  1.0000
  C   C1496     1.0  0.66531  0.25326  0.20017  1.0000
  S   S523      1.0  0.71340  0.05710  0.99436  1.0000
  C   C1497     1.0  0.53488  0.24657  0.00901  1.0000
  C   C1498     1.0  0.54176  0.25124  0.99062  1.0000
  S   S524      1.0  0.92017  0.13474  0.22317  1.0000
  C   C1499     1.0  0.66180  0.30330  0.20237  1.0000
  H   H1493     1.0  0.93389  0.07679  0.00626  1.0000
  H   H1494     1.0  0.56866  0.27888  0.16386  1.0000
  C   C1500     1.0  0.54937  0.27815  0.12382  1.0000
  H   H1495     1.0  0.53568  0.07885  0.07905  1.0000
  H   H1496     1.0  0.70579  0.19733  0.19366  1.0000
  C   C1501     1.0  0.52732  0.12770  0.05235  1.0000
  H   H1497     1.0  0.84454  0.02418  0.06267  1.0000
  H   H1498     1.0  0.74534  0.10024  0.05283  1.0000
  H   H1499     1.0  0.83055  0.99017  0.19511  1.0000
  C   C1502     1.0  0.57719  0.23260  0.14034  1.0000
  C   C1503     1.0  0.58589  0.24338  0.12525  1.0000
  C   C1504     1.0  0.58083  0.24662  0.10870  1.0000
  C   C1505     1.0  0.56705  0.23912  0.10714  1.0000
  C   C1506     1.0  0.55865  0.22799  0.12210  1.0000
  C   C1507     1.0  0.56368  0.22479  0.13868  1.0000
  H   H1500     1.0  0.59604  0.24979  0.12645  1.0000
  H   H1501     1.0  0.58736  0.25527  0.09718  1.0000
  H   H1502     1.0  0.54788  0.22230  0.12108  1.0000
  H   H1503     1.0  0.55685  0.21651  0.15034  1.0000
  C   C1508     1.0  0.53170  0.03189  0.05369  1.0000
  C   C1509     1.0  0.53593  0.02862  0.03630  1.0000
  C   C1510     1.0  0.52598  0.01859  0.03157  1.0000
  H   H1504     1.0  0.88155  0.13125  0.15714  1.0000
  H   H1505     1.0  0.54668  0.03400  0.02643  1.0000
  H   H1506     1.0  0.52916  0.01628  0.01804  1.0000
  C   C1511     1.0  0.84061  0.03855  0.06213  1.0000
  C   C1512     1.0  0.56980  0.13116  0.03938  1.0000
  C   C1513     1.0  0.57366  0.12114  0.05587  1.0000
  C   C1514     1.0  0.57141  0.12974  0.07012  1.0000
  C   C1515     1.0  0.56538  0.14840  0.06789  1.0000
  C   C1516     1.0  0.56191  0.15845  0.05130  1.0000
  C   C1517     1.0  0.56407  0.14984  0.03711  1.0000
  H   H1507     1.0  0.57836  0.10681  0.05772  1.0000
  H   H1508     1.0  0.57422  0.12190  0.08291  1.0000
  H   H1509     1.0  0.55752  0.17289  0.04935  1.0000
  H   H1510     1.0  0.56121  0.15771  0.02434  1.0000
  C   C1518     1.0  0.74574  0.08856  0.11049  1.0000
  C   C1519     1.0  0.75348  0.10002  0.09540  1.0000
  C   C1520     1.0  0.77128  0.10185  0.09322  1.0000
  C   C1521     1.0  0.78146  0.09230  0.10617  1.0000
  C   C1522     1.0  0.77399  0.08034  0.12097  1.0000
  C   C1523     1.0  0.75619  0.07840  0.12305  1.0000
  H   H1511     1.0  0.74571  0.10771  0.08553  1.0000
  H   H1512     1.0  0.77701  0.11109  0.08173  1.0000
  H   H1513     1.0  0.78182  0.07281  0.13095  1.0000
  H   H1514     1.0  0.75037  0.06932  0.13466  1.0000
  C   C1524     1.0  0.67746  0.18059  0.10575  1.0000
  C   C1525     1.0  0.67304  0.19895  0.10597  1.0000
  C   C1526     1.0  0.67034  0.20475  0.12202  1.0000
  C   C1527     1.0  0.67227  0.19222  0.13790  1.0000
  C   C1528     1.0  0.67687  0.17381  0.13771  1.0000
  C   C1529     1.0  0.67924  0.16797  0.12165  1.0000
  H   H1515     1.0  0.67172  0.20874  0.09368  1.0000
  H   H1516     1.0  0.66711  0.21897  0.12201  1.0000
  H   H1517     1.0  0.67822  0.16409  0.15003  1.0000
  H   H1518     1.0  0.68236  0.15379  0.12159  1.0000
  C   C1530     1.0  0.63767  0.09437  0.07905  1.0000
  C   C1531     1.0  0.65270  0.08251  0.07171  1.0000
  C   C1532     1.0  0.65046  0.06931  0.06383  1.0000
  C   C1533     1.0  0.63322  0.06817  0.06290  1.0000
  C   C1534     1.0  0.61820  0.08019  0.07001  1.0000
  C   C1535     1.0  0.62041  0.09312  0.07825  1.0000
  H   H1519     1.0  0.66602  0.08331  0.07230  1.0000
  H   H1520     1.0  0.66213  0.06005  0.05837  1.0000
  H   H1521     1.0  0.60485  0.07927  0.06953  1.0000
  H   H1522     1.0  0.60871  0.10211  0.08407  1.0000
  C   C1536     1.0  0.71234  0.10356  0.01946  1.0000
  C   C1537     1.0  0.71788  0.10486  0.00092  1.0000
  C   C1538     1.0  0.71745  0.09090  0.99314  1.0000
  C   C1539     1.0  0.71173  0.07543  0.00389  1.0000
  C   C1540     1.0  0.70565  0.07429  0.02240  1.0000
  C   C1541     1.0  0.70590  0.08840  0.03018  1.0000
  H   H1523     1.0  0.72272  0.11662  0.99252  1.0000
  H   H1524     1.0  0.49711  0.04977  0.03999  1.0000
  H   H1525     1.0  0.70115  0.06236  0.03077  1.0000
  H   H1526     1.0  0.70155  0.08727  0.04447  1.0000
  C   C1542     1.0  0.89648  0.01923  0.16609  1.0000
  H   H1527     1.0  0.57043  0.25407  0.04540  1.0000
  Fe  Fe264     1.0  0.89684  0.01486  0.00010  1.0000
  Fe  Fe265     1.0  0.90553  0.11351  0.22345  1.0000
  H   H1528     1.0  0.90379  0.02789  0.16878  1.0000
  C   C1543     1.0  0.83626  0.05022  0.04655  1.0000
  H   H1529     1.0  0.83471  0.06940  0.08744  1.0000
  N   N130      1.0  0.62901  0.12729  0.04043  1.0000
  C   C1544     1.0  0.62616  0.11373  0.03422  1.0000
  C   C1545     1.0  0.64614  0.12915  0.03932  1.0000
  C   C1546     1.0  0.64073  0.10173  0.02642  1.0000
  C   C1547     1.0  0.66056  0.20793  0.20675  1.0000
  C   C1548     1.0  0.65826  0.10368  0.02501  1.0000
  H   H1530     1.0  0.61520  0.30790  0.08991  1.0000
  H   H1531     1.0  0.61257  0.11194  0.03555  1.0000
  H   H1532     1.0  0.64838  0.13963  0.04461  1.0000
  H   H1533     1.0  0.63843  0.09075  0.02192  1.0000
  S   S525      1.0  0.61302  0.05064  0.98195  1.0000
  C   C1549     1.0  0.53413  0.31203  0.02969  1.0000
  H   H1534     1.0  0.50007  0.06223  0.06464  1.0000
  N   N131      1.0  0.66453  0.03730  0.00008  1.0000
  H   H1535     1.0  0.51091  0.28767  0.01612  1.0000
  N   N132      1.0  0.67839  0.20594  0.20670  1.0000
  C   C1550     1.0  0.61361  0.13929  0.04920  1.0000
  H   H1536     1.0  0.90815  0.14767  0.17971  1.0000
  C   C1551     1.0  0.81949  0.03055  0.98712  1.0000
  H   H1537     1.0  0.61705  0.15220  0.04902  1.0000
  C   C1552     1.0  0.64724  0.29914  0.18068  1.0000
  C   C1553     1.0  0.84696  0.99165  0.21261  1.0000
  H   H1538     1.0  0.52626  0.30526  0.05846  1.0000
  H   H1539     1.0  0.89531  0.03407  0.13912  1.0000
  S   S526      1.0  0.70290  0.25332  0.22671  1.0000
  H   H1540     1.0  0.89478  0.16331  0.20513  1.0000
  S   S527      1.0  0.90519  0.04166  0.98928  1.0000
  H   H1541     1.0  0.53131  0.13643  0.08998  1.0000
  C   C1554     1.0  0.64724  0.21390  0.22081  1.0000
  H   H1542     1.0  0.67541  0.05527  0.00878  1.0000
  H   H1543     1.0  0.53002  0.10453  0.09411  1.0000
  H   H1544     1.0  0.84199  0.16250  0.19967  1.0000
  S   S528      1.0  0.82922  0.02655  0.00593  1.0000
  C   C1555     1.0  0.54395  0.30576  0.01425  1.0000
  C   C1556     1.0  0.86437  0.15134  0.18042  1.0000
  H   H1545     1.0  0.83652  0.04499  0.03497  1.0000
  H   H1546     1.0  0.93220  0.06898  0.21159  1.0000
  S   S529      1.0  0.53998  0.22402  0.01983  1.0000
  H   H1547     1.0  0.70599  0.28751  0.19294  1.0000
  C   C1557     1.0  0.88617  0.15984  0.19832  1.0000
  H   H1548     1.0  0.85573  0.14796  0.17355  1.0000
  C   C1558     1.0  0.67946  0.03426  0.98682  1.0000
  C   C1559     1.0  0.52382  0.25977  0.01824  1.0000
  H   H1549     1.0  0.54426  0.27738  0.11255  1.0000
  C   C1560     1.0  0.89079  0.13864  0.15949  1.0000
  C   C1561     1.0  0.85546  0.00260  0.21769  1.0000
  H   H1550     1.0  0.50871  0.14228  0.08566  1.0000
  C   C1562     1.0  0.84002  0.04548  0.07695  1.0000
  H   H1551     1.0  0.79264  0.03040  0.00291  1.0000
  C   C1563     1.0  0.89361  0.15120  0.18382  1.0000
  C   C1564     1.0  0.55373  0.28803  0.01579  1.0000
  H   H1552     1.0  0.74481  0.04337  0.03729  1.0000
  C   C1565     1.0  0.66101  0.11748  0.03149  1.0000
  H   H1553     1.0  0.60224  0.14262  0.04219  1.0000
  H   H1554     1.0  0.69757  0.20870  0.22026  1.0000
  H   H1555     1.0  0.87758  0.01499  0.13368  1.0000
  N   N133      1.0  0.73445  0.11976  0.13464  1.0000
  C   C1566     1.0  0.75168  0.12269  0.12964  1.0000
  C   C1567     1.0  0.72163  0.12997  0.12526  1.0000
  C   C1568     1.0  0.75653  0.13587  0.11465  1.0000
  C   C1569     1.0  0.72596  0.14342  0.11032  1.0000
  C   C1570     1.0  0.74355  0.14629  0.10495  1.0000
  C   C1571     1.0  0.72942  0.10611  0.15055  1.0000
  H   H1556     1.0  0.76194  0.11449  0.13692  1.0000
  H   H1557     1.0  0.70801  0.12754  0.12916  1.0000
  H   H1558     1.0  0.66526  0.24916  0.18817  1.0000
  H   H1559     1.0  0.50150  0.21961  0.02502  1.0000
  H   H1560     1.0  0.86172  0.17019  0.21566  1.0000
  H   H1561     1.0  0.89000  0.07357  0.22510  1.0000
  H   H1562     1.0  0.52670  0.15185  0.07001  1.0000
  H   H1563     1.0  0.65660  0.20519  0.19566  1.0000
  H   H1564     1.0  0.53601  0.08470  0.04656  1.0000
  H   H1565     1.0  0.53125  0.11612  0.02921  1.0000
  H   H1566     1.0  0.74922  0.05852  0.00593  1.0000
  H   H1567     1.0  0.51453  0.02710  0.07991  1.0000
  C   C1572     1.0  0.86753  0.16385  0.20414  1.0000
  N   N134      1.0  0.55377  0.27690  0.03229  1.0000
  H   H1568     1.0  0.60919  0.13268  0.06339  1.0000
  H   H1569     1.0  0.69425  0.24665  0.19637  1.0000
  C   C1573     1.0  0.68348  0.20963  0.22052  1.0000
  C   C1574     1.0  0.75092  0.08535  0.03180  1.0000
  N   N135      1.0  0.75050  0.06967  0.02752  1.0000
  H   H1570     1.0  0.68931  0.18881  0.18789  1.0000
  H   H1571     1.0  0.66522  0.03890  0.02635  1.0000
  H   H1572     1.0  0.63537  0.19180  0.12524  1.0000
  H   H1573     1.0  0.84362  0.11650  0.19820  1.0000
  C   C1575     1.0  0.50774  0.01491  0.06163  1.0000
  C   C1576     1.0  0.52325  0.13946  0.07945  1.0000
  C   C1577     1.0  0.88200  0.99377  0.17562  1.0000
  H   H1574     1.0  0.81172  0.09913  0.06287  1.0000
  C   C1578     1.0  0.75664  0.06739  0.00886  1.0000
  H   H1575     1.0  0.61454  0.20764  0.12467  1.0000
  H   H1576     1.0  0.63231  0.20784  0.10475  1.0000
  H   H1577     1.0  0.61475  0.30415  0.14535  1.0000
  H   H1578     1.0  0.52547  0.14135  0.04461  1.0000
  C   C1579     1.0  0.74000  0.07352  0.06313  1.0000
  C   C1580     1.0  0.53313  0.09260  0.07155  1.0000
  C   C1581     1.0  0.64908  0.25967  0.21117  1.0000
  H   H1579     1.0  0.64410  0.16844  0.10679  1.0000
  C   C1582     1.0  0.64603  0.30376  0.19696  1.0000
  N   N136      1.0  0.52728  0.12441  0.07027  1.0000
  C   C1583     1.0  0.53330  0.09585  0.05327  1.0000
  H   H1580     1.0  0.59195  0.20233  0.11250  1.0000
  N   N137      1.0  0.61856  0.18637  0.11072  1.0000
  C   C1584     1.0  0.60093  0.19010  0.10920  1.0000
  C   C1585     1.0  0.63000  0.17117  0.10605  1.0000
  C   C1586     1.0  0.92441  0.05831  0.21390  1.0000
  N   N138      1.0  0.56277  0.28737  0.12123  1.0000
  C   C1587     1.0  0.53004  0.10714  0.07991  1.0000
  C   C1588     1.0  0.53404  0.30052  0.04642  1.0000
  C   C1589     1.0  0.88174  0.01178  0.14644  1.0000
  C   C1590     1.0  0.59420  0.17814  0.10345  1.0000
  H   H1581     1.0  0.63277  0.14673  0.09691  1.0000
  C   C1591     1.0  0.62371  0.15890  0.10033  1.0000
  C   C1592     1.0  0.53042  0.11348  0.04358  1.0000
  H   H1582     1.0  0.58018  0.18101  0.10238  1.0000
  C   C1593     1.0  0.60566  0.16239  0.09912  1.0000
  H   H1583     1.0  0.65134  0.05791  0.01474  1.0000
  H   H1584     1.0  0.82902  0.07775  0.03351  1.0000
  H   H1585     1.0  0.84355  0.03660  0.08910  1.0000
  H   H1586     1.0  0.56515  0.29354  0.09266  1.0000
  C   C1594     1.0  0.51776  0.02478  0.06638  1.0000
  S   S530      1.0  0.49833  0.00088  0.03748  1.0000
  H   H1587     1.0  0.60055  0.15293  0.09481  1.0000
  C   C1595     1.0  0.68175  0.25179  0.20488  1.0000
  C   C1596     1.0  0.54967  0.26904  0.15541  1.0000
  H   H1588     1.0  0.73523  0.04662  0.06906  1.0000
  H   H1589     1.0  0.49695  0.00962  0.07151  1.0000
  H   H1590     1.0  0.51830  0.25623  0.03241  1.0000
  S   S531      1.0  0.52203  0.23702  0.06788  1.0000
  Fe  Fe266     1.0  0.51063  0.21347  0.08543  1.0000
  C   C1597     1.0  0.69470  0.29820  0.19760  1.0000
  C   C1598     1.0  0.83185  0.06875  0.04585  1.0000
  C   C1599     1.0  0.57015  0.29672  0.10322  1.0000
  H   H1591     1.0  0.91043  0.08707  0.01083  1.0000
  H   H1592     1.0  0.75478  0.09652  0.02136  1.0000
  C   C1600     1.0  0.74513  0.05580  0.04069  1.0000
  H   H1593     1.0  0.75414  0.08047  0.99933  1.0000
  H   H1594     1.0  0.67457  0.11905  0.03065  1.0000
  H   H1595     1.0  0.73572  0.07512  0.07701  1.0000
  C   C1601     1.0  0.74558  0.08755  0.04962  1.0000
  C   C1602     1.0  0.85651  0.15957  0.19517  1.0000
  C   C1603     1.0  0.54393  0.28285  0.04748  1.0000
  S   S532      1.0  0.86271  0.05860  0.98798  1.0000
  H   H1596     1.0  0.86007  0.02939  0.21337  1.0000
  N   N139      1.0  0.83154  0.07543  0.06037  1.0000
  C   C1604     1.0  0.89171  0.02271  0.14948  1.0000
  N   N140      1.0  0.92094  0.08430  0.98373  1.0000
  C   C1605     1.0  0.92070  0.07780  0.00296  1.0000
  S   S533      1.0  0.90815  0.10311  0.19845  1.0000
  H   H1597     1.0  0.77128  0.06146  0.00616  1.0000
  C   C1606     1.0  0.83515  0.06406  0.07591  1.0000
  C   C1607     1.0  0.73972  0.05754  0.05866  1.0000
  H   H1598     1.0  0.83205  0.10228  0.04594  1.0000
  H   H1599     1.0  0.54516  0.26124  0.16861  1.0000
  H   H1600     1.0  0.63805  0.03254  0.01214  1.0000
  H   H1601     1.0  0.69264  0.29513  0.21246  1.0000
  C   C1608     1.0  0.61665  0.30426  0.11756  1.0000
  C   C1609     1.0  0.69190  0.20074  0.19119  1.0000
  C   C1610     1.0  0.80090  0.03186  0.98952  1.0000
  H   H1602     1.0  0.69862  0.31150  0.19243  1.0000
  C   C1611     1.0  0.54267  0.26880  0.14092  1.0000
  H   H1603     1.0  0.91717  0.06430  0.00750  1.0000
  H   H1604     1.0  0.63819  0.01435  0.99075  1.0000
  H   H1605     1.0  0.55420  0.24915  0.03575  1.0000
  H   H1606     1.0  0.53262  0.26087  0.14281  1.0000
  H   H1607     1.0  0.88680  0.98810  0.03515  1.0000
  C   C1612     1.0  0.67963  0.29424  0.17564  1.0000
  C   C1613     1.0  0.56946  0.28795  0.13542  1.0000
  H   H1608     1.0  0.49534  0.24776  0.00282  1.0000
  C   C1614     1.0  0.49251  0.23142  0.02935  1.0000
  H   H1609     1.0  0.69109  0.21193  0.17929  1.0000
  H   H1610     1.0  0.63309  0.21613  0.22047  1.0000
  H   H1611     1.0  0.58508  0.29254  0.10019  1.0000
  H   H1612     1.0  0.54367  0.31444  0.00111  1.0000
  H   H1613     1.0  0.89262  0.08654  0.98726  1.0000
  H   H1614     1.0  0.56645  0.31149  0.10243  1.0000
  H   H1615     1.0  0.85165  0.99294  0.15977  1.0000
  H   H1616     1.0  0.69115  0.03974  0.98566  1.0000
  C   C1615     1.0  0.64942  0.26466  0.22693  1.0000
  H   H1617     1.0  0.66517  0.29065  0.15726  1.0000
  C   C1616     1.0  0.66412  0.29442  0.16987  1.0000
  H   H1618     1.0  0.69272  0.29045  0.16725  1.0000
  C   C1617     1.0  0.86612  0.98654  0.15622  1.0000
  C   C1618     1.0  0.53782  0.26908  0.98148  1.0000
  H   H1619     1.0  0.63511  0.29879  0.17668  1.0000
  H   H1620     1.0  0.55031  0.24108  0.98342  1.0000
  H   H1621     1.0  0.86956  0.98528  0.14195  1.0000
  C   C1619     1.0  0.96920  0.23265  0.36096  1.0000
  H   H1622     1.0  0.73881  0.31293  0.40384  1.0000
  C   C1620     1.0  0.92198  0.04573  0.24600  1.0000
  S   S534      1.0  0.95833  0.30790  0.42006  1.0000
  Fe  Fe267     1.0  0.94638  0.01717  0.32499  1.0000
  C   C1621     1.0  0.93773  0.25162  0.34976  1.0000
  H   H1623     1.0  0.88013  0.21065  0.24477  1.0000
  Fe  Fe268     1.0  0.84225  0.26098  0.33389  1.0000
  S   S535      1.0  0.84796  0.28523  0.31272  1.0000
  S   S536      1.0  0.82342  0.26353  0.36030  1.0000
  Fe  Fe269     1.0  0.86390  0.23469  0.31005  1.0000
  S   S537      1.0  0.87131  0.25667  0.28696  1.0000
  S   S538      1.0  0.87226  0.20511  0.30998  1.0000
  Fe  Fe270     1.0  0.87615  0.26894  0.30772  1.0000
  Fe  Fe271     1.0  0.84237  0.27065  0.29426  1.0000
  S   S539      1.0  0.82617  0.28412  0.27272  1.0000
  S   S540      1.0  0.87085  0.24578  0.33043  1.0000
  S   S541      1.0  0.83470  0.24753  0.31586  1.0000
  Fe  Fe272     1.0  0.68902  0.28563  0.27928  1.0000
  S   S542      1.0  0.70740  0.25961  0.27450  1.0000
  S   S543      1.0  0.66828  0.28547  0.30501  1.0000
  S   S544      1.0  0.98626  0.98660  0.29993  1.0000
  C   C1622     1.0  0.94126  0.99029  0.24608  1.0000
  C   C1623     1.0  0.97523  0.13071  0.26359  1.0000
  Fe  Fe273     1.0  0.70461  0.26960  0.24583  1.0000
  H   H1624     1.0  0.84632  0.24724  0.26682  1.0000
  Fe  Fe274     1.0  0.72950  0.27515  0.26751  1.0000
  S   S545      1.0  0.75166  0.26176  0.28297  1.0000
  H   H1625     1.0  0.73957  0.29117  0.30470  1.0000
  S   S546      1.0  0.71117  0.30069  0.27380  1.0000
  S   S547      1.0  0.88420  0.17467  0.23967  1.0000
  C   C1624     1.0  0.79447  0.22821  0.27857  1.0000
  C   C1625     1.0  0.81457  0.21424  0.29901  1.0000
  Fe  Fe275     1.0  0.98528  0.29564  0.35741  1.0000
  H   H1626     1.0  0.69080  0.27307  0.33328  1.0000
  S   S548      1.0  0.92267  0.03475  0.33920  1.0000
  C   C1626     1.0  0.95388  0.14721  0.24487  1.0000
  C   C1627     1.0  0.92360  0.29259  0.31505  1.0000
  S   S549      1.0  0.90573  0.12777  0.26713  1.0000
  Fe  Fe276     1.0  0.89251  0.10718  0.26368  1.0000
  H   H1627     1.0  0.93572  0.25282  0.29348  1.0000
  H   H1628     1.0  0.94145  0.23030  0.33593  1.0000
  H   H1629     1.0  0.91981  0.99305  0.28334  1.0000
  C   C1628     1.0  0.79780  0.21693  0.29469  1.0000
  H   H1630     1.0  0.52690  0.12354  0.47754  1.0000
  C   C1629     1.0  0.89628  0.06488  0.23587  1.0000
  C   C1630     1.0  0.81011  0.24338  0.40618  1.0000
  C   C1631     1.0  0.88630  0.06327  0.25351  1.0000
  H   H1631     1.0  0.91900  0.03566  0.27457  1.0000
  S   S550      1.0  0.97518  0.23665  0.30238  1.0000
  H   H1632     1.0  0.98173  0.22556  0.36507  1.0000
  S   S551      1.0  0.97491  0.18865  0.30072  1.0000
  Fe  Fe277     1.0  0.96529  0.31212  0.38995  1.0000
  C   C1632     1.0  0.97176  0.16309  0.25385  1.0000
  H   H1633     1.0  0.51213  0.10215  0.47104  1.0000
  H   H1634     1.0  0.98977  0.02472  0.34450  1.0000
  C   C1633     1.0  0.90980  0.05000  0.32447  1.0000
  C   C1634     1.0  0.89149  0.05644  0.33079  1.0000
  C   C1635     1.0  0.88120  0.06909  0.31930  1.0000
  C   C1636     1.0  0.88932  0.07582  0.30166  1.0000
  C   C1637     1.0  0.90771  0.06966  0.29545  1.0000
  C   C1638     1.0  0.91783  0.05652  0.30672  1.0000
  H   H1635     1.0  0.91413  0.07484  0.28192  1.0000
  H   H1636     1.0  0.93196  0.05193  0.30178  1.0000
  H   H1637     1.0  0.98986  0.14670  0.27084  1.0000
  H   H1638     1.0  0.68345  0.29680  0.35099  1.0000
  N   N141      1.0  0.82423  0.23440  0.27157  1.0000
  Fe  Fe278     1.0  0.94631  0.31536  0.35983  1.0000
  H   H1639     1.0  0.91484  0.10887  0.32528  1.0000
  H   H1640     1.0  0.86697  0.07380  0.32416  1.0000
  S   S552      1.0  0.68394  0.29420  0.25130  1.0000
  H   H1641     1.0  0.90935  0.10201  0.30744  1.0000
  C   C1639     1.0  0.71587  0.28034  0.31812  1.0000
  C   C1640     1.0  0.83834  0.24326  0.25925  1.0000
  H   H1642     1.0  0.80083  0.29325  0.24950  1.0000
  Fe  Fe279     1.0  0.96214  0.00459  0.29001  1.0000
  H   H1643     1.0  0.97078  0.08479  0.28307  1.0000
  S   S553      1.0  0.91689  0.09411  0.24604  1.0000
  H   H1644     1.0  0.93989  0.30509  0.32455  1.0000
  H   H1645     1.0  0.93975  0.10240  0.28988  1.0000
  C   C1641     1.0  0.97149  0.20879  0.34524  1.0000
  C   C1642     1.0  0.96214  0.08135  0.29612  1.0000
  C   C1643     1.0  0.72269  0.30575  0.32502  1.0000
  S   S554      1.0  0.97135  0.31794  0.33846  1.0000
  C   C1644     1.0  0.80439  0.27979  0.27623  1.0000
  C   C1645     1.0  0.79666  0.26997  0.29259  1.0000
  C   C1646     1.0  0.78009  0.26521  0.29464  1.0000
  C   C1647     1.0  0.77095  0.27044  0.28045  1.0000
  C   C1648     1.0  0.77823  0.28094  0.26429  1.0000
  C   C1649     1.0  0.79499  0.28553  0.26217  1.0000
  H   H1646     1.0  0.80344  0.26592  0.30367  1.0000
  H   H1647     1.0  0.77451  0.25713  0.30720  1.0000
  H   H1648     1.0  0.77129  0.28497  0.25324  1.0000
  H   H1649     1.0  0.98185  0.05880  0.30603  1.0000
  C   C1650     1.0  0.87555  0.19717  0.29016  1.0000
  C   C1651     1.0  0.87659  0.20871  0.27330  1.0000
  C   C1652     1.0  0.87919  0.20176  0.25782  1.0000
  C   C1653     1.0  0.88086  0.18327  0.25915  1.0000
  C   C1654     1.0  0.87969  0.17186  0.27603  1.0000
  C   C1655     1.0  0.87717  0.17876  0.29144  1.0000
  H   H1650     1.0  0.87557  0.22291  0.27215  1.0000
  H   H1651     1.0  0.88036  0.15773  0.27732  1.0000
  H   H1652     1.0  0.87626  0.16978  0.30445  1.0000
  C   C1656     1.0  0.82638  0.28042  0.36939  1.0000
  C   C1657     1.0  0.81181  0.28900  0.38079  1.0000
  C   C1658     1.0  0.81438  0.30094  0.38994  1.0000
  H   H1653     1.0  0.66603  0.26672  0.24402  1.0000
  C   C1659     1.0  0.84609  0.29579  0.37629  1.0000
  C   C1660     1.0  0.84347  0.28417  0.36674  1.0000
  H   H1654     1.0  0.79850  0.28643  0.38256  1.0000
  Fe  Fe280     1.0  0.70791  0.30696  0.24522  1.0000
  H   H1655     1.0  0.93050  0.06881  0.34171  1.0000
  H   H1656     1.0  0.85477  0.27745  0.35803  1.0000
  S   S555      1.0  0.82072  0.30936  0.45237  1.0000
  C   C1661     1.0  0.97500  0.26325  0.31873  1.0000
  C   C1662     1.0  0.72732  0.29226  0.31501  1.0000
  C   C1663     1.0  0.65579  0.30620  0.33053  1.0000
  S   S556      1.0  0.95999  0.29177  0.37767  1.0000
  H   H1657     1.0  0.96196  0.26922  0.31534  1.0000
  H   H1658     1.0  0.78135  0.23067  0.27521  1.0000
  H   H1659     1.0  0.89019  0.29576  0.36036  1.0000
  H   H1660     1.0  0.93285  0.29198  0.30227  1.0000
  C   C1664     1.0  0.96835  0.06685  0.30900  1.0000
  C   C1665     1.0  0.91542  0.30145  0.34388  1.0000
  S   S557      1.0  0.97755  0.18347  0.25297  1.0000
  H   H1661     1.0  0.93487  0.00337  0.23961  1.0000
  H   H1662     1.0  0.73605  0.29418  0.45987  1.0000
  H   H1663     1.0  0.92565  0.25910  0.34495  1.0000
  C   C1666     1.0  0.83158  0.30398  0.38812  1.0000
  C   C1667     1.0  0.70006  0.28194  0.33119  1.0000
  Fe  Fe281     1.0  0.79397  0.30138  0.46036  1.0000
  H   H1664     1.0  0.97346  0.28301  0.33377  1.0000
  S   S558      1.0  0.79239  0.27391  0.47729  1.0000
  H   H1665     1.0  0.81740  0.20547  0.31148  1.0000
  H   H1666     1.0  0.80266  0.23464  0.41752  1.0000
  C   C1668     1.0  0.94472  0.25849  0.36055  1.0000
  C   C1669     1.0  0.96054  0.24892  0.36625  1.0000
  C   C1670     1.0  0.96223  0.13091  0.25420  1.0000
  C   C1671     1.0  0.97982  0.14686  0.26363  1.0000
  H   H1667     1.0  0.96852  0.19753  0.35662  1.0000
  H   H1668     1.0  0.88521  0.05148  0.34451  1.0000
  H   H1669     1.0  0.69644  0.31666  0.36234  1.0000
  H   H1670     1.0  0.80505  0.24598  0.25479  1.0000
  S   S559      1.0  0.88002  0.12507  0.24101  1.0000
  S   S560      1.0  0.87626  0.09161  0.28748  1.0000
  S   S561      1.0  0.96456  0.02806  0.29981  1.0000
  S   S562      1.0  0.78800  0.31099  0.43288  1.0000
  H   H1671     1.0  0.75801  0.29833  0.47792  1.0000
  C   C1672     1.0  0.71189  0.30221  0.44901  1.0000
  Fe  Fe282     1.0  0.92918  0.11632  0.24746  1.0000
  C   C1673     1.0  0.66394  0.30560  0.31256  1.0000
  H   H1672     1.0  0.83250  0.25591  0.25069  1.0000
  C   C1674     1.0  0.91237  0.04369  0.26377  1.0000
  S   S563      1.0  0.72854  0.28278  0.23822  1.0000
  H   H1673     1.0  0.80038  0.25395  0.39920  1.0000
  C   C1675     1.0  0.90740  0.28660  0.31863  1.0000
  C   C1676     1.0  0.98155  0.27113  0.32912  1.0000
  C   C1677     1.0  0.94453  0.09120  0.29998  1.0000
  S   S564      1.0  0.95645  0.11080  0.25411  1.0000
  H   H1674     1.0  0.64207  0.22296  0.24560  1.0000
  H   H1675     1.0  0.73153  0.31513  0.32232  1.0000
  H   H1676     1.0  0.80298  0.30790  0.39823  1.0000
  H   H1677     1.0  0.71909  0.27006  0.31019  1.0000
  C   C1678     1.0  0.92766  0.29994  0.32768  1.0000
  Fe  Fe283     1.0  0.89550  0.14476  0.24287  1.0000
  C   C1679     1.0  0.95886  0.16321  0.24444  1.0000
  C   C1680     1.0  0.68453  0.31280  0.43661  1.0000
  C   C1681     1.0  0.89561  0.28727  0.33521  1.0000
  H   H1678     1.0  0.49566  0.04115  0.46833  1.0000
  H   H1679     1.0  0.96642  0.25432  0.37423  1.0000
  H   H1680     1.0  0.79977  0.26010  0.43370  1.0000
  H   H1681     1.0  0.99096  0.11156  0.33125  1.0000
  H   H1682     1.0  0.69119  0.30369  0.42704  1.0000
  C   C1682     1.0  0.95456  0.30704  0.47852  1.0000
  H   H1683     1.0  0.84745  0.23408  0.25061  1.0000
  S   S565      1.0  0.90196  0.27908  0.30187  1.0000
  C   C1683     1.0  0.67051  0.21548  0.23488  1.0000
  C   C1684     1.0  0.65228  0.21771  0.23494  1.0000
  C   C1685     1.0  0.89439  0.05246  0.26750  1.0000
  H   H1684     1.0  0.98175  0.11811  0.27079  1.0000
  H   H1685     1.0  0.65161  0.29439  0.33954  1.0000
  N   N142      1.0  0.70721  0.30711  0.33796  1.0000
  N   N143      1.0  0.93335  0.08661  0.31613  1.0000
  H   H1686     1.0  0.84906  0.27709  0.42777  1.0000
  H   H1687     1.0  0.93811  0.27138  0.36418  1.0000
  H   H1688     1.0  0.84445  0.24612  0.39216  1.0000
  C   C1686     1.0  0.95693  0.06243  0.32555  1.0000
  H   H1689     1.0  0.89382  0.99521  0.26972  1.0000
  C   C1687     1.0  0.72449  0.30476  0.45738  1.0000
  C   C1688     1.0  0.69592  0.29547  0.34105  1.0000
  C   C1689     1.0  0.93942  0.07263  0.32897  1.0000
  C   C1690     1.0  0.82774  0.22305  0.28717  1.0000
  S   S566      1.0  0.94214  0.99519  0.31426  1.0000
  C   C1691     1.0  0.91495  0.09714  0.31985  1.0000
  H   H1690     1.0  0.84070  0.22091  0.29067  1.0000
  H   H1691     1.0  0.86266  0.26174  0.40203  1.0000
  H   H1692     1.0  0.93608  0.03923  0.24322  1.0000
  H   H1693     1.0  0.88314  0.28262  0.33808  1.0000
  S   S567      1.0  0.96870  0.99985  0.33843  1.0000
  H   H1694     1.0  0.63690  0.26958  0.23555  1.0000
  C   C1692     1.0  0.98493  0.24738  0.31328  1.0000
  H   H1695     1.0  0.85942  0.29810  0.37487  1.0000
  N   N144      1.0  0.96230  0.22606  0.35028  1.0000
  C   C1693     1.0  0.94672  0.23527  0.34474  1.0000
  H   H1696     1.0  0.81838  0.23500  0.39635  1.0000
  S   S568      1.0  0.95404  0.00859  0.26366  1.0000
  H   H1697     1.0  0.67374  0.30696  0.44683  1.0000
  H   H1698     1.0  0.78733  0.21041  0.30385  1.0000
  H   H1699     1.0  0.96138  0.05086  0.33548  1.0000
  H   H1700     1.0  0.88684  0.05133  0.28125  1.0000
  C   C1694     1.0  0.89962  0.29470  0.34779  1.0000
  N   N145      1.0  0.93138  0.21333  0.27507  1.0000
  C   C1695     1.0  0.91835  0.21920  0.28880  1.0000
  C   C1696     1.0  0.94602  0.22123  0.26798  1.0000
  C   C1697     1.0  0.91960  0.23358  0.29552  1.0000
  C   C1698     1.0  0.94780  0.23550  0.27452  1.0000
  C   C1699     1.0  0.93446  0.24173  0.28833  1.0000
  C   C1700     1.0  0.93022  0.19788  0.26854  1.0000
  H   H1701     1.0  0.90689  0.21278  0.29463  1.0000
  H   H1702     1.0  0.95647  0.21651  0.25724  1.0000
  H   H1703     1.0  0.90913  0.23844  0.30619  1.0000
  H   H1704     1.0  0.95956  0.24156  0.26909  1.0000
  H   H1705     1.0  0.81766  0.27563  0.44394  1.0000
  H   H1706     1.0  0.93524  0.19975  0.25377  1.0000
  H   H1707     1.0  0.93863  0.18548  0.27498  1.0000
  H   H1708     1.0  0.91614  0.19592  0.27141  1.0000
  N   N146      1.0  0.82121  0.25180  0.41261  1.0000
  C   C1701     1.0  0.81368  0.26010  0.42687  1.0000
  C   C1702     1.0  0.83868  0.25210  0.40389  1.0000
  C   C1703     1.0  0.82371  0.26899  0.43272  1.0000
  C   C1704     1.0  0.84905  0.26095  0.40937  1.0000
  C   C1705     1.0  0.84143  0.26958  0.42379  1.0000
  H   H1709     1.0  0.94388  0.14748  0.23759  1.0000
  N   N147      1.0  0.69762  0.31575  0.44533  1.0000
  H   H1710     1.0  0.87253  0.07066  0.25642  1.0000
  H   H1711     1.0  0.98851  0.09546  0.36174  1.0000
  S   S569      1.0  0.91833  0.31345  0.35863  1.0000
  H   H1712     1.0  0.90573  0.08882  0.32959  1.0000
  C   C1706     1.0  0.80793  0.23688  0.26708  1.0000
  C   C1707     1.0  0.95180  0.98893  0.25845  1.0000
  H   H1713     1.0  0.71379  0.28946  0.44516  1.0000
  H   H1714     1.0  0.67458  0.21903  0.24547  1.0000
  S   S570      1.0  0.86902  0.99343  0.23375  1.0000
  S   S571      1.0  0.83533  0.31760  0.40076  1.0000
  H   H1715     1.0  0.96728  0.20709  0.33346  1.0000
  H   H1716     1.0  0.96203  0.29929  0.46836  1.0000
  C   C1708     1.0  0.66590  0.26317  0.23168  1.0000
  N   N148      1.0  0.91382  0.05597  0.23231  1.0000
  H   H1717     1.0  0.98628  0.20802  0.34131  1.0000
  Fe  Fe284     1.0  0.99083  0.20972  0.29702  1.0000
  Fe  Fe285     1.0  0.98674  0.00928  0.31235  1.0000
  C   C1709     1.0  0.60983  0.31484  0.47551  1.0000
  H   H1718     1.0  0.95272  0.17569  0.23672  1.0000
  H   H1719     1.0  0.98926  0.31673  0.47697  1.0000
  Fe  Fe286     1.0  0.59746  0.01001  0.58214  1.0000
  S   S572      1.0  0.62120  0.01852  0.56197  1.0000
  H   H1720     1.0  0.72864  0.29786  0.49940  1.0000
  Fe  Fe287     1.0  0.57057  0.03308  0.55924  1.0000
  Fe  Fe288     1.0  0.60744  0.01397  0.54222  1.0000
  Fe  Fe289     1.0  0.60379  0.04620  0.55911  1.0000
  S   S573      1.0  0.60851  0.07339  0.55905  1.0000
  S   S574      1.0  0.58447  0.00399  0.56273  1.0000
  S   S575      1.0  0.58117  0.03789  0.58101  1.0000
  Fe  Fe290     1.0  0.66221  0.10279  0.61160  1.0000
  S   S576      1.0  0.64118  0.10710  0.63622  1.0000
  S   S577      1.0  0.66527  0.07765  0.60134  1.0000
  Fe  Fe291     1.0  0.67839  0.13447  0.61181  1.0000
  S   S578      1.0  0.65885  0.14066  0.63687  1.0000
  S   S579      1.0  0.69994  0.15026  0.59646  1.0000
  Fe  Fe292     1.0  0.66357  0.11074  0.64683  1.0000
  S   S580      1.0  0.66874  0.09262  0.67292  1.0000
  Fe  Fe293     1.0  0.63859  0.13642  0.62355  1.0000
  S   S581      1.0  0.61295  0.15682  0.62120  1.0000
  S   S582      1.0  0.68490  0.10481  0.62288  1.0000
  S   S583      1.0  0.65785  0.13186  0.59787  1.0000
  C   C1710     1.0  0.52991  0.04309  0.54517  1.0000
  H   H1721     1.0  0.60671  0.02565  0.60539  1.0000
  S   S584      1.0  0.84294  0.27546  0.67638  1.0000
  S   S585      1.0  0.62808  0.30847  0.50287  1.0000
  C   C1711     1.0  0.50395  0.10656  0.52482  1.0000
  H   H1722     1.0  0.65743  0.06173  0.70394  1.0000
  C   C1712     1.0  0.70935  0.01985  0.72494  1.0000
  H   H1723     1.0  0.52514  0.27765  0.52861  1.0000
  H   H1724     1.0  0.91511  0.31082  0.50940  1.0000
  S   S586      1.0  0.61140  0.28213  0.55040  1.0000
  Fe  Fe294     1.0  0.58661  0.27191  0.55208  1.0000
  S   S587      1.0  0.58530  0.24282  0.56421  1.0000
  Fe  Fe295     1.0  0.71296  0.24474  0.59840  1.0000
  S   S588      1.0  0.69455  0.26298  0.58093  1.0000
  S   S589      1.0  0.70297  0.22134  0.61845  1.0000
  Fe  Fe296     1.0  0.73933  0.27018  0.58797  1.0000
  S   S590      1.0  0.72276  0.29080  0.56992  1.0000
  S   S591      1.0  0.76723  0.27232  0.58968  1.0000
  Fe  Fe297     1.0  0.69878  0.28495  0.59146  1.0000
  S   S592      1.0  0.67541  0.30681  0.59935  1.0000
  Fe  Fe298     1.0  0.71961  0.26742  0.56056  1.0000
  S   S593      1.0  0.71769  0.27308  0.53165  1.0000
  S   S594      1.0  0.71554  0.26662  0.61065  1.0000
  S   S595      1.0  0.73801  0.24682  0.57686  1.0000
  Fe  Fe299     1.0  0.63867  0.00296  0.68149  1.0000
  S   S596      1.0  0.62436  0.02323  0.66120  1.0000
  H   H1725     1.0  0.70767  0.10228  0.65449  1.0000
  S   S597      1.0  0.62881  0.99943  0.71131  1.0000
  S   S598      1.0  0.56795  0.29173  0.56801  1.0000
  C   C1713     1.0  0.85817  0.26632  0.70615  1.0000
  H   H1726     1.0  0.76738  0.26488  0.55059  1.0000
  H   H1727     1.0  0.76443  0.29624  0.55575  1.0000
  S   S599      1.0  0.60208  0.98978  0.60721  1.0000
  Fe  Fe300     1.0  0.54035  0.14669  0.57873  1.0000
  S   S600      1.0  0.55074  0.15200  0.54905  1.0000
  S   S601      1.0  0.55908  0.12696  0.59500  1.0000
  Fe  Fe301     1.0  0.53319  0.17935  0.54979  1.0000
  S   S602      1.0  0.54205  0.20462  0.53286  1.0000
  Fe  Fe302     1.0  0.52594  0.14365  0.54772  1.0000
  S   S603      1.0  0.52706  0.12069  0.53503  1.0000
  S   S604      1.0  0.52460  0.17479  0.57984  1.0000
  S   S605      1.0  0.51672  0.13663  0.57739  1.0000
  C   C1714     1.0  0.73857  0.27337  0.51682  1.0000
  C   C1715     1.0  0.74017  0.28725  0.50165  1.0000
  H   H1728     1.0  0.80450  0.30657  0.49596  1.0000
  C   C1716     1.0  0.77159  0.27367  0.49230  1.0000
  C   C1717     1.0  0.76988  0.25960  0.50727  1.0000
  C   C1718     1.0  0.75346  0.25962  0.51972  1.0000
  H   H1729     1.0  0.51844  0.21626  0.57915  1.0000
  C   C1719     1.0  0.69168  0.03590  0.64833  1.0000
  H   H1730     1.0  0.61917  0.98746  0.66327  1.0000
  H   H1731     1.0  0.75215  0.24871  0.53127  1.0000
  H   H1732     1.0  0.72158  0.15342  0.62812  1.0000
  H   H1733     1.0  0.51229  0.22079  0.55797  1.0000
  H   H1734     1.0  0.74291  0.29985  0.60818  1.0000
  Fe  Fe303     1.0  0.59239  0.30319  0.56424  1.0000
  C   C1720     1.0  0.65415  0.30798  0.59506  1.0000
  C   C1721     1.0  0.65140  0.29702  0.58489  1.0000
  C   C1722     1.0  0.63411  0.29857  0.58181  1.0000
  C   C1723     1.0  0.53377  0.27378  0.55335  1.0000
  H   H1735     1.0  0.66252  0.28751  0.57922  1.0000
  H   H1736     1.0  0.63201  0.29004  0.57407  1.0000
  C   C1724     1.0  0.57287  0.23260  0.55557  1.0000
  C   C1725     1.0  0.56700  0.21697  0.56589  1.0000
  C   C1726     1.0  0.55761  0.20819  0.55901  1.0000
  C   C1727     1.0  0.55403  0.21505  0.54180  1.0000
  C   C1728     1.0  0.55980  0.23073  0.53156  1.0000
  C   C1729     1.0  0.56916  0.23954  0.53844  1.0000
  H   H1737     1.0  0.56988  0.21154  0.57917  1.0000
  H   H1738     1.0  0.55332  0.19604  0.56697  1.0000
  H   H1739     1.0  0.55710  0.23606  0.51821  1.0000
  H   H1740     1.0  0.57376  0.25149  0.53035  1.0000
  Fe  Fe304     1.0  0.65681  0.00137  0.71161  1.0000
  Fe  Fe305     1.0  0.83566  0.30256  0.65875  1.0000
  H   H1741     1.0  0.78974  0.25226  0.62865  1.0000
  C   C1730     1.0  0.52745  0.24719  0.57520  1.0000
  C   C1731     1.0  0.67785  0.31088  0.54341  1.0000
  H   H1742     1.0  0.82068  0.24417  0.63494  1.0000
  S   S606      1.0  0.66593  0.00682  0.68164  1.0000
  C   C1732     1.0  0.85923  0.27539  0.68819  1.0000
  C   C1733     1.0  0.87326  0.28452  0.67973  1.0000
  H   H1743     1.0  0.84737  0.25918  0.71274  1.0000
  H   H1744     1.0  0.87441  0.29124  0.66579  1.0000
  H   H1745     1.0  0.52963  0.31169  0.57238  1.0000
  C   C1734     1.0  0.79204  0.30008  0.60960  1.0000
  C   C1735     1.0  0.78864  0.28829  0.60066  1.0000
  C   C1736     1.0  0.77091  0.28801  0.60023  1.0000
  C   C1737     1.0  0.75661  0.29989  0.60847  1.0000
  H   H1746     1.0  0.53936  0.28584  0.54925  1.0000
  N   N149      1.0  0.54477  0.08535  0.50386  1.0000
  H   H1747     1.0  0.79978  0.27916  0.59426  1.0000
  H   H1748     1.0  0.63818  0.31294  0.53341  1.0000
  C   C1738     1.0  0.56675  0.10122  0.56039  1.0000
  H   H1749     1.0  0.61062  0.09369  0.66530  1.0000
  H   H1750     1.0  0.80571  0.29999  0.61008  1.0000
  C   C1739     1.0  0.53000  0.10935  0.48348  1.0000
  H   H1751     1.0  0.69141  0.30284  0.54239  1.0000
  C   C1740     1.0  0.54155  0.10309  0.49563  1.0000
  C   C1741     1.0  0.69950  0.17076  0.60198  1.0000
  C   C1742     1.0  0.68981  0.17485  0.61850  1.0000
  C   C1743     1.0  0.69107  0.19038  0.62337  1.0000
  C   C1744     1.0  0.70156  0.20224  0.61154  1.0000
  C   C1745     1.0  0.71082  0.19850  0.59478  1.0000
  C   C1746     1.0  0.70999  0.18265  0.59013  1.0000
  H   H1752     1.0  0.68189  0.16573  0.62783  1.0000
  H   H1753     1.0  0.68393  0.19318  0.63640  1.0000
  H   H1754     1.0  0.71899  0.20755  0.58560  1.0000
  H   H1755     1.0  0.71759  0.17951  0.57735  1.0000
  C   C1747     1.0  0.67306  0.10163  0.68919  1.0000
  C   C1748     1.0  0.66851  0.12010  0.68888  1.0000
  C   C1749     1.0  0.67228  0.12677  0.70215  1.0000
  C   C1750     1.0  0.68089  0.11503  0.71551  1.0000
  C   C1751     1.0  0.68540  0.09661  0.71574  1.0000
  C   C1752     1.0  0.68133  0.08990  0.70274  1.0000
  H   H1756     1.0  0.66204  0.12921  0.67849  1.0000
  H   H1757     1.0  0.66874  0.14105  0.70196  1.0000
  S   S607      1.0  0.62486  0.99853  0.52106  1.0000
  H   H1758     1.0  0.68496  0.07560  0.70302  1.0000
  C   C1753     1.0  0.59756  0.14859  0.61443  1.0000
  C   C1754     1.0  0.60059  0.13036  0.61414  1.0000
  C   C1755     1.0  0.58855  0.12386  0.60832  1.0000
  C   C1756     1.0  0.57368  0.13565  0.60231  1.0000
  C   C1757     1.0  0.57078  0.15400  0.60217  1.0000
  C   C1758     1.0  0.58263  0.16044  0.60844  1.0000
  H   H1759     1.0  0.61220  0.12121  0.61840  1.0000
  H   H1760     1.0  0.59090  0.10969  0.60829  1.0000
  H   H1761     1.0  0.55929  0.16313  0.59752  1.0000
  H   H1762     1.0  0.58034  0.17459  0.60850  1.0000
  C   C1759     1.0  0.62363  0.07407  0.57179  1.0000
  C   C1760     1.0  0.62231  0.08993  0.57753  1.0000
  C   C1761     1.0  0.63479  0.09110  0.58696  1.0000
  C   C1762     1.0  0.64887  0.07650  0.59030  1.0000
  C   C1763     1.0  0.65010  0.06063  0.58464  1.0000
  C   C1764     1.0  0.63736  0.05930  0.57564  1.0000
  H   H1763     1.0  0.61163  0.10132  0.57463  1.0000
  H   H1764     1.0  0.63374  0.10335  0.59135  1.0000
  H   H1765     1.0  0.66114  0.04943  0.58689  1.0000
  H   H1766     1.0  0.63856  0.04710  0.57110  1.0000
  C   C1765     1.0  0.60821  0.99916  0.62217  1.0000
  H   H1767     1.0  0.80402  0.28062  0.67107  1.0000
  C   C1766     1.0  0.77310  0.29846  0.54254  1.0000
  C   C1767     1.0  0.61787  0.01387  0.64645  1.0000
  C   C1768     1.0  0.61400  0.02467  0.63022  1.0000
  C   C1769     1.0  0.60937  0.01729  0.61801  1.0000
  C   C1770     1.0  0.50898  0.12232  0.52510  1.0000
  C   C1771     1.0  0.61954  0.31096  0.58909  1.0000
  H   H1768     1.0  0.61479  0.03872  0.62694  1.0000
  N   N150      1.0  0.64980  0.24788  0.61325  1.0000
  C   C1772     1.0  0.63208  0.25488  0.61251  1.0000
  C   C1773     1.0  0.65878  0.25574  0.62088  1.0000
  C   C1774     1.0  0.62296  0.27026  0.61936  1.0000
  C   C1775     1.0  0.63207  0.27843  0.62704  1.0000
  C   C1776     1.0  0.65915  0.23150  0.60646  1.0000
  H   H1769     1.0  0.62491  0.24870  0.60646  1.0000
  H   H1770     1.0  0.60908  0.27616  0.61823  1.0000
  H   H1771     1.0  0.62531  0.29067  0.63190  1.0000
  H   H1772     1.0  0.67286  0.23289  0.59853  1.0000
  H   H1773     1.0  0.66059  0.21990  0.61788  1.0000
  H   H1774     1.0  0.65190  0.22848  0.59756  1.0000
  C   C1777     1.0  0.51312  0.05417  0.54344  1.0000
  H   H1775     1.0  0.64358  0.08219  0.71021  1.0000
  H   H1776     1.0  0.63057  0.09490  0.68452  1.0000
  C   C1778     1.0  0.78167  0.26593  0.54492  1.0000
  H   H1777     1.0  0.65749  0.27777  0.63319  1.0000
  Fe  Fe306     1.0  0.56460  0.30917  0.54129  1.0000
  S   S608      1.0  0.59748  0.31287  0.58662  1.0000
  S   S609      1.0  0.58166  0.28853  0.52527  1.0000
  H   H1778     1.0  0.71029  0.10735  0.68330  1.0000
  H   H1779     1.0  0.53938  0.05945  0.50673  1.0000
  H   H1780     1.0  0.57602  0.10872  0.56247  1.0000
  H   H1781     1.0  0.72236  0.01171  0.72051  1.0000
  C   C1779     1.0  0.71274  0.11753  0.67125  1.0000
  H   H1782     1.0  0.54727  0.11265  0.49905  1.0000
  H   H1783     1.0  0.77600  0.30328  0.66813  1.0000
  S   S610      1.0  0.50927  0.17159  0.54523  1.0000
  Fe  Fe307     1.0  0.60479  0.30072  0.52500  1.0000
  C   C1780     1.0  0.61675  0.99575  0.65058  1.0000
  H   H1784     1.0  0.71369  0.12535  0.62654  1.0000
  H   H1785     1.0  0.56115  0.06469  0.51976  1.0000
  C   C1781     1.0  0.55547  0.07938  0.51782  1.0000
  S   S611      1.0  0.90088  0.27745  0.71852  1.0000
  H   H1786     1.0  0.82767  0.25856  0.65637  1.0000
  C   C1782     1.0  0.77771  0.31186  0.61796  1.0000
  C   C1783     1.0  0.87088  0.26678  0.71572  1.0000
  H   H1787     1.0  0.69449  0.00397  0.71779  1.0000
  S   S612      1.0  0.49942  0.03641  0.50584  1.0000
  N   N151      1.0  0.51964  0.24275  0.56373  1.0000
  C   C1784     1.0  0.52751  0.02736  0.52334  1.0000
  N   N152      1.0  0.71681  0.13319  0.67205  1.0000
  H   H1788     1.0  0.75988  0.29947  0.65815  1.0000
  H   H1789     1.0  0.72257  0.15870  0.65747  1.0000
  H   H1790     1.0  0.51056  0.09372  0.53154  1.0000
  H   H1791     1.0  0.70403  0.14491  0.69476  1.0000
  C   C1785     1.0  0.52572  0.26919  0.54177  1.0000
  H   H1792     1.0  0.67281  0.25020  0.62153  1.0000
  H   H1793     1.0  0.68389  0.29140  0.51827  1.0000
  C   C1786     1.0  0.88613  0.28466  0.68913  1.0000
  S   S613      1.0  0.83423  0.30887  0.62948  1.0000
  S   S614      1.0  0.80761  0.31729  0.66791  1.0000
  H   H1794     1.0  0.76655  0.27469  0.64337  1.0000
  C   C1787     1.0  0.53714  0.02964  0.53512  1.0000
  C   C1788     1.0  0.50369  0.05210  0.53148  1.0000
  H   H1795     1.0  0.70500  0.03031  0.65124  1.0000
  H   H1796     1.0  0.55009  0.02099  0.53644  1.0000
  C   C1789     1.0  0.64817  0.31651  0.53837  1.0000
  C   C1790     1.0  0.50050  0.13889  0.51631  1.0000
  C   C1791     1.0  0.51081  0.03870  0.52140  1.0000
  C   C1792     1.0  0.69358  0.01545  0.72341  1.0000
  C   C1793     1.0  0.71901  0.14330  0.64023  1.0000
  C   C1794     1.0  0.62495  0.31662  0.48065  1.0000
  H   H1797     1.0  0.78887  0.26252  0.55615  1.0000
  H   H1798     1.0  0.72814  0.14365  0.68813  1.0000
  H   H1799     1.0  0.67162  0.02328  0.61196  1.0000
  N   N153      1.0  0.66810  0.03496  0.63449  1.0000
  C   C1795     1.0  0.68489  0.02795  0.63820  1.0000
  C   C1796     1.0  0.65754  0.04960  0.64101  1.0000
  H   H1800     1.0  0.59987  0.30812  0.48521  1.0000
  C   C1797     1.0  0.66393  0.05790  0.65114  1.0000
  H   H1801     1.0  0.64920  0.03496  0.61922  1.0000
  C   C1798     1.0  0.66128  0.02621  0.62402  1.0000
  H   H1802     1.0  0.69308  0.01608  0.63338  1.0000
  H   H1803     1.0  0.64422  0.05513  0.63808  1.0000
  C   C1799     1.0  0.68112  0.05102  0.65477  1.0000
  C   C1800     1.0  0.71139  0.11451  0.65495  1.0000
  C   C1801     1.0  0.77008  0.29252  0.66650  1.0000
  C   C1802     1.0  0.64351  0.06821  0.70969  1.0000
  S   S615      1.0  0.73111  0.08954  0.72864  1.0000
  C   C1803     1.0  0.61190  0.98841  0.63847  1.0000
  S   S616      1.0  0.59245  0.04277  0.53706  1.0000
  N   N154      1.0  0.61098  0.17667  0.56614  1.0000
  C   C1804     1.0  0.59996  0.18200  0.55403  1.0000
  C   C1805     1.0  0.61689  0.15880  0.57256  1.0000
  C   C1806     1.0  0.59344  0.16936  0.54913  1.0000
  C   C1807     1.0  0.61091  0.14577  0.56771  1.0000
  C   C1808     1.0  0.59884  0.15112  0.55618  1.0000
  C   C1809     1.0  0.61695  0.19004  0.57200  1.0000
  H   H1804     1.0  0.59598  0.19612  0.54824  1.0000
  H   H1805     1.0  0.62587  0.15456  0.58194  1.0000
  H   H1806     1.0  0.58414  0.17373  0.54003  1.0000
  H   H1807     1.0  0.61525  0.13166  0.57327  1.0000
  H   H1808     1.0  0.59370  0.14113  0.55278  1.0000
  H   H1809     1.0  0.60811  0.20358  0.56942  1.0000
  H   H1810     1.0  0.61640  0.18622  0.58672  1.0000
  H   H1811     1.0  0.63098  0.19093  0.56488  1.0000
  N   N155      1.0  0.63117  0.06777  0.69875  1.0000
  C   C1810     1.0  0.62554  0.05217  0.70067  1.0000
  C   C1811     1.0  0.62594  0.08257  0.68622  1.0000
  C   C1812     1.0  0.61415  0.05117  0.69012  1.0000
  C   C1813     1.0  0.51140  0.22688  0.56952  1.0000
  C   C1814     1.0  0.60888  0.06610  0.67720  1.0000
  H   H1812     1.0  0.93274  0.29267  0.48648  1.0000
  H   H1813     1.0  0.68622  0.05743  0.66255  1.0000
  H   H1814     1.0  0.78764  0.25581  0.53633  1.0000
  H   H1815     1.0  0.60966  0.03877  0.69174  1.0000
  H   H1816     1.0  0.66066  0.29124  0.52004  1.0000
  H   H1817     1.0  0.80159  0.27574  0.51214  1.0000
  H   H1818     1.0  0.51266  0.24989  0.53804  1.0000
  N   N156      1.0  0.66548  0.30680  0.53644  1.0000
  C   C1815     1.0  0.71464  0.12747  0.63933  1.0000
  C   C1816     1.0  0.51866  0.25354  0.54721  1.0000
  C   C1817     1.0  0.77989  0.27106  0.64642  1.0000
  C   C1818     1.0  0.81427  0.26196  0.65345  1.0000
  C   C1819     1.0  0.79298  0.25831  0.63805  1.0000
  C   C1820     1.0  0.81032  0.25386  0.64151  1.0000
  H   H1819     1.0  0.62988  0.04036  0.71039  1.0000
  H   H1820     1.0  0.49700  0.23065  0.57597  1.0000
  C   C1821     1.0  0.76003  0.31184  0.61719  1.0000
  H   H1821     1.0  0.54134  0.26590  0.57909  1.0000
  H   H1822     1.0  0.60040  0.06526  0.66863  1.0000
  C   C1822     1.0  0.75675  0.28754  0.48953  1.0000
  C   C1823     1.0  0.80082  0.27458  0.66165  1.0000
  H   H1823     1.0  0.56691  0.08639  0.51435  1.0000
  C   C1824     1.0  0.53689  0.07346  0.50017  1.0000
  H   H1824     1.0  0.89702  0.29167  0.68243  1.0000
  C   C1825     1.0  0.71971  0.14611  0.65684  1.0000
  C   C1826     1.0  0.54627  0.08134  0.57793  1.0000
  C   C1827     1.0  0.56957  0.08396  0.59064  1.0000
  C   C1828     1.0  0.54037  0.06902  0.59329  1.0000
  C   C1829     1.0  0.56397  0.07178  0.60625  1.0000
  C   C1830     1.0  0.54926  0.06428  0.60755  1.0000
  H   H1825     1.0  0.53952  0.08472  0.56675  1.0000
  H   H1826     1.0  0.58117  0.08954  0.58960  1.0000
  H   H1827     1.0  0.52935  0.06279  0.59382  1.0000
  H   H1828     1.0  0.57124  0.06797  0.61706  1.0000
  H   H1829     1.0  0.54504  0.05448  0.61939  1.0000
  H   H1830     1.0  0.57405  0.09361  0.54967  1.0000
  N   N157      1.0  0.78401  0.27927  0.65777  1.0000
  H   H1831     1.0  0.55513  0.11123  0.55597  1.0000
  H   H1832     1.0  0.53310  0.01694  0.51559  1.0000
  N   N158      1.0  0.56058  0.08875  0.57685  1.0000
  C   C1831     1.0  0.65011  0.27119  0.62777  1.0000
  N   N159      1.0  0.78277  0.28421  0.53487  1.0000
  H   H1833     1.0  0.63957  0.06088  0.72368  1.0000
  H   H1834     1.0  0.54678  0.08218  0.53080  1.0000
  H   H1835     1.0  0.78127  0.24870  0.50925  1.0000
  S   S617      1.0  0.54156  0.04696  0.55961  1.0000
  H   H1836     1.0  0.71936  0.12390  0.69951  1.0000
  H   H1837     1.0  0.50742  0.06446  0.55133  1.0000
  H   H1838     1.0  0.52836  0.23859  0.58824  1.0000
  C   C1832     1.0  0.52167  0.09733  0.47987  1.0000
  C   C1833     1.0  0.88490  0.27596  0.70717  1.0000
  C   C1834     1.0  0.79557  0.30439  0.50904  1.0000
  C   C1835     1.0  0.93797  0.30326  0.48868  1.0000
  C   C1836     1.0  0.53474  0.26268  0.57015  1.0000
  C   C1837     1.0  0.71714  0.13661  0.68940  1.0000
  H   H1839     1.0  0.76333  0.28590  0.67985  1.0000
  C   C1838     1.0  0.61470  0.08196  0.67527  1.0000
  C   C1839     1.0  0.67067  0.29128  0.52778  1.0000
  Fe  Fe308     1.0  0.50183  0.16515  0.57526  1.0000
  C   C1840     1.0  0.79394  0.28698  0.51833  1.0000
  H   H1840     1.0  0.65572  0.06973  0.65593  1.0000
  H   H1841     1.0  0.65743  0.01356  0.63246  1.0000
  H   H1842     1.0  0.87146  0.31699  0.56013  1.0000
  H   H1843     1.0  0.79559  0.07200  0.72656  1.0000
  C   C1841     1.0  0.77429  0.31607  0.53354  1.0000
  H   H1844     1.0  0.51858  0.06976  0.48582  1.0000
  C   C1842     1.0  0.92808  0.31343  0.50146  1.0000
  H   H1845     1.0  0.50447  0.15109  0.51633  1.0000
  H   H1846     1.0  0.69213  0.08748  0.72589  1.0000
  C   C1843     1.0  0.52519  0.07924  0.48821  1.0000
  H   H1847     1.0  0.67195  0.27864  0.53808  1.0000
  H   H1848     1.0  0.85479  0.30899  0.70763  1.0000
  C   C1844     1.0  0.67672  0.02558  0.72969  1.0000
  H   H1849     1.0  0.86990  0.25997  0.72962  1.0000
  S   S618      1.0  0.65654  0.01975  0.72955  1.0000
  Fe  Fe309     1.0  0.63563  0.04022  0.87267  1.0000
  S   S619      1.0  0.63537  0.06685  0.85364  1.0000
  Fe  Fe310     1.0  0.61297  0.01964  0.90482  1.0000
  S   S620      1.0  0.58796  0.02271  0.92640  1.0000
  S   S621      1.0  0.63368  0.03562  0.90216  1.0000
  S   S622      1.0  0.61294  0.02675  0.87549  1.0000
  Fe  Fe311     1.0  0.71683  0.07892  0.78039  1.0000
  S   S623      1.0  0.74216  0.06413  0.76539  1.0000
  S   S624      1.0  0.71427  0.07047  0.81021  1.0000
  S   S625      1.0  0.65741  0.01593  0.86895  1.0000
  H   H1850     1.0  0.70965  0.09064  0.83721  1.0000
  S   S626      1.0  0.72074  0.10638  0.76516  1.0000
  H   H1851     1.0  0.77140  0.11096  0.84898  1.0000
  Fe  Fe312     1.0  0.95896  0.10073  0.83736  1.0000
  S   S627      1.0  0.95005  0.11452  0.86068  1.0000
  S   S628      1.0  0.94030  0.09683  0.82205  1.0000
  Fe  Fe313     1.0  0.97168  0.09299  0.87177  1.0000
  S   S629      1.0  0.96822  0.07744  0.90043  1.0000
  Fe  Fe314     1.0  0.97231  0.12943  0.84676  1.0000
  S   S630      1.0  0.97918  0.07806  0.84917  1.0000
  Fe  Fe315     1.0  0.84049  0.11299  0.84108  1.0000
  S   S631      1.0  0.83468  0.14287  0.83723  1.0000
  S   S632      1.0  0.85887  0.09824  0.86012  1.0000
  Fe  Fe316     1.0  0.81379  0.11352  0.81865  1.0000
  S   S633      1.0  0.80616  0.14366  0.81261  1.0000
  S   S634      1.0  0.79842  0.09486  0.81416  1.0000
  Fe  Fe317     1.0  0.83581  0.14274  0.80864  1.0000
  S   S635      1.0  0.85088  0.16121  0.78623  1.0000
  Fe  Fe318     1.0  0.80580  0.14124  0.84163  1.0000
  S   S636      1.0  0.78490  0.15938  0.85795  1.0000
  S   S637      1.0  0.84369  0.11257  0.81201  1.0000
  S   S638      1.0  0.81148  0.11126  0.84814  1.0000
  Fe  Fe319     1.0  0.89877  0.26602  0.74811  1.0000
  S   S639      1.0  0.87545  0.27711  0.76824  1.0000
  H   H1852     1.0  0.56712  0.04138  0.95493  1.0000
  Fe  Fe320     1.0  0.91959  0.24386  0.77694  1.0000
  S   S640      1.0  0.89798  0.25356  0.79914  1.0000
  S   S641      1.0  0.94350  0.22339  0.78509  1.0000
  Fe  Fe321     1.0  0.87931  0.24879  0.78433  1.0000
  S   S642      1.0  0.85701  0.23459  0.80094  1.0000
  Fe  Fe322     1.0  0.89657  0.28069  0.78088  1.0000
  H   H1853     1.0  0.71538  0.02676  0.77382  1.0000
  S   S643      1.0  0.90110  0.23730  0.76317  1.0000
  S   S644      1.0  0.91970  0.27142  0.75968  1.0000
  Fe  Fe323     1.0  0.73098  0.06353  0.92703  1.0000
  S   S645      1.0  0.71786  0.08353  0.94473  1.0000
  S   S646      1.0  0.71667  0.06300  0.90578  1.0000
  Fe  Fe324     1.0  0.76536  0.05297  0.94164  1.0000
  S   S647      1.0  0.75503  0.07197  0.96046  1.0000
  S   S648      1.0  0.79438  0.03872  0.93855  1.0000
  C   C1845     1.0  0.79295  0.05987  0.73698  1.0000
  Fe  Fe325     1.0  0.74468  0.09149  0.93746  1.0000
  S   S649      1.0  0.74689  0.12027  0.93331  1.0000
  S   S650      1.0  0.75704  0.07330  0.91796  1.0000
  S   S651      1.0  0.63231  0.99335  0.90340  1.0000
  C   C1846     1.0  0.95837  0.23418  0.78956  1.0000
  C   C1847     1.0  0.97475  0.22436  0.79411  1.0000
  C   C1848     1.0  0.79299  0.03481  0.97464  1.0000
  H   H1854     1.0  0.97843  0.21006  0.79453  1.0000
  C   C1849     1.0  0.96532  0.26139  0.79266  1.0000
  C   C1850     1.0  0.95364  0.25264  0.78906  1.0000
  H   H1855     1.0  0.66513  0.00897  0.96627  1.0000
  N   N160      1.0  0.79847  0.05962  0.75348  1.0000
  H   H1856     1.0  0.96170  0.27575  0.79189  1.0000
  H   H1857     1.0  0.94096  0.26021  0.78585  1.0000
  H   H1858     1.0  0.79059  0.13895  0.91525  1.0000
  H   H1859     1.0  0.78098  0.04229  0.76988  1.0000
  H   H1860     1.0  0.66276  0.04823  0.74200  1.0000
  H   H1861     1.0  0.79659  0.11857  0.75030  1.0000
  H   H1862     1.0  0.94336  0.28377  0.82121  1.0000
  C   C1851     1.0  0.85423  0.18071  0.79094  1.0000
  C   C1852     1.0  0.86355  0.19245  0.77733  1.0000
  C   C1853     1.0  0.86518  0.20875  0.78045  1.0000
  C   C1854     1.0  0.85747  0.21336  0.79719  1.0000
  C   C1855     1.0  0.84862  0.20139  0.81090  1.0000
  C   C1856     1.0  0.84705  0.18513  0.80780  1.0000
  H   H1863     1.0  0.86910  0.18917  0.76421  1.0000
  H   H1864     1.0  0.87174  0.21803  0.76967  1.0000
  H   H1865     1.0  0.84258  0.20492  0.82386  1.0000
  H   H1866     1.0  0.83974  0.17636  0.81832  1.0000
  C   C1857     1.0  0.77293  0.14848  0.87812  1.0000
  C   C1858     1.0  0.76337  0.15830  0.89133  1.0000
  C   C1859     1.0  0.75497  0.14958  0.90808  1.0000
  C   C1860     1.0  0.75588  0.13103  0.91162  1.0000
  C   C1861     1.0  0.76494  0.12129  0.89822  1.0000
  C   C1862     1.0  0.77353  0.13000  0.88153  1.0000
  H   H1867     1.0  0.76281  0.17261  0.88878  1.0000
  H   H1868     1.0  0.74794  0.15718  0.91840  1.0000
  H   H1869     1.0  0.76581  0.10699  0.90087  1.0000
  H   H1870     1.0  0.78064  0.12241  0.87139  1.0000
  C   C1863     1.0  0.91760  0.09826  0.83275  1.0000
  C   C1864     1.0  0.90524  0.09773  0.82300  1.0000
  C   C1865     1.0  0.88710  0.09822  0.83129  1.0000
  C   C1866     1.0  0.88130  0.09892  0.84946  1.0000
  C   C1867     1.0  0.89359  0.09962  0.85924  1.0000
  C   C1868     1.0  0.91172  0.09948  0.85082  1.0000
  H   H1871     1.0  0.90975  0.09676  0.80902  1.0000
  H   H1872     1.0  0.87774  0.09746  0.82373  1.0000
  H   H1873     1.0  0.88913  0.10019  0.87331  1.0000
  H   H1874     1.0  0.92119  0.09972  0.85850  1.0000
  H   H1875     1.0  0.90953  0.06296  0.85934  1.0000
  H   H1876     1.0  0.81230  0.06320  0.91059  1.0000
  C   C1869     1.0  0.94683  0.07297  0.91156  1.0000
  C   C1870     1.0  0.94503  0.06096  0.92819  1.0000
  C   C1871     1.0  0.92810  0.05715  0.93742  1.0000
  C   C1872     1.0  0.91290  0.06545  0.93007  1.0000
  C   C1873     1.0  0.91468  0.07750  0.91346  1.0000
  C   C1874     1.0  0.93162  0.08120  0.90419  1.0000
  H   H1877     1.0  0.95679  0.05450  0.93391  1.0000
  C   C1875     1.0  0.93615  0.05566  0.86478  1.0000
  H   H1878     1.0  0.90296  0.08389  0.90766  1.0000
  H   H1879     1.0  0.93287  0.09040  0.89136  1.0000
  C   C1876     1.0  0.69624  0.01765  0.92605  1.0000
  C   C1877     1.0  0.68584  0.01855  0.91368  1.0000
  Fe  Fe326     1.0  0.65326  0.00984  0.89908  1.0000
  H   H1880     1.0  0.92571  0.13495  0.82114  1.0000
  H   H1881     1.0  0.83071  0.03558  0.94163  1.0000
  C   C1878     1.0  0.69144  0.04503  0.73806  1.0000
  S   S652      1.0  0.74041  0.04129  0.94906  1.0000
  H   H1882     1.0  0.77820  0.06060  0.73957  1.0000
  C   C1879     1.0  0.78954  0.09912  0.79479  1.0000
  C   C1880     1.0  0.77582  0.09041  0.79537  1.0000
  C   C1881     1.0  0.76940  0.09205  0.77989  1.0000
  C   C1882     1.0  0.76726  0.09808  0.85629  1.0000
  H   H1883     1.0  0.77043  0.08195  0.80774  1.0000
  H   H1884     1.0  0.75895  0.08509  0.78053  1.0000
  C   C1883     1.0  0.59391  0.02806  0.94413  1.0000
  C   C1884     1.0  0.62542  0.98557  0.77345  1.0000
  C   C1885     1.0  0.79637  0.10395  0.92234  1.0000
  C   C1886     1.0  0.61742  0.02983  0.95797  1.0000
  C   C1887     1.0  0.61194  0.02355  0.94560  1.0000
  C   C1888     1.0  0.92140  0.29368  0.80724  1.0000
  H   H1885     1.0  0.62180  0.01540  0.93698  1.0000
  C   C1889     1.0  0.65716  0.06889  0.84186  1.0000
  C   C1890     1.0  0.65997  0.07836  0.82407  1.0000
  C   C1891     1.0  0.67753  0.07905  0.81423  1.0000
  C   C1892     1.0  0.69221  0.07063  0.82238  1.0000
  C   C1893     1.0  0.68935  0.06164  0.84036  1.0000
  C   C1894     1.0  0.67183  0.06057  0.85001  1.0000
  H   H1886     1.0  0.64859  0.08486  0.81776  1.0000
  H   H1887     1.0  0.67970  0.08614  0.80039  1.0000
  H   H1888     1.0  0.70071  0.05507  0.84668  1.0000
  H   H1889     1.0  0.66965  0.05332  0.86375  1.0000
  C   C1895     1.0  0.70571  0.03129  0.92387  1.0000
  C   C1896     1.0  0.70506  0.04564  0.90912  1.0000
  C   C1897     1.0  0.69484  0.04636  0.89668  1.0000
  C   C1898     1.0  0.68506  0.03299  0.89910  1.0000
  H   H1890     1.0  0.71380  0.03052  0.93335  1.0000
  H   H1891     1.0  0.69443  0.05728  0.88512  1.0000
  H   H1892     1.0  0.67721  0.03358  0.88949  1.0000
  H   H1893     1.0  0.74100  0.08157  0.87705  1.0000
  H   H1894     1.0  0.77854  0.08685  0.85286  1.0000
  H   H1895     1.0  0.76480  0.09781  0.87089  1.0000
  C   C1899     1.0  0.73394  0.10122  0.82864  1.0000
  C   C1900     1.0  0.81623  0.23007  0.78933  1.0000
  C   C1901     1.0  0.72388  0.08518  0.85862  1.0000
  H   H1896     1.0  0.75869  0.11017  0.82418  1.0000
  H   H1897     1.0  0.92102  0.10160  0.93317  1.0000
  C   C1902     1.0  0.79648  0.04887  0.78522  1.0000
  C   C1903     1.0  0.81048  0.19665  0.78952  1.0000
  H   H1898     1.0  0.82654  0.07637  0.76802  1.0000
  H   H1899     1.0  0.69041  0.05647  0.74364  1.0000
  N   N161      1.0  0.80434  0.20362  0.80474  1.0000
  C   C1904     1.0  0.92096  0.09688  0.94738  1.0000
  S   S653      1.0  0.68691  0.12346  0.73125  1.0000
  H   H1900     1.0  0.80906  0.18324  0.78965  1.0000
  H   H1901     1.0  0.92687  0.04770  0.95012  1.0000
  H   H1902     1.0  0.82486  0.20048  0.76193  1.0000
  C   C1905     1.0  0.93347  0.29533  0.81688  1.0000
  C   C1906     1.0  0.93707  0.09239  0.95340  1.0000
  C   C1907     1.0  0.81693  0.06843  0.76842  1.0000
  C   C1908     1.0  0.58659  0.04404  0.96864  1.0000
  H   H1903     1.0  0.73227  0.10632  0.81486  1.0000
  H   H1904     1.0  0.71430  0.07796  0.86838  1.0000
  C   C1909     1.0  0.72131  0.09225  0.84113  1.0000
  H   H1905     1.0  0.92176  0.28081  0.80447  1.0000
  C   C1910     1.0  0.58626  0.99019  0.89887  1.0000
  H   H1906     1.0  0.80320  0.22520  0.81711  1.0000
  H   H1907     1.0  0.96094  0.04708  0.87445  1.0000
  H   H1908     1.0  0.58870  0.00253  0.90064  1.0000
  H   H1909     1.0  0.84448  0.03128  0.96780  1.0000
  C   C1911     1.0  0.67991  0.02407  0.97448  1.0000
  C   C1912     1.0  0.70276  0.02690  0.78361  1.0000
  H   H1910     1.0  0.58724  0.99988  0.87046  1.0000
  H   H1911     1.0  0.94622  0.03403  0.90527  1.0000
  Fe  Fe327     1.0  0.72510  0.06371  0.74669  1.0000
  H   H1912     1.0  0.65377  0.01486  0.83120  1.0000
  C   C1913     1.0  0.83015  0.03221  0.96979  1.0000
  H   H1913     1.0  0.94417  0.31246  0.78068  1.0000
  H   H1914     1.0  0.57425  0.98849  0.93568  1.0000
  C   C1914     1.0  0.90907  0.30880  0.80095  1.0000
  Fe  Fe328     1.0  0.72930  0.06225  0.96606  1.0000
  H   H1915     1.0  0.78690  0.11005  0.93291  1.0000
  C   C1915     1.0  0.65322  0.02801  0.82164  1.0000
  H   H1916     1.0  0.69706  0.00632  0.93720  1.0000
  C   C1916     1.0  0.79119  0.04957  0.76936  1.0000
  H   H1917     1.0  0.86904  0.30528  0.73140  1.0000
  C   C1917     1.0  0.90493  0.09457  0.95960  1.0000
  H   H1918     1.0  0.91317  0.03645  0.91302  1.0000
  H   H1919     1.0  0.65059  0.03881  0.82933  1.0000
  S   S654      1.0  0.69931  0.07610  0.76326  1.0000
  H   H1920     1.0  0.88324  0.31734  0.74917  1.0000
  C   C1918     1.0  0.98634  0.23310  0.79811  1.0000
  H   H1921     1.0  0.88301  0.06419  0.88271  1.0000
  S   S655      1.0  0.77105  0.10152  0.74360  1.0000
  S   S656      1.0  0.89448  0.30740  0.78791  1.0000
  C   C1919     1.0  0.91958  0.04164  0.89935  1.0000
  H   H1922     1.0  0.79026  0.04137  0.79790  1.0000
  C   C1920     1.0  0.94654  0.04753  0.87773  1.0000
  H   H1923     1.0  0.63153  0.02689  0.95839  1.0000
  C   C1921     1.0  0.82004  0.08803  0.89530  1.0000
  Fe  Fe329     1.0  0.63445  0.00193  0.87353  1.0000
  C   C1922     1.0  0.93828  0.04018  0.89505  1.0000
  N   N162      1.0  0.90718  0.15718  0.80969  1.0000
  C   C1923     1.0  0.90407  0.17502  0.80171  1.0000
  C   C1924     1.0  0.92309  0.14916  0.81508  1.0000
  C   C1925     1.0  0.91698  0.18537  0.79919  1.0000
  C   C1926     1.0  0.93625  0.15911  0.81283  1.0000
  C   C1927     1.0  0.93314  0.17733  0.80484  1.0000
  C   C1928     1.0  0.89382  0.14628  0.81186  1.0000
  H   H1924     1.0  0.89160  0.18136  0.79720  1.0000
  H   H1925     1.0  0.91454  0.19951  0.79278  1.0000
  H   H1926     1.0  0.94880  0.15272  0.81721  1.0000
  H   H1927     1.0  0.94330  0.18518  0.80293  1.0000
  H   H1928     1.0  0.89208  0.13745  0.82543  1.0000
  H   H1929     1.0  0.88038  0.15473  0.81031  1.0000
  H   H1930     1.0  0.89829  0.13774  0.80163  1.0000
  N   N163      1.0  0.64075  0.06823  0.92217  1.0000
  C   C1929     1.0  0.64953  0.07355  0.90491  1.0000
  C   C1930     1.0  0.62239  0.07033  0.92626  1.0000
  C   C1931     1.0  0.63994  0.08098  0.89115  1.0000
  C   C1932     1.0  0.61237  0.07765  0.91283  1.0000
  C   C1933     1.0  0.62126  0.08289  0.89514  1.0000
  C   C1934     1.0  0.65124  0.05892  0.93601  1.0000
  H   H1931     1.0  0.66406  0.07181  0.90164  1.0000
  H   H1932     1.0  0.61539  0.06608  0.93991  1.0000
  H   H1933     1.0  0.64697  0.08475  0.87738  1.0000
  H   H1934     1.0  0.59787  0.07876  0.91607  1.0000
  H   H1935     1.0  0.61378  0.08805  0.88444  1.0000
  H   H1936     1.0  0.64315  0.06012  0.94967  1.0000
  H   H1937     1.0  0.65566  0.04444  0.93539  1.0000
  H   H1938     1.0  0.66339  0.06463  0.93394  1.0000
  N   N164      1.0  0.94840  0.24436  0.84267  1.0000
  C   C1935     1.0  0.95528  0.22788  0.83820  1.0000
  C   C1936     1.0  0.93090  0.25261  0.84205  1.0000
  C   C1937     1.0  0.94452  0.21919  0.83305  1.0000
  C   C1938     1.0  0.91987  0.24445  0.83667  1.0000
  C   C1939     1.0  0.92679  0.22767  0.83205  1.0000
  C   C1940     1.0  0.96022  0.25363  0.84705  1.0000
  H   H1939     1.0  0.96927  0.22153  0.83826  1.0000
  H   H1940     1.0  0.92541  0.26574  0.84546  1.0000
  H   H1941     1.0  0.95005  0.20624  0.82924  1.0000
  C   C1941     1.0  0.70832  0.03460  0.73240  1.0000
  H   H1942     1.0  0.91857  0.22138  0.82736  1.0000
  H   H1943     1.0  0.98261  0.30204  0.84702  1.0000
  S   S657      1.0  0.94832  0.31309  0.83308  1.0000
  H   H1944     1.0  0.69176  0.02179  0.96396  1.0000
  C   C1942     1.0  0.80379  0.13339  0.90720  1.0000
  C   C1943     1.0  0.81757  0.10643  0.89463  1.0000
  C   C1944     1.0  0.58111  0.03791  0.95599  1.0000
  H   H1945     1.0  0.81316  0.05857  0.79701  1.0000
  C   C1945     1.0  0.70055  0.03277  0.79946  1.0000
  H   H1946     1.0  0.80431  0.14114  0.89318  1.0000
  H   H1947     1.0  0.64540  0.98577  0.74876  1.0000
  C   C1946     1.0  0.68868  0.02114  0.78044  1.0000
  H   H1948     1.0  0.82520  0.11447  0.88335  1.0000
  N   N165      1.0  0.80571  0.11419  0.90795  1.0000
  N   N166      1.0  0.75115  0.09646  0.85122  1.0000
  C   C1947     1.0  0.73903  0.08731  0.86345  1.0000
  C   C1948     1.0  0.74885  0.10327  0.83397  1.0000
  C   C1949     1.0  0.77709  0.10189  0.76352  1.0000
  N   N167      1.0  0.67020  0.02790  0.80836  1.0000
  C   C1950     1.0  0.68416  0.03294  0.81187  1.0000
  H   H1949     1.0  0.82941  0.08196  0.88466  1.0000
  S   S658      1.0  0.96836  0.15962  0.84055  1.0000
  S   S659      1.0  0.97933  0.11748  0.82240  1.0000
  H   H1950     1.0  0.95241  0.26408  0.85487  1.0000
  H   H1951     1.0  0.68265  0.03717  0.82430  1.0000
  C   C1951     1.0  0.60485  0.04034  0.96928  1.0000
  C   C1952     1.0  0.79669  0.10971  0.77862  1.0000
  H   H1952     1.0  0.90614  0.25125  0.83579  1.0000
  H   H1953     1.0  0.78852  0.18379  0.81869  1.0000
  S   S660      1.0  0.89163  0.06053  0.94083  1.0000
  C   C1953     1.0  0.79589  0.19283  0.82140  1.0000
  C   C1954     1.0  0.67237  0.02178  0.79300  1.0000
  H   H1954     1.0  0.81678  0.07717  0.74033  1.0000
  H   H1955     1.0  0.66147  0.01736  0.79039  1.0000
  H   H1956     1.0  0.94241  0.06143  0.85122  1.0000
  H   H1957     1.0  0.69040  0.01630  0.76826  1.0000
  C   C1955     1.0  0.98536  0.16741  0.84518  1.0000
  H   H1958     1.0  0.79117  0.07739  0.93485  1.0000
  H   H1959     1.0  0.88471  0.05552  0.90562  1.0000
  H   H1960     1.0  0.88566  0.04023  0.89151  1.0000
  C   C1956     1.0  0.80376  0.03599  0.95734  1.0000
  C   C1957     1.0  0.82233  0.03468  0.95496  1.0000
  H   H1961     1.0  0.82991  0.23052  0.76178  1.0000
  C   C1958     1.0  0.98907  0.18424  0.83590  1.0000
  C   C1959     1.0  0.91750  0.05670  0.86951  1.0000
  C   C1960     1.0  0.81048  0.07752  0.90984  1.0000
  C   C1961     1.0  0.93682  0.08599  0.97174  1.0000
  C   C1962     1.0  0.88974  0.05263  0.89186  1.0000
  H   H1962     1.0  0.80023  0.04764  0.73164  1.0000
  C   C1963     1.0  0.79861  0.08549  0.92348  1.0000
  N   N168      1.0  0.90940  0.05040  0.88679  1.0000
  H   H1963     1.0  0.71143  0.03721  0.80213  1.0000
  C   C1964     1.0  0.79062  0.11089  0.76294  1.0000
  H   H1964     1.0  0.81475  0.13554  0.91241  1.0000
  Fe  Fe330     1.0  0.70610  0.10208  0.74605  1.0000
  Fe  Fe331     1.0  0.74525  0.09150  0.74925  1.0000
  H   H1965     1.0  0.94944  0.08235  0.97626  1.0000
  H   H1966     1.0  0.96965  0.24400  0.85512  1.0000
  C   C1965     1.0  0.80727  0.22002  0.80485  1.0000
  H   H1967     1.0  0.98148  0.19229  0.82596  1.0000
  H   H1968     1.0  0.80734  0.11640  0.77804  1.0000
  C   C1966     1.0  0.80942  0.05840  0.78471  1.0000
  H   H1969     1.0  0.96824  0.26031  0.83447  1.0000
  C   C1967     1.0  0.81130  0.06887  0.75283  1.0000
  H   H1970     1.0  0.54341  0.27263  0.96727  1.0000
  C   C1968     1.0  0.93317  0.31195  0.82052  1.0000
  C   C1969     1.0  0.67572  0.04037  0.73700  1.0000
  H   H1971     1.0  0.64158  0.03056  0.81515  1.0000
  H   H1972     1.0  0.98461  0.29727  0.81723  1.0000
  C   C1970     1.0  0.82233  0.22316  0.77370  1.0000
  H   H1973     1.0  0.94968  0.09351  0.94383  1.0000
  C   C1971     1.0  0.81944  0.20636  0.77376  1.0000
  C   C1972     1.0  0.90515  0.08832  0.97785  1.0000
  Fe  Fe332     1.0  0.88720  0.04610  0.96992  1.0000
  S   S661      1.0  0.63279  0.98813  0.85235  1.0000
  C   C1973     1.0  0.58515  0.98887  0.88184  1.0000
  S   S662      1.0  0.67375  0.00172  0.91656  1.0000
  H   H1974     1.0  0.60665  0.99395  0.80603  1.0000
  H   H1975     1.0  0.80632  0.18442  0.82894  1.0000
  H   H1976     1.0  0.78594  0.20142  0.83018  1.0000
  H   H1977     1.0  0.62087  0.00004  0.77060  1.0000
  C   C1974     1.0  0.98164  0.25167  0.79723  1.0000
  H   H1978     1.0  0.81920  0.24273  0.78965  1.0000
  H   H1979     1.0  0.92957  0.31053  0.75808  1.0000
  H   H1980     1.0  0.89246  0.09725  0.95492  1.0000
  H   H1981     1.0  0.77868  0.03558  0.97658  1.0000
  C   C1975     1.0  0.66502  0.01681  0.97585  1.0000
  H   H1982     1.0  0.59097  0.99070  0.79427  1.0000
  S   S663      1.0  0.72809  0.03903  0.73562  1.0000
  H   H1983     1.0  0.72181  0.09209  0.97879  1.0000
  H   H1984     1.0  0.57684  0.05227  0.97727  1.0000
  S   S664      1.0  0.52236  0.30448  0.97865  1.0000
  S   S665      1.0  0.88076  0.01850  0.97910  1.0000
  S   S666      1.0  0.98718  0.55725  0.03177  1.0000
  C   C1976     1.0  0.98068  0.60140  0.03621  1.0000
  H   H1985     1.0  0.79325  0.57069  0.03731  1.0000
  Fe  Fe333     1.0  0.63459  0.50844  0.01467  1.0000
  S   S667      1.0  0.61269  0.53152  0.02245  1.0000
  S   S668      1.0  0.63489  0.47894  0.02563  1.0000
  H   H1986     1.0  0.56914  0.45539  0.02726  1.0000
  H   H1987     1.0  0.62943  0.36702  0.15239  1.0000
  Fe  Fe334     1.0  0.63554  0.54294  0.02431  1.0000
  S   S669      1.0  0.63487  0.55885  0.04467  1.0000
  C   C1977     1.0  0.78307  0.62524  0.02611  1.0000
  S   S670      1.0  0.65702  0.51893  0.01885  1.0000
  Fe  Fe335     1.0  0.70473  0.55878  0.12682  1.0000
  S   S671      1.0  0.67479  0.56431  0.12804  1.0000
  S   S672      1.0  0.72163  0.57756  0.10724  1.0000
  Fe  Fe336     1.0  0.70436  0.52364  0.15384  1.0000
  S   S673      1.0  0.67480  0.52638  0.15729  1.0000
  S   S674      1.0  0.72051  0.49968  0.16921  1.0000
  Fe  Fe337     1.0  0.67946  0.53507  0.12738  1.0000
  S   S675      1.0  0.66853  0.52012  0.11300  1.0000
  Fe  Fe338     1.0  0.67301  0.55505  0.15782  1.0000
  S   S676      1.0  0.65149  0.56497  0.18025  1.0000
  S   S677      1.0  0.70945  0.53023  0.12385  1.0000
  S   S678      1.0  0.70247  0.55176  0.15672  1.0000
  Fe  Fe339     1.0  0.57907  0.37541  0.09113  1.0000
  S   S679      1.0  0.59942  0.36461  0.06867  1.0000
  S   S680      1.0  0.57390  0.35603  0.11773  1.0000
  Fe  Fe340     1.0  0.57547  0.41404  0.06906  1.0000
  S   S681      1.0  0.59515  0.40499  0.04535  1.0000
  S   S682      1.0  0.56693  0.44425  0.06565  1.0000
  Fe  Fe341     1.0  0.58037  0.38240  0.05140  1.0000
  S   S683      1.0  0.57376  0.37264  0.02947  1.0000
  Fe  Fe342     1.0  0.61122  0.38851  0.06578  1.0000
  S   S684      1.0  0.64032  0.38869  0.06364  1.0000
  S   S685      1.0  0.55942  0.39249  0.07400  1.0000
  S   S686      1.0  0.59211  0.39831  0.08918  1.0000
  H   H1988     1.0  0.60875  0.45158  0.99218  1.0000
  C   C1978     1.0  0.57730  0.41459  0.00546  1.0000
  H   H1989     1.0  0.77852  0.56597  0.06980  1.0000
  C   C1979     1.0  0.69187  0.40292  0.21476  1.0000
  Fe  Fe343     1.0  0.98033  0.57514  0.00648  1.0000
  C   C1980     1.0  0.59584  0.32818  0.10259  1.0000
  Fe  Fe344     1.0  0.81175  0.59999  0.10189  1.0000
  S   S687      1.0  0.79559  0.58138  0.12270  1.0000
  Fe  Fe345     1.0  0.84362  0.60060  0.06985  1.0000
  S   S688      1.0  0.86280  0.58382  0.05108  1.0000
  S   S689      1.0  0.84131  0.59805  0.09921  1.0000
  S   S690      1.0  0.81483  0.59964  0.07319  1.0000
  C   C1981     1.0  0.67911  0.56806  0.01356  1.0000
  Fe  Fe346     1.0  0.67724  0.42578  0.16329  1.0000
  S   S691      1.0  0.65749  0.44942  0.15211  1.0000
  S   S692      1.0  0.70441  0.42538  0.16795  1.0000
  Fe  Fe347     1.0  0.65272  0.39978  0.16923  1.0000
  S   S693      1.0  0.63057  0.42106  0.15886  1.0000
  S   S694      1.0  0.65080  0.37088  0.18005  1.0000
  Fe  Fe348     1.0  0.65305  0.43052  0.13726  1.0000
  S   S695      1.0  0.65340  0.43961  0.10768  1.0000
  Fe  Fe349     1.0  0.63697  0.43790  0.17471  1.0000
  S   S696      1.0  0.61588  0.45429  0.19282  1.0000
  S   S697      1.0  0.67476  0.40788  0.14640  1.0000
  S   S698      1.0  0.65702  0.41567  0.18699  1.0000
  H   H1990     1.0  0.59828  0.46884  0.22426  1.0000
  C   C1982     1.0  0.81860  0.60649  0.01824  1.0000
  C   C1983     1.0  0.81384  0.61842  0.02996  1.0000
  C   C1984     1.0  0.66460  0.39078  0.22945  1.0000
  H   H1991     1.0  0.82404  0.62040  0.03580  1.0000
  C   C1985     1.0  0.88809  0.57270  0.07231  1.0000
  C   C1986     1.0  0.88401  0.57325  0.05590  1.0000
  C   C1987     1.0  0.89717  0.56555  0.04275  1.0000
  C   C1988     1.0  0.91466  0.55811  0.04559  1.0000
  H   H1992     1.0  0.87789  0.57838  0.08262  1.0000
  H   H1993     1.0  0.89398  0.56567  0.03015  1.0000
  H   H1994     1.0  0.92477  0.55231  0.03530  1.0000
  H   H1995     1.0  0.70910  0.56161  0.04002  1.0000
  C   C1989     1.0  0.66732  0.36041  0.19282  1.0000
  C   C1990     1.0  0.73336  0.53821  0.98984  1.0000
  H   H1996     1.0  0.90890  0.56493  0.08776  1.0000
  S   S699      1.0  0.95234  0.57023  0.01246  1.0000
  C   C1991     1.0  0.55162  0.37043  0.03022  1.0000
  C   C1992     1.0  0.54840  0.36362  0.01673  1.0000
  C   C1993     1.0  0.53088  0.36208  0.01675  1.0000
  C   C1994     1.0  0.51640  0.36739  0.03028  1.0000
  C   C1995     1.0  0.51964  0.37421  0.04371  1.0000
  C   C1996     1.0  0.53713  0.37569  0.04372  1.0000
  H   H1997     1.0  0.55950  0.35961  0.00617  1.0000
  H   H1998     1.0  0.52854  0.35701  0.00620  1.0000
  H   H1999     1.0  0.50853  0.37838  0.05420  1.0000
  H   H2000     1.0  0.53934  0.38094  0.05417  1.0000
  C   C1997     1.0  0.64372  0.40255  0.07640  1.0000
  C   C1998     1.0  0.63438  0.40250  0.09419  1.0000
  C   C1999     1.0  0.63808  0.41297  0.10437  1.0000
  C   C2000     1.0  0.65054  0.42414  0.09648  1.0000
  C   C2001     1.0  0.65972  0.42428  0.07869  1.0000
  C   C2002     1.0  0.65660  0.41327  0.06883  1.0000
  H   H2001     1.0  0.62463  0.39408  0.10031  1.0000
  H   H2002     1.0  0.63078  0.41292  0.11806  1.0000
  H   H2003     1.0  0.66929  0.43298  0.07244  1.0000
  H   H2004     1.0  0.66390  0.41339  0.05513  1.0000
  C   C2003     1.0  0.58927  0.33533  0.11809  1.0000
  C   C2004     1.0  0.91217  0.60337  0.08820  1.0000
  H   H2005     1.0  0.59015  0.33434  0.09087  1.0000
  H   H2006     1.0  0.59056  0.33167  0.14581  1.0000
  C   C2005     1.0  0.65675  0.58130  0.18857  1.0000
  C   C2006     1.0  0.67134  0.58940  0.17934  1.0000
  C   C2007     1.0  0.67582  0.60196  0.18638  1.0000
  C   C2008     1.0  0.66584  0.60641  0.20273  1.0000
  C   C2009     1.0  0.65126  0.59826  0.21204  1.0000
  C   C2010     1.0  0.64668  0.58576  0.20491  1.0000
  H   H2007     1.0  0.67907  0.58615  0.16667  1.0000
  H   H2008     1.0  0.68706  0.60830  0.17913  1.0000
  H   H2009     1.0  0.63541  0.57946  0.21213  1.0000
  C   C2011     1.0  0.77575  0.57910  0.11776  1.0000
  C   C2012     1.0  0.77086  0.58797  0.10140  1.0000
  C   C2013     1.0  0.75456  0.58675  0.09803  1.0000
  C   C2014     1.0  0.74295  0.57680  0.11105  1.0000
  C   C2015     1.0  0.74807  0.56746  0.12720  1.0000
  C   C2016     1.0  0.76445  0.56861  0.13053  1.0000
  H   H2010     1.0  0.77940  0.59611  0.09148  1.0000
  H   H2011     1.0  0.75069  0.59393  0.08548  1.0000
  H   H2012     1.0  0.73926  0.55967  0.13728  1.0000
  H   H2013     1.0  0.76821  0.56163  0.14318  1.0000
  C   C2017     1.0  0.71498  0.47910  0.17023  1.0000
  C   C2018     1.0  0.69914  0.47847  0.16560  1.0000
  C   C2019     1.0  0.69544  0.46196  0.16558  1.0000
  C   C2020     1.0  0.70780  0.44602  0.16971  1.0000
  C   C2021     1.0  0.72365  0.44660  0.17437  1.0000
  C   C2022     1.0  0.72711  0.46308  0.17486  1.0000
  H   H2014     1.0  0.68974  0.49065  0.16188  1.0000
  H   H2015     1.0  0.68324  0.46168  0.16190  1.0000
  H   H2016     1.0  0.73338  0.43435  0.17739  1.0000
  H   H2017     1.0  0.73945  0.46348  0.17834  1.0000
  H   H2018     1.0  0.97260  0.59167  0.03777  1.0000
  S   S700      1.0  0.83911  0.63066  0.06313  1.0000
  H   H2019     1.0  0.66224  0.38404  0.21971  1.0000
  C   C2023     1.0  0.61562  0.47018  0.03724  1.0000
  C   C2024     1.0  0.61793  0.45174  0.04456  1.0000
  C   C2025     1.0  0.60305  0.44393  0.05360  1.0000
  C   C2026     1.0  0.58566  0.45445  0.05541  1.0000
  C   C2027     1.0  0.58329  0.47302  0.04839  1.0000
  C   C2028     1.0  0.59827  0.48090  0.03928  1.0000
  H   H2020     1.0  0.63133  0.44339  0.04325  1.0000
  H   H2021     1.0  0.60520  0.42974  0.05943  1.0000
  H   H2022     1.0  0.56986  0.48126  0.04978  1.0000
  H   H2023     1.0  0.59640  0.49517  0.03371  1.0000
  C   C2029     1.0  0.64502  0.54810  0.06317  1.0000
  C   C2030     1.0  0.64636  0.55829  0.07485  1.0000
  C   C2031     1.0  0.65411  0.54995  0.08990  1.0000
  C   C2032     1.0  0.66019  0.53131  0.09350  1.0000
  C   C2033     1.0  0.65896  0.52116  0.08175  1.0000
  C   C2034     1.0  0.65170  0.52958  0.06645  1.0000
  H   H2024     1.0  0.64131  0.57267  0.07229  1.0000
  H   H2025     1.0  0.65499  0.55788  0.09889  1.0000
  H   H2026     1.0  0.66370  0.50676  0.08441  1.0000
  H   H2027     1.0  0.65115  0.52172  0.05730  1.0000
  N   N169      1.0  0.74536  0.62790  0.10574  1.0000
  C   C2035     1.0  0.71865  0.53179  0.00176  1.0000
  H   H2028     1.0  0.69231  0.52650  0.00482  1.0000
  Fe  Fe350     1.0  0.65945  0.53260  0.98990  1.0000
  C   C2036     1.0  0.71047  0.40172  0.21156  1.0000
  H   H2029     1.0  0.70713  0.61199  0.12507  1.0000
  H   H2030     1.0  0.71868  0.52762  0.01595  1.0000
  C   C2037     1.0  0.68016  0.55734  0.22782  1.0000
  C   C2038     1.0  0.60214  0.44891  0.00659  1.0000
  C   C2039     1.0  0.92237  0.59965  0.07167  1.0000
  Fe  Fe351     1.0  0.80979  0.62948  0.06874  1.0000
  H   H2031     1.0  0.93611  0.59203  0.07093  1.0000
  C   C2040     1.0  0.63681  0.36559  0.13895  1.0000
  H   H2032     1.0  0.73552  0.38565  0.21805  1.0000
  H   H2033     1.0  0.76085  0.62633  0.07954  1.0000
  H   H2034     1.0  0.72699  0.57427  0.01086  1.0000
  C   C2041     1.0  0.98302  0.60590  0.05144  1.0000
  C   C2042     1.0  0.68956  0.57513  0.99722  1.0000
  Fe  Fe352     1.0  0.79389  0.58306  0.98153  1.0000
  N   N170      1.0  0.67797  0.53032  0.22029  1.0000
  H   H2035     1.0  0.67182  0.52854  0.19619  1.0000
  H   H2036     1.0  0.68412  0.57848  0.98518  1.0000
  H   H2037     1.0  0.64347  0.60169  0.22462  1.0000
  H   H2038     1.0  0.74511  0.64733  0.08120  1.0000
  H   H2039     1.0  0.76928  0.63235  0.02930  1.0000
  C   C2043     1.0  0.68613  0.56321  0.02907  1.0000
  H   H2040     1.0  0.59718  0.46205  0.01085  1.0000
  C   C2044     1.0  0.68127  0.54736  0.21506  1.0000
  S   S701      1.0  0.49406  0.36595  0.03092  1.0000
  Fe  Fe353     1.0  0.49846  0.32323  0.99093  1.0000
  H   H2041     1.0  0.65232  0.34058  0.20935  1.0000
  Fe  Fe354     1.0  0.83474  0.62839  0.09301  1.0000
  C   C2045     1.0  0.69341  0.34374  0.21379  1.0000
  H   H2042     1.0  0.65890  0.37623  0.14062  1.0000
  C   C2046     1.0  0.82003  0.56358  0.04253  1.0000
  N   N171      1.0  0.63903  0.35728  0.11102  1.0000
  C   C2047     1.0  0.87855  0.56409  0.98057  1.0000
  C   C2048     1.0  0.62976  0.35881  0.12803  1.0000
  H   H2043     1.0  0.66573  0.56613  0.01422  1.0000
  Fe  Fe355     1.0  0.61889  0.54383  0.99297  1.0000
  C   C2049     1.0  0.66285  0.36895  0.11506  1.0000
  S   S702      1.0  0.63906  0.51991  0.98498  1.0000
  H   H2044     1.0  0.52638  0.32571  0.02869  1.0000
  H   H2045     1.0  0.61672  0.35501  0.13311  1.0000
  H   H2046     1.0  0.77777  0.61107  0.00839  1.0000
  H   H2047     1.0  0.61675  0.35574  0.10128  1.0000
  C   C2050     1.0  0.72102  0.38698  0.22075  1.0000
  H   H2048     1.0  0.93074  0.61315  0.03107  1.0000
  S   S703      1.0  0.63959  0.55745  0.99560  1.0000
  N   N172      1.0  0.68395  0.38988  0.22697  1.0000
  N   N173      1.0  0.58755  0.43928  0.00958  1.0000
  C   C2051     1.0  0.71343  0.57280  0.01157  1.0000
  S   S704      1.0  0.94160  0.55208  0.06381  1.0000
  C   C2052     1.0  0.98857  0.60964  0.01905  1.0000
  H   H2049     1.0  0.68255  0.57096  0.22358  1.0000
  C   C2053     1.0  0.64205  0.46540  0.20228  1.0000
  H   H2050     1.0  0.76748  0.62418  0.11830  1.0000
  H   H2051     1.0  0.55095  0.41094  0.02066  1.0000
  C   C2054     1.0  0.56102  0.41919  0.01722  1.0000
  H   H2052     1.0  0.67557  0.37333  0.10966  1.0000
  H   H2053     1.0  0.61177  0.44811  0.10485  1.0000
  H   H2054     1.0  0.57988  0.40275  0.99977  1.0000
  C   C2055     1.0  0.55806  0.43403  0.02501  1.0000
  C   C2056     1.0  0.88699  0.61825  0.07405  1.0000
  S   S705      1.0  0.75099  0.54082  0.99837  1.0000
  H   H2055     1.0  0.66264  0.36113  0.09093  1.0000
  S   S706      1.0  0.79008  0.64108  0.05049  1.0000
  S   S707      1.0  0.85003  0.63956  0.10714  1.0000
  H   H2056     1.0  0.68510  0.37875  0.17910  1.0000
  S   S708      1.0  0.76377  0.58687  0.98733  1.0000
  S   S709      1.0  0.81228  0.58726  0.99719  1.0000
  H   H2057     1.0  0.61763  0.44148  0.08344  1.0000
  S   S710      1.0  0.80472  0.63003  0.09810  1.0000
  C   C2057     1.0  0.65343  0.37073  0.13236  1.0000
  S   S711      1.0  0.97037  0.52699  0.02352  1.0000
  S   S712      1.0  0.94594  0.53916  0.98480  1.0000
  H   H2058     1.0  0.82654  0.56557  0.02844  1.0000
  H   H2059     1.0  0.63587  0.52938  0.20188  1.0000
  N   N174      1.0  0.71876  0.47084  0.12249  1.0000
  C   C2058     1.0  0.70472  0.48191  0.11533  1.0000
  C   C2059     1.0  0.72049  0.45258  0.12588  1.0000
  C   C2060     1.0  0.69181  0.47476  0.11161  1.0000
  C   C2061     1.0  0.70779  0.44499  0.12237  1.0000
  C   C2062     1.0  0.69341  0.45619  0.11512  1.0000
  C   C2063     1.0  0.73237  0.47866  0.12580  1.0000
  H   H2060     1.0  0.70337  0.49639  0.11254  1.0000
  H   H2061     1.0  0.73144  0.44374  0.13180  1.0000
  H   H2062     1.0  0.68056  0.48360  0.10617  1.0000
  H   H2063     1.0  0.70891  0.43053  0.12560  1.0000
  H   H2064     1.0  0.91773  0.59663  0.03233  1.0000
  H   H2065     1.0  0.72590  0.49080  0.13164  1.0000
  H   H2066     1.0  0.74000  0.46915  0.13565  1.0000
  H   H2067     1.0  0.74191  0.48248  0.11306  1.0000
  S   S713      1.0  0.70975  0.33395  0.22700  1.0000
  H   H2068     1.0  0.61237  0.44072  0.01451  1.0000
  C   C2064     1.0  0.59574  0.32632  0.13370  1.0000
  C   C2065     1.0  0.57149  0.44407  0.02089  1.0000
  C   C2066     1.0  0.79308  0.56384  0.06572  1.0000
  N   N175      1.0  0.70654  0.57730  0.99637  1.0000
  C   C2067     1.0  0.70366  0.53121  0.99548  1.0000
  C   C2068     1.0  0.89436  0.61274  0.08936  1.0000
  N   N176      1.0  0.82211  0.55671  0.07353  1.0000
  H   H2069     1.0  0.59470  0.45048  0.09216  1.0000
  C   C2069     1.0  0.80378  0.55875  0.07862  1.0000
  C   C2070     1.0  0.83306  0.55202  0.08720  1.0000
  H   H2070     1.0  0.84484  0.55672  0.05169  1.0000
  H   H2071     1.0  0.79732  0.55689  0.09273  1.0000
  H   H2072     1.0  0.83691  0.53720  0.09129  1.0000
  H   H2073     1.0  0.84549  0.55769  0.08202  1.0000
  H   H2074     1.0  0.82557  0.55773  0.09923  1.0000
  N   N177      1.0  0.62486  0.52701  0.18093  1.0000
  C   C2071     1.0  0.62364  0.50972  0.18199  1.0000
  C   C2072     1.0  0.62915  0.53798  0.16457  1.0000
  C   C2073     1.0  0.62691  0.50287  0.16646  1.0000
  C   C2074     1.0  0.63240  0.53163  0.14873  1.0000
  C   C2075     1.0  0.63143  0.51391  0.14973  1.0000
  C   C2076     1.0  0.62280  0.53331  0.19747  1.0000
  H   H2075     1.0  0.62021  0.50109  0.19492  1.0000
  H   H2076     1.0  0.63045  0.55161  0.16368  1.0000
  H   H2077     1.0  0.62612  0.48903  0.16747  1.0000
  H   H2078     1.0  0.63619  0.54020  0.13576  1.0000
  H   H2079     1.0  0.63441  0.50872  0.13754  1.0000
  H   H2080     1.0  0.61257  0.52737  0.20845  1.0000
  C   C2077     1.0  0.61219  0.47022  0.22102  1.0000
  H   H2081     1.0  0.93756  0.58992  0.04141  1.0000
  N   N178      1.0  0.61195  0.46961  0.08228  1.0000
  C   C2078     1.0  0.62913  0.47198  0.07453  1.0000
  C   C2079     1.0  0.59786  0.48406  0.08240  1.0000
  C   C2080     1.0  0.63254  0.48913  0.06639  1.0000
  C   C2081     1.0  0.60079  0.50143  0.07440  1.0000
  C   C2082     1.0  0.61826  0.50394  0.06638  1.0000
  C   C2083     1.0  0.60878  0.45158  0.09120  1.0000
  H   H2082     1.0  0.64029  0.46054  0.07434  1.0000
  H   H2083     1.0  0.58423  0.48216  0.08850  1.0000
  H   H2084     1.0  0.64614  0.49080  0.05982  1.0000
  H   H2085     1.0  0.58960  0.51286  0.07430  1.0000
  H   H2086     1.0  0.62071  0.51733  0.06007  1.0000
  C   C2084     1.0  0.80130  0.56642  0.04755  1.0000
  H   H2087     1.0  0.54569  0.43742  0.03462  1.0000
  H   H2088     1.0  0.65130  0.46035  0.19103  1.0000
  C   C2085     1.0  0.65547  0.36202  0.10455  1.0000
  C   C2086     1.0  0.63141  0.35002  0.09995  1.0000
  S   S714      1.0  0.67219  0.62207  0.21102  1.0000
  H   H2089     1.0  0.67514  0.32612  0.22804  1.0000
  C   C2087     1.0  0.72004  0.61532  0.12390  1.0000
  H   H2090     1.0  0.89150  0.61811  0.04602  1.0000
  Fe  Fe356     1.0  0.96421  0.54687  0.99853  1.0000
  H   H2091     1.0  0.68344  0.45049  0.11238  1.0000
  H   H2092     1.0  0.68392  0.41427  0.20720  1.0000
  H   H2093     1.0  0.68466  0.55336  0.20091  1.0000
  H   H2094     1.0  0.65706  0.40494  0.22736  1.0000
  H   H2095     1.0  0.70816  0.36394  0.19742  1.0000
  C   C2088     1.0  0.83030  0.55863  0.05576  1.0000
  C   C2089     1.0  0.62410  0.46348  0.20649  1.0000
  H   H2096     1.0  0.88617  0.61565  0.10209  1.0000
  H   H2097     1.0  0.61850  0.54819  0.19545  1.0000
  C   C2090     1.0  0.68296  0.36715  0.18966  1.0000
  H   H2098     1.0  0.75280  0.60806  0.14739  1.0000
  C   C2091     1.0  0.91905  0.55834  0.06160  1.0000
  C   C2092     1.0  0.90560  0.56506  0.07522  1.0000
  H   H2099     1.0  0.97704  0.59925  0.06465  1.0000
  C   C2093     1.0  0.78785  0.61319  0.01431  1.0000
  H   H2100     1.0  0.76546  0.64257  0.08926  1.0000
  C   C2094     1.0  0.69602  0.35876  0.20005  1.0000
  C   C2095     1.0  0.79605  0.62765  0.03418  1.0000
  H   H2101     1.0  0.67822  0.55753  0.04177  1.0000
  C   C2096     1.0  0.72870  0.62440  0.10753  1.0000
  C   C2097     1.0  0.80564  0.60366  0.01052  1.0000
  C   C2098     1.0  0.59057  0.42473  0.00190  1.0000
  H   H2102     1.0  0.91797  0.59878  0.10007  1.0000
  N   N179      1.0  0.91491  0.60488  0.05678  1.0000
  C   C2099     1.0  0.92577  0.60105  0.03953  1.0000
  H   H2103     1.0  0.66158  0.47659  0.20842  1.0000
  Fe  Fe357     1.0  0.96001  0.55074  0.03681  1.0000
  H   H2104     1.0  0.83239  0.59929  0.01534  1.0000
  C   C2100     1.0  0.89748  0.61415  0.05778  1.0000
  H   H2105     1.0  0.60349  0.42057  0.99339  1.0000
  C   C2101     1.0  0.67945  0.52019  0.20654  1.0000
  H   H2106     1.0  0.63762  0.35352  0.08546  1.0000
  C   C2102     1.0  0.66466  0.34544  0.20655  1.0000
  H   H2107     1.0  0.63357  0.33517  0.10411  1.0000
  S   S715      1.0  0.49687  0.35310  0.98356  1.0000
  H   H2108     1.0  0.72227  0.62805  0.09611  1.0000
  C   C2103     1.0  0.70340  0.56558  0.02810  1.0000
  H   H2109     1.0  0.85154  0.57814  0.98984  1.0000
  H   H2110     1.0  0.72229  0.60203  0.15099  1.0000
  C   C2104     1.0  0.63584  0.48160  0.22650  1.0000
  C   C2105     1.0  0.67761  0.33722  0.21711  1.0000
  C   C2106     1.0  0.74568  0.61306  0.13643  1.0000
  Fe  Fe358     1.0  0.76870  0.55973  0.98055  1.0000
  H   H2111     1.0  0.69382  0.51621  0.19997  1.0000
  S   S716      1.0  0.98756  0.60248  0.99993  1.0000
  H   H2112     1.0  0.71668  0.41198  0.20169  1.0000
  H   H2113     1.0  0.87316  0.62553  0.07490  1.0000
  H   H2114     1.0  0.67384  0.50781  0.21226  1.0000
  C   C2107     1.0  0.64783  0.47464  0.21213  1.0000
  C   C2108     1.0  0.72862  0.60961  0.13842  1.0000
  H   H2115     1.0  0.88417  0.56717  0.99039  1.0000
  C   C2109     1.0  0.75392  0.62225  0.11989  1.0000
  C   C2110     1.0  0.75461  0.63644  0.08814  1.0000
  C   C2111     1.0  0.86027  0.57020  0.98029  1.0000
  H   H2116     1.0  0.88486  0.36466  0.45009  1.0000
  S   S717      1.0  0.64610  0.63678  0.28710  1.0000
  H   H2117     1.0  0.61704  0.57830  0.28971  1.0000
  C   C2112     1.0  0.73395  0.32577  0.40787  1.0000
  H   H2118     1.0  0.66944  0.52609  0.26542  1.0000
  S   S718      1.0  0.61644  0.34044  0.42328  1.0000
  S   S719      1.0  0.65893  0.33279  0.38472  1.0000
  C   C2113     1.0  0.92376  0.39326  0.42450  1.0000
  H   H2119     1.0  0.85620  0.34436  0.37228  1.0000
  S   S720      1.0  0.52129  0.62957  0.34093  1.0000
  C   C2114     1.0  0.72144  0.35880  0.41850  1.0000
  C   C2115     1.0  0.66912  0.32092  0.30089  1.0000
  H   H2120     1.0  0.83963  0.39516  0.44313  1.0000
  S   S721      1.0  0.94996  0.33570  0.37348  1.0000
  S   S722      1.0  0.77902  0.32660  0.46983  1.0000
  H   H2121     1.0  0.89478  0.32991  0.30696  1.0000
  N   N180      1.0  0.90405  0.37343  0.42704  1.0000
  H   H2122     1.0  0.66365  0.49201  0.34337  1.0000
  Fe  Fe359     1.0  0.97662  0.33572  0.35405  1.0000
  C   C2116     1.0  0.69516  0.33180  0.45030  1.0000
  C   C2117     1.0  0.88310  0.33602  0.33327  1.0000
  H   H2123     1.0  0.92678  0.40383  0.42910  1.0000
  N   N181      1.0  0.86852  0.33609  0.34725  1.0000
  S   S723      1.0  0.94880  0.37205  0.45833  1.0000
  H   H2124     1.0  0.62412  0.45297  0.38565  1.0000
  C   C2118     1.0  0.70750  0.33481  0.45867  1.0000
  S   S724      1.0  0.65896  0.36371  0.40694  1.0000
  S   S725      1.0  0.50161  0.55427  0.34008  1.0000
  H   H2125     1.0  0.72797  0.63349  0.26977  1.0000
  Fe  Fe360     1.0  0.65443  0.38381  0.38151  1.0000
  S   S726      1.0  0.65299  0.41378  0.37474  1.0000
  C   C2119     1.0  0.61808  0.47911  0.23112  1.0000
  Fe  Fe361     1.0  0.59833  0.52318  0.28752  1.0000
  S   S727      1.0  0.60745  0.50852  0.31303  1.0000
  S   S728      1.0  0.57763  0.54912  0.28632  1.0000
  Fe  Fe362     1.0  0.62716  0.49942  0.26469  1.0000
  S   S729      1.0  0.63864  0.48276  0.28835  1.0000
  H   H2126     1.0  0.92742  0.34525  0.46360  1.0000
  Fe  Fe363     1.0  0.61002  0.48365  0.30286  1.0000
  S   S730      1.0  0.60145  0.45920  0.32204  1.0000
  Fe  Fe364     1.0  0.63526  0.50883  0.29654  1.0000
  S   S731      1.0  0.65686  0.51176  0.30875  1.0000
  S   S732      1.0  0.59841  0.49821  0.27844  1.0000
  S   S733      1.0  0.62625  0.52560  0.27175  1.0000
  Fe  Fe365     1.0  0.80552  0.33539  0.46017  1.0000
  S   S734      1.0  0.64257  0.61076  0.26143  1.0000
  C   C2120     1.0  0.85278  0.32564  0.33078  1.0000
  H   H2127     1.0  0.82143  0.37163  0.44982  1.0000
  H   H2128     1.0  0.97399  0.36185  0.42714  1.0000
  Fe  Fe366     1.0  0.66158  0.61141  0.27803  1.0000
  S   S735      1.0  0.67373  0.58873  0.29797  1.0000
  Fe  Fe367     1.0  0.62845  0.63749  0.26858  1.0000
  H   H2129     1.0  0.67136  0.50909  0.24232  1.0000
  H   H2130     1.0  0.89807  0.39364  0.44253  1.0000
  C   C2121     1.0  0.66188  0.46966  0.36589  1.0000
  H   H2131     1.0  0.84096  0.32124  0.33015  1.0000
  H   H2132     1.0  0.67014  0.34863  0.29802  1.0000
  S   S736      1.0  0.67648  0.36804  0.36388  1.0000
  C   C2122     1.0  0.66096  0.53342  0.30545  1.0000
  C   C2123     1.0  0.65212  0.54819  0.29449  1.0000
  C   C2124     1.0  0.65604  0.56527  0.29196  1.0000
  C   C2125     1.0  0.66859  0.56761  0.30055  1.0000
  C   C2126     1.0  0.67726  0.55282  0.31157  1.0000
  C   C2127     1.0  0.67353  0.53578  0.31393  1.0000
  H   H2133     1.0  0.64239  0.54646  0.28791  1.0000
  H   H2134     1.0  0.64940  0.57659  0.28339  1.0000
  H   H2135     1.0  0.68699  0.55452  0.31822  1.0000
  H   H2136     1.0  0.68045  0.52440  0.32236  1.0000
  H   H2137     1.0  0.67505  0.32065  0.28695  1.0000
  C   C2128     1.0  0.57518  0.58366  0.31543  1.0000
  H   H2138     1.0  0.70612  0.34786  0.46172  1.0000
  C   C2129     1.0  0.65335  0.32196  0.33694  1.0000
  C   C2130     1.0  0.56336  0.59509  0.32631  1.0000
  H   H2139     1.0  0.60916  0.60596  0.29916  1.0000
  C   C2131     1.0  0.63259  0.46187  0.37660  1.0000
  H   H2140     1.0  0.93097  0.32070  0.44810  1.0000
  C   C2132     1.0  0.88687  0.36770  0.43523  1.0000
  H   H2141     1.0  0.49708  0.54968  0.37831  1.0000
  C   C2133     1.0  0.63924  0.42549  0.35926  1.0000
  C   C2134     1.0  0.62249  0.42142  0.36086  1.0000
  C   C2135     1.0  0.61112  0.43168  0.34919  1.0000
  C   C2136     1.0  0.61638  0.44611  0.33589  1.0000
  C   C2137     1.0  0.63323  0.45004  0.33412  1.0000
  C   C2138     1.0  0.64466  0.43970  0.34572  1.0000
  H   H2142     1.0  0.61800  0.41076  0.37147  1.0000
  H   H2143     1.0  0.59806  0.42862  0.35067  1.0000
  H   H2144     1.0  0.63739  0.46120  0.32401  1.0000
  H   H2145     1.0  0.65762  0.44290  0.34438  1.0000
  H   H2146     1.0  0.89531  0.33935  0.33441  1.0000
  N   N182      1.0  0.59146  0.58751  0.30594  1.0000
  Fe  Fe368     1.0  0.77528  0.33727  0.44149  1.0000
  S   S737      1.0  0.65529  0.35735  0.33246  1.0000
  H   H2147     1.0  0.87760  0.35049  0.36159  1.0000
  C   C2139     1.0  0.71787  0.33676  0.40370  1.0000
  S   S738      1.0  0.80058  0.34860  0.43249  1.0000
  C   C2140     1.0  0.63695  0.48613  0.35185  1.0000
  C   C2141     1.0  0.66627  0.33676  0.30716  1.0000
  H   H2148     1.0  0.67596  0.46722  0.36655  1.0000
  S   S739      1.0  0.98762  0.36048  0.33896  1.0000
  C   C2142     1.0  0.60767  0.32167  0.45770  1.0000
  C   C2143     1.0  0.65855  0.33725  0.32520  1.0000
  C   C2144     1.0  0.63788  0.32521  0.46791  1.0000
  Fe  Fe369     1.0  0.65480  0.35567  0.36145  1.0000
  C   C2145     1.0  0.85338  0.33126  0.34605  1.0000
  H   H2149     1.0  0.75585  0.32249  0.42084  1.0000
  S   S740      1.0  0.63252  0.37252  0.37784  1.0000
  H   H2150     1.0  0.59598  0.32020  0.45378  1.0000
  H   H2151     1.0  0.58900  0.62628  0.31851  1.0000
  S   S741      1.0  0.86297  0.40177  0.46266  1.0000
  C   C2146     1.0  0.52270  0.55269  0.32503  1.0000
  C   C2147     1.0  0.53453  0.53596  0.32480  1.0000
  C   C2148     1.0  0.55145  0.53459  0.31295  1.0000
  C   C2149     1.0  0.55642  0.54993  0.30104  1.0000
  C   C2150     1.0  0.54447  0.56657  0.30112  1.0000
  C   C2151     1.0  0.52781  0.56799  0.31323  1.0000
  H   H2152     1.0  0.53063  0.52405  0.33383  1.0000
  H   H2153     1.0  0.56056  0.52168  0.31293  1.0000
  H   H2154     1.0  0.54817  0.57845  0.29184  1.0000
  H   H2155     1.0  0.51876  0.58089  0.31312  1.0000
  Fe  Fe370     1.0  0.81357  0.32154  0.42549  1.0000
  H   H2156     1.0  0.94885  0.38951  0.40530  1.0000
  S   S742      1.0  0.64307  0.49456  0.23742  1.0000
  H   H2157     1.0  0.60185  0.46553  0.36778  1.0000
  C   C2152     1.0  0.94015  0.32991  0.44325  1.0000
  C   C2153     1.0  0.65062  0.45878  0.37789  1.0000
  C   C2154     1.0  0.69215  0.62826  0.32859  1.0000
  C   C2155     1.0  0.90764  0.38725  0.43224  1.0000
  H   H2158     1.0  0.63182  0.49678  0.34149  1.0000
  C   C2156     1.0  0.63560  0.33222  0.45016  1.0000
  C   C2157     1.0  0.82891  0.35904  0.47525  1.0000
  S   S743      1.0  0.74816  0.35387  0.43680  1.0000
  H   H2159     1.0  0.71651  0.37156  0.42269  1.0000
  H   H2160     1.0  0.64539  0.33917  0.44055  1.0000
  C   C2158     1.0  0.95019  0.35551  0.44631  1.0000
  C   C2159     1.0  0.96439  0.35308  0.43153  1.0000
  C   C2160     1.0  0.96642  0.33909  0.42260  1.0000
  H   H2161     1.0  0.97764  0.33701  0.41146  1.0000
  H   H2162     1.0  0.87660  0.32744  0.37221  1.0000
  C   C2161     1.0  0.93796  0.34403  0.45193  1.0000
  H   H2163     1.0  0.67496  0.55729  0.25607  1.0000
  C   C2162     1.0  0.69421  0.37536  0.23603  1.0000
  C   C2163     1.0  0.49513  0.55754  0.40997  1.0000
  H   H2164     1.0  0.50852  0.55610  0.40071  1.0000
  H   H2165     1.0  0.57126  0.57173  0.31452  1.0000
  C   C2164     1.0  0.73739  0.34765  0.42296  1.0000
  C   C2165     1.0  0.60725  0.47804  0.36204  1.0000
  H   H2166     1.0  0.84181  0.33131  0.35715  1.0000
  C   C2166     1.0  0.58506  0.61421  0.31791  1.0000
  H   H2167     1.0  0.71379  0.32731  0.34762  1.0000
  H   H2168     1.0  0.91354  0.35423  0.41004  1.0000
  C   C2167     1.0  0.86771  0.32524  0.31657  1.0000
  H   H2169     1.0  0.49730  0.55178  0.42384  1.0000
  H   H2170     1.0  0.65593  0.44761  0.38774  1.0000
  H   H2171     1.0  0.70528  0.64782  0.33199  1.0000
  C   C2168     1.0  0.70303  0.64103  0.32260  1.0000
  H   H2172     1.0  0.73237  0.32374  0.46787  1.0000
  H   H2173     1.0  0.60602  0.48180  0.34774  1.0000
  H   H2174     1.0  0.87556  0.37867  0.43141  1.0000
  H   H2175     1.0  0.88613  0.35547  0.43110  1.0000
  C   C2169     1.0  0.67273  0.53221  0.25127  1.0000
  H   H2176     1.0  0.60871  0.48456  0.24208  1.0000
  H   H2177     1.0  0.69936  0.36200  0.40557  1.0000
  C   C2170     1.0  0.91619  0.36535  0.41406  1.0000
  H   H2178     1.0  0.64712  0.32238  0.35082  1.0000
  C   C2171     1.0  0.67385  0.52265  0.23813  1.0000
  C   C2172     1.0  0.71482  0.64265  0.27310  1.0000
  H   H2179     1.0  0.67838  0.32558  0.42848  1.0000
  C   C2173     1.0  0.95448  0.32727  0.42873  1.0000
  H   H2180     1.0  0.55027  0.59222  0.33356  1.0000
  H   H2181     1.0  0.58918  0.36926  0.43825  1.0000
  H   H2182     1.0  0.86769  0.32038  0.30486  1.0000
  H   H2183     1.0  0.60392  0.56143  0.30066  1.0000
  S   S744      1.0  0.59869  0.64365  0.27988  1.0000
  N   N183      1.0  0.62607  0.47519  0.36347  1.0000
  H   H2184     1.0  0.54560  0.35930  0.46665  1.0000
  H   H2185     1.0  0.57811  0.35155  0.43935  1.0000
  H   H2186     1.0  0.55940  0.61942  0.33596  1.0000
  Fe  Fe371     1.0  0.63877  0.35093  0.40170  1.0000
  Fe  Fe372     1.0  0.49729  0.61622  0.34884  1.0000
  C   C2174     1.0  0.74369  0.33121  0.41745  1.0000
  Fe  Fe373     1.0  0.92285  0.37894  0.47816  1.0000
  C   C2175     1.0  0.93614  0.38521  0.41118  1.0000
  H   H2187     1.0  0.69410  0.61841  0.28862  1.0000
  H   H2188     1.0  0.59755  0.57812  0.28172  1.0000
  C   C2176     1.0  0.60312  0.57581  0.29392  1.0000
  C   C2177     1.0  0.88290  0.33066  0.31771  1.0000
  H   H2189     1.0  0.59883  0.48886  0.36906  1.0000
  N   N184      1.0  0.64461  0.41028  0.31593  1.0000
  C   C2178     1.0  0.62977  0.40275  0.32003  1.0000
  C   C2179     1.0  0.64601  0.42524  0.30259  1.0000
  C   C2180     1.0  0.61551  0.41062  0.31114  1.0000
  C   C2181     1.0  0.63204  0.43341  0.29337  1.0000
  C   C2182     1.0  0.61665  0.42610  0.29780  1.0000
  C   C2183     1.0  0.65941  0.40180  0.32539  1.0000
  H   H2190     1.0  0.62878  0.39073  0.33043  1.0000
  H   H2191     1.0  0.65778  0.43120  0.29932  1.0000
  H   H2192     1.0  0.60356  0.40488  0.31476  1.0000
  H   H2193     1.0  0.63287  0.44562  0.28322  1.0000
  H   H2194     1.0  0.60546  0.43268  0.29117  1.0000
  H   H2195     1.0  0.66876  0.39115  0.31864  1.0000
  H   H2196     1.0  0.66694  0.41175  0.32597  1.0000
  H   H2197     1.0  0.65416  0.39552  0.33950  1.0000
  C   C2184     1.0  0.71168  0.35338  0.40888  1.0000
  C   C2185     1.0  0.65500  0.48350  0.35286  1.0000
  H   H2198     1.0  0.68611  0.62481  0.34272  1.0000
  H   H2199     1.0  0.68061  0.61003  0.32071  1.0000
  C   C2186     1.0  0.69659  0.62494  0.29805  1.0000
  C   C2187     1.0  0.58692  0.35764  0.47259  1.0000
  H   H2200     1.0  0.94211  0.36456  0.39583  1.0000
  C   C2188     1.0  0.57658  0.36402  0.44428  1.0000
  S   S745      1.0  0.67999  0.62541  0.25516  1.0000
  S   S746      1.0  0.70533  0.32892  0.39290  1.0000
  C   C2189     1.0  0.68897  0.62006  0.31627  1.0000
  S   S747      1.0  0.90667  0.40723  0.47584  1.0000
  Fe  Fe374     1.0  0.67882  0.34679  0.38856  1.0000
  C   C2190     1.0  0.56842  0.61042  0.32759  1.0000
  C   C2191     1.0  0.67584  0.54969  0.24604  1.0000
  C   C2192     1.0  0.93236  0.37117  0.40590  1.0000
  Fe  Fe375     1.0  0.65981  0.62687  0.23901  1.0000
  C   C2193     1.0  0.59644  0.60261  0.30698  1.0000
  H   H2201     1.0  0.97840  0.33920  0.46757  1.0000
  C   C2194     1.0  0.86975  0.33985  0.36413  1.0000
  C   C2195     1.0  0.84972  0.38544  0.46757  1.0000
  N   N185      1.0  0.70687  0.63780  0.29224  1.0000
  H   H2202     1.0  0.56539  0.37430  0.43929  1.0000
  H   H2203     1.0  0.72096  0.36183  0.23987  1.0000
  H   H2204     1.0  0.68395  0.34259  0.44724  1.0000
  C   C2196     1.0  0.55638  0.35787  0.47350  1.0000
  C   C2197     1.0  0.82933  0.37178  0.45915  1.0000
  C   C2198     1.0  0.83958  0.38511  0.45542  1.0000
  N   N186      1.0  0.57318  0.36004  0.46393  1.0000
  H   H2205     1.0  0.65893  0.38400  0.24322  1.0000
  C   C2199     1.0  0.71039  0.64562  0.30427  1.0000
  H   H2206     1.0  0.55453  0.64693  0.27614  1.0000
  H   H2207     1.0  0.70575  0.64187  0.26471  1.0000
  C   C2200     1.0  0.71286  0.37373  0.23311  1.0000
  S   S748      1.0  0.49741  0.58909  0.36695  1.0000
  H   H2208     1.0  0.68813  0.36456  0.24508  1.0000
  C   C2201     1.0  0.97827  0.32464  0.46999  1.0000
  Fe  Fe376     1.0  0.66277  0.65092  0.26267  1.0000
  H   H2209     1.0  0.98091  0.32129  0.45653  1.0000
  H   H2210     1.0  0.64956  0.32665  0.47185  1.0000
  H   H2211     1.0  0.95205  0.52758  0.47668  1.0000
  C   C2202     1.0  0.72231  0.32124  0.46209  1.0000
  C   C2203     1.0  0.62045  0.33052  0.44501  1.0000
  C   C2204     1.0  0.51737  0.65132  0.34510  1.0000
  H   H2212     1.0  0.69173  0.33261  0.34221  1.0000
  H   H2213     1.0  0.60041  0.35872  0.46501  1.0000
  C   C2205     1.0  0.70206  0.32166  0.34795  1.0000
  Fe  Fe377     1.0  0.82028  0.34090  0.66360  1.0000
  H   H2214     1.0  0.65143  0.34582  0.56193  1.0000
  S   S749      1.0  0.81498  0.35807  0.68399  1.0000
  S   S750      1.0  0.86357  0.34943  0.60817  1.0000
  H   H2215     1.0  0.95394  0.54562  0.55676  1.0000
  Fe  Fe378     1.0  0.90648  0.61620  0.63232  1.0000
  S   S751      1.0  0.84838  0.32563  0.65658  1.0000
  H   H2216     1.0  0.94604  0.45521  0.48791  1.0000
  S   S752      1.0  0.81663  0.35061  0.63527  1.0000
  Fe  Fe379     1.0  0.89580  0.36425  0.51020  1.0000
  S   S753      1.0  0.87717  0.39099  0.51039  1.0000
  S   S754      1.0  0.88865  0.33881  0.52824  1.0000
  Fe  Fe380     1.0  0.90243  0.40162  0.50601  1.0000
  S   S755      1.0  0.90151  0.41907  0.52528  1.0000
  H   H2217     1.0  0.78674  0.33259  0.50952  1.0000
  S   S756      1.0  0.92073  0.37433  0.50793  1.0000
  H   H2218     1.0  0.86645  0.32141  0.68745  1.0000
  N   N187      1.0  0.91555  0.52050  0.50947  1.0000
  C   C2206     1.0  0.51904  0.33046  0.55059  1.0000
  C   C2207     1.0  0.85776  0.32248  0.70087  1.0000
  C   C2208     1.0  0.92740  0.54655  0.60569  1.0000
  H   H2219     1.0  0.64154  0.32895  0.60996  1.0000
  C   C2209     1.0  0.94122  0.52974  0.48815  1.0000
  C   C2210     1.0  0.90263  0.50853  0.51583  1.0000
  S   S757      1.0  0.92714  0.64814  0.58933  1.0000
  C   C2211     1.0  0.92653  0.43926  0.50384  1.0000
  S   S758      1.0  0.89698  0.59314  0.65358  1.0000
  S   S759      1.0  0.95100  0.60016  0.57749  1.0000
  S   S760      1.0  0.93629  0.61434  0.62260  1.0000
  Fe  Fe381     1.0  0.93589  0.51841  0.55545  1.0000
  S   S761      1.0  0.95034  0.50320  0.57754  1.0000
  S   S762      1.0  0.91698  0.54495  0.55767  1.0000
  Fe  Fe382     1.0  0.94994  0.48844  0.53401  1.0000
  S   S763      1.0  0.96623  0.47131  0.55401  1.0000
  S   S764      1.0  0.94893  0.47813  0.51000  1.0000
  Fe  Fe383     1.0  0.94164  0.47923  0.57455  1.0000
  S   S765      1.0  0.92761  0.45873  0.59490  1.0000
  Fe  Fe384     1.0  0.97351  0.49705  0.55476  1.0000
  C   C2212     1.0  0.84454  0.38360  0.55404  1.0000
  S   S766      1.0  0.92497  0.49514  0.55446  1.0000
  S   S767      1.0  0.95942  0.51363  0.53272  1.0000
  S   S768      1.0  0.58740  0.32262  0.53889  1.0000
  C   C2213     1.0  0.87861  0.35321  0.71457  1.0000
  C   C2214     1.0  0.51825  0.32167  0.56852  1.0000
  C   C2215     1.0  0.89952  0.56777  0.61515  1.0000
  H   H2220     1.0  0.92346  0.42205  0.60208  1.0000
  H   H2221     1.0  0.53954  0.35189  0.49991  1.0000
  Fe  Fe385     1.0  0.88321  0.41100  0.68820  1.0000
  S   S769      1.0  0.91160  0.40062  0.69221  1.0000
  S   S770      1.0  0.87669  0.40219  0.66601  1.0000
  H   H2222     1.0  0.86144  0.32096  0.59180  1.0000
  H   H2223     1.0  0.84944  0.48426  0.68001  1.0000
  H   H2224     1.0  0.96656  0.63505  0.60120  1.0000
  Fe  Fe386     1.0  0.91130  0.42929  0.69179  1.0000
  S   S771      1.0  0.93318  0.44410  0.67590  1.0000
  C   C2216     1.0  0.87084  0.48112  0.65676  1.0000
  S   S772      1.0  0.88388  0.43989  0.68552  1.0000
  H   H2225     1.0  0.50208  0.31876  0.59536  1.0000
  C   C2217     1.0  0.92613  0.41702  0.57598  1.0000
  H   H2226     1.0  0.92992  0.50780  0.48755  1.0000
  H   H2227     1.0  0.90989  0.47308  0.69555  1.0000
  S   S773      1.0  0.89949  0.36649  0.48078  1.0000
  H   H2228     1.0  0.86236  0.47890  0.64896  1.0000
  Fe  Fe387     1.0  0.84417  0.33379  0.62833  1.0000
  H   H2229     1.0  0.61112  0.33133  0.60500  1.0000
  C   C2218     1.0  0.56671  0.35138  0.50119  1.0000
  C   C2219     1.0  0.81740  0.34317  0.58841  1.0000
  S   S774      1.0  0.53823  0.32520  0.53374  1.0000
  C   C2220     1.0  0.93041  0.45423  0.61706  1.0000
  C   C2221     1.0  0.92017  0.44297  0.63009  1.0000
  C   C2222     1.0  0.92177  0.43918  0.64799  1.0000
  C   C2223     1.0  0.93336  0.44688  0.65306  1.0000
  C   C2224     1.0  0.94384  0.45801  0.64002  1.0000
  C   C2225     1.0  0.94234  0.46172  0.62196  1.0000
  H   H2230     1.0  0.91071  0.43739  0.62646  1.0000
  H   H2231     1.0  0.91386  0.43038  0.65786  1.0000
  H   H2232     1.0  0.95287  0.46395  0.64390  1.0000
  H   H2233     1.0  0.95038  0.47032  0.61189  1.0000
  C   C2226     1.0  0.88706  0.59540  0.67591  1.0000
  C   C2227     1.0  0.87068  0.59792  0.71180  1.0000
  C   C2228     1.0  0.87482  0.58138  0.70659  1.0000
  C   C2229     1.0  0.88290  0.58016  0.68870  1.0000
  C   C2230     1.0  0.86805  0.33069  0.58166  1.0000
  H   H2234     1.0  0.88599  0.56732  0.68476  1.0000
  C   C2231     1.0  0.94171  0.58565  0.57046  1.0000
  C   C2232     1.0  0.95285  0.57021  0.56483  1.0000
  C   C2233     1.0  0.94538  0.55776  0.56058  1.0000
  C   C2234     1.0  0.92682  0.56091  0.56161  1.0000
  C   C2235     1.0  0.91581  0.57668  0.56652  1.0000
  C   C2236     1.0  0.92323  0.58899  0.57101  1.0000
  H   H2235     1.0  0.96719  0.56762  0.56420  1.0000
  H   H2236     1.0  0.95275  0.52913  0.59720  1.0000
  H   H2237     1.0  0.90147  0.57928  0.56712  1.0000
  H   H2238     1.0  0.91465  0.60112  0.57475  1.0000
  H   H2239     1.0  0.89355  0.57200  0.62825  1.0000
  C   C2237     1.0  0.92612  0.54569  0.51203  1.0000
  H   H2240     1.0  0.91432  0.48182  0.65470  1.0000
  H   H2241     1.0  0.89241  0.38583  0.59955  1.0000
  C   C2238     1.0  0.50409  0.34340  0.54583  1.0000
  S   S775      1.0  0.90164  0.61798  0.60500  1.0000
  H   H2242     1.0  0.68272  0.32790  0.55853  1.0000
  H   H2243     1.0  0.62904  0.33815  0.54931  1.0000
  S   S776      1.0  0.90032  0.64617  0.63000  1.0000
  H   H2244     1.0  0.89678  0.57957  0.60423  1.0000
  C   C2239     1.0  0.91399  0.53404  0.51811  1.0000
  H   H2245     1.0  0.88922  0.46157  0.72439  1.0000
  H   H2246     1.0  0.88624  0.62376  0.67138  1.0000
  C   C2240     1.0  0.91472  0.43556  0.52037  1.0000
  H   H2247     1.0  0.98735  0.60649  0.57433  1.0000
  C   C2241     1.0  0.93605  0.46144  0.51427  1.0000
  C   C2242     1.0  0.92432  0.45760  0.53079  1.0000
  C   C2243     1.0  0.91351  0.44497  0.53369  1.0000
  H   H2248     1.0  0.92343  0.46446  0.54133  1.0000
  H   H2249     1.0  0.90424  0.44239  0.54642  1.0000
  H   H2250     1.0  0.89746  0.49542  0.69820  1.0000
  C   C2244     1.0  0.87487  0.61318  0.69905  1.0000
  C   C2245     1.0  0.95618  0.54975  0.60873  1.0000
  N   N188      1.0  0.91901  0.56116  0.61330  1.0000
  C   C2246     1.0  0.83298  0.35676  0.55868  1.0000
  C   C2247     1.0  0.87110  0.34549  0.58633  1.0000
  S   S777      1.0  0.78109  0.32662  0.62979  1.0000
  H   H2251     1.0  0.92507  0.55614  0.51919  1.0000
  C   C2248     1.0  0.88240  0.34105  0.55068  1.0000
  C   C2249     1.0  0.88551  0.35576  0.55542  1.0000
  C   C2250     1.0  0.87997  0.35789  0.57325  1.0000
  H   H2252     1.0  0.92610  0.40932  0.55161  1.0000
  C   C2251     1.0  0.90867  0.39647  0.57448  1.0000
  H   H2253     1.0  0.89212  0.36556  0.54535  1.0000
  H   H2254     1.0  0.88223  0.36937  0.57687  1.0000
  C   C2252     1.0  0.83158  0.37100  0.67892  1.0000
  C   C2253     1.0  0.84372  0.37200  0.66239  1.0000
  C   C2254     1.0  0.85732  0.38182  0.65854  1.0000
  C   C2255     1.0  0.85901  0.39059  0.67124  1.0000
  C   C2256     1.0  0.84684  0.38970  0.68778  1.0000
  C   C2257     1.0  0.83308  0.37995  0.69158  1.0000
  H   H2255     1.0  0.84254  0.36534  0.65245  1.0000
  H   H2256     1.0  0.86661  0.38251  0.64571  1.0000
  H   H2257     1.0  0.84793  0.39658  0.69757  1.0000
  H   H2258     1.0  0.82366  0.37926  0.70436  1.0000
  N   N189      1.0  0.82641  0.35735  0.57644  1.0000
  C   C2258     1.0  0.91930  0.41470  0.59448  1.0000
  H   H2259     1.0  0.91977  0.53975  0.60083  1.0000
  H   H2260     1.0  0.92727  0.33498  0.51399  1.0000
  C   C2259     1.0  0.90012  0.40156  0.62213  1.0000
  H   H2261     1.0  0.88714  0.41128  0.62457  1.0000
  C   C2260     1.0  0.55285  0.35366  0.49226  1.0000
  C   C2261     1.0  0.64294  0.33089  0.54727  1.0000
  S   S778      1.0  0.87055  0.40725  0.71758  1.0000
  C   C2262     1.0  0.87485  0.48638  0.68421  1.0000
  H   H2262     1.0  0.79854  0.58200  0.71591  1.0000
  C   C2263     1.0  0.93991  0.54339  0.49706  1.0000
  H   H2263     1.0  0.85183  0.39371  0.54539  1.0000
  C   C2264     1.0  0.94754  0.56478  0.61621  1.0000
  H   H2264     1.0  0.97071  0.54550  0.60661  1.0000
  C   C2265     1.0  0.83903  0.35944  0.48736  1.0000
  S   S779      1.0  0.81541  0.34283  0.48117  1.0000
  H   H2265     1.0  0.76657  0.32733  0.53964  1.0000
  H   H2266     1.0  0.50457  0.35024  0.53199  1.0000
  C   C2266     1.0  0.84956  0.37246  0.48345  1.0000
  H   H2267     1.0  0.86713  0.35405  0.69233  1.0000
  Fe  Fe388     1.0  0.87409  0.43535  0.71526  1.0000
  C   C2267     1.0  0.83819  0.38385  0.57224  1.0000
  Fe  Fe389     1.0  0.93106  0.61806  0.59513  1.0000
  H   H2268     1.0  0.82486  0.37046  0.59757  1.0000
  C   C2268     1.0  0.50260  0.32571  0.58154  1.0000
  H   H2269     1.0  0.85735  0.37258  0.49288  1.0000
  H   H2270     1.0  0.74887  0.32101  0.62354  1.0000
  C   C2269     1.0  0.93702  0.45232  0.50075  1.0000
  H   H2271     1.0  0.94970  0.55201  0.49255  1.0000
  H   H2272     1.0  0.89263  0.55732  0.61452  1.0000
  H   H2273     1.0  0.84749  0.36921  0.53319  1.0000
  Fe  Fe390     1.0  0.80685  0.32522  0.63858  1.0000
  C   C2270     1.0  0.86358  0.48418  0.67412  1.0000
  C   C2271     1.0  0.92868  0.51853  0.49442  1.0000
  H   H2274     1.0  0.83154  0.34591  0.55334  1.0000
  H   H2275     1.0  0.90355  0.53571  0.53001  1.0000
  S   S780      1.0  0.90161  0.42677  0.72149  1.0000
  H   H2276     1.0  0.83876  0.34960  0.49981  1.0000
  H   H2277     1.0  0.92226  0.58211  0.62402  1.0000
  H   H2278     1.0  0.90922  0.49477  0.51349  1.0000
  C   C2272     1.0  0.92885  0.57031  0.61841  1.0000
  H   H2279     1.0  0.89510  0.47766  0.63634  1.0000
  S   S781      1.0  0.85308  0.45659  0.72785  1.0000
  C   C2273     1.0  0.90469  0.48680  0.68829  1.0000
  C   C2274     1.0  0.97585  0.64197  0.60332  1.0000
  N   N190      1.0  0.96087  0.32086  0.48075  1.0000
  H   H2280     1.0  0.89131  0.51379  0.50867  1.0000
  H   H2281     1.0  0.95524  0.57241  0.61991  1.0000
  H   H2282     1.0  0.91642  0.49259  0.67998  1.0000
  N   N191      1.0  0.89283  0.48568  0.67715  1.0000
  C   C2275     1.0  0.93487  0.32714  0.50397  1.0000
  H   H2283     1.0  0.87173  0.62603  0.70298  1.0000
  C   C2276     1.0  0.92091  0.40767  0.56599  1.0000
  C   C2277     1.0  0.82920  0.37048  0.58334  1.0000
  C   C2278     1.0  0.90203  0.39450  0.59303  1.0000
  H   H2284     1.0  0.87182  0.56949  0.71630  1.0000
  H   H2285     1.0  0.86916  0.48832  0.69782  1.0000
  H   H2286     1.0  0.84065  0.39402  0.57785  1.0000
  C   C2279     1.0  0.88918  0.48044  0.64967  1.0000
  H   H2287     1.0  0.93525  0.42621  0.56943  1.0000
  H   H2288     1.0  0.84477  0.33179  0.69904  1.0000
  H   H2289     1.0  0.90944  0.40408  0.62928  1.0000
  H   H2290     1.0  0.89770  0.38777  0.62837  1.0000
  N   N192      1.0  0.90758  0.40338  0.60280  1.0000
  H   H2291     1.0  0.81025  0.33776  0.58116  1.0000
  H   H2292     1.0  0.88134  0.36667  0.70961  1.0000
  Fe  Fe391     1.0  0.88303  0.39416  0.48053  1.0000
  C   C2280     1.0  0.84202  0.36992  0.54720  1.0000
  C   C2281     1.0  0.88309  0.61194  0.68114  1.0000
  H   H2293     1.0  0.95624  0.34185  0.49505  1.0000
  H   H2294     1.0  0.92756  0.43211  0.49346  1.0000
  H   H2295     1.0  0.98368  0.53462  0.54092  1.0000
  H   H2296     1.0  0.89723  0.50711  0.53051  1.0000
  Fe  Fe392     1.0  0.89799  0.64789  0.60173  1.0000
  C   C2282     1.0  0.87050  0.34606  0.70489  1.0000
  Fe  Fe393     1.0  0.92986  0.64437  0.61776  1.0000
  C   C2283     1.0  0.94607  0.54051  0.60350  1.0000
  C   C2284     1.0  0.87380  0.32842  0.56380  1.0000
  C   C2285     1.0  0.58392  0.35317  0.49134  1.0000
  C   C2286     1.0  0.90002  0.48275  0.66013  1.0000
  H   H2297     1.0  0.80710  0.34835  0.59956  1.0000
  H   H2298     1.0  0.90426  0.38955  0.56662  1.0000
  C   C2287     1.0  0.95133  0.33079  0.49336  1.0000
  Fe  Fe394     1.0  0.89911  0.39906  0.72136  1.0000
  H   H2299     1.0  0.82750  0.33206  0.59421  1.0000
  C   C2288     1.0  0.67307  0.32515  0.55241  1.0000
  H   H2300     1.0  0.56409  0.34801  0.51574  1.0000
  C   C2289     1.0  0.65549  0.33519  0.55434  1.0000
  H   H2301     1.0  0.59495  0.35079  0.49816  1.0000
  N   N193      1.0  0.86679  0.32922  0.71113  1.0000
  C   C2290     1.0  0.78562  0.31901  0.51668  1.0000
  C   C2291     1.0  0.63956  0.32043  0.60210  1.0000
  C   C2292     1.0  0.62234  0.32180  0.59927  1.0000
  C   C2293     1.0  0.87150  0.31885  0.72670  1.0000
  C   C2294     1.0  0.98399  0.48668  0.93249  1.0000
  H   H2302     1.0  0.65803  0.54472  0.94789  1.0000
  H   H2303     1.0  0.56149  0.55301  0.97425  1.0000
  H   H2304     1.0  0.71315  0.58280  0.96764  1.0000
  C   C2295     1.0  0.93094  0.39357  0.74578  1.0000
  C   C2296     1.0  0.81091  0.61412  0.74460  1.0000
  H   H2305     1.0  0.98566  0.33262  0.88556  1.0000
  Fe  Fe395     1.0  0.82475  0.55366  0.77261  1.0000
  Fe  Fe396     1.0  0.57898  0.55956  0.88688  1.0000
  S   S782      1.0  0.59222  0.55550  0.85883  1.0000
  S   S783      1.0  0.58507  0.53796  0.91096  1.0000
  Fe  Fe397     1.0  0.55736  0.59605  0.87406  1.0000
  S   S784      1.0  0.56916  0.59550  0.84517  1.0000
  S   S785      1.0  0.53725  0.62034  0.88122  1.0000
  Fe  Fe398     1.0  0.56475  0.56728  0.85249  1.0000
  S   S786      1.0  0.55377  0.56071  0.83162  1.0000
  Fe  Fe399     1.0  0.59542  0.58403  0.85379  1.0000
  S   S787      1.0  0.62027  0.59291  0.83580  1.0000
  S   S788      1.0  0.55105  0.56852  0.88105  1.0000
  S   S789      1.0  0.58400  0.58740  0.88216  1.0000
  Fe  Fe400     1.0  0.72401  0.62408  0.81740  1.0000
  S   S790      1.0  0.73262  0.61643  0.79045  1.0000
  Fe  Fe401     1.0  0.69817  0.61911  0.85329  1.0000
  C   C2297     1.0  0.50334  0.63610  0.83867  1.0000
  S   S791      1.0  0.67615  0.60672  0.87305  1.0000
  Fe  Fe402     1.0  0.73528  0.62548  0.85061  1.0000
  S   S792      1.0  0.75972  0.61773  0.86299  1.0000
  H   H2306     1.0  0.93099  0.40006  0.73192  1.0000
  S   S793      1.0  0.72593  0.60418  0.84325  1.0000
  H   H2307     1.0  0.58985  0.57185  0.91561  1.0000
  C   C2298     1.0  0.87535  0.45617  0.77668  1.0000
  H   H2308     1.0  0.93021  0.32691  0.73747  1.0000
  C   C2299     1.0  0.90096  0.57094  0.81133  1.0000
  H   H2309     1.0  0.88782  0.57302  0.82093  1.0000
  Fe  Fe403     1.0  0.85168  0.55587  0.79276  1.0000
  S   S794      1.0  0.85381  0.55920  0.81965  1.0000
  S   S795      1.0  0.84219  0.53256  0.78942  1.0000
  Fe  Fe404     1.0  0.92409  0.50218  0.87551  1.0000
  S   S796      1.0  0.91432  0.47840  0.89450  1.0000
  S   S797      1.0  0.92115  0.50665  0.84692  1.0000
  Fe  Fe405     1.0  0.94389  0.50776  0.90185  1.0000
  S   S798      1.0  0.93599  0.48412  0.92244  1.0000
  S   S799      1.0  0.96253  0.52292  0.90664  1.0000
  Fe  Fe406     1.0  0.94232  0.46985  0.89959  1.0000
  S   S800      1.0  0.96102  0.44294  0.89785  1.0000
  Fe  Fe407     1.0  0.90888  0.49517  0.91524  1.0000
  S   S801      1.0  0.88496  0.49638  0.93814  1.0000
  S   S802      1.0  0.95249  0.49266  0.87946  1.0000
  S   S803      1.0  0.91636  0.51987  0.89585  1.0000
  C   C2300     1.0  0.89597  0.59045  0.75701  1.0000
  C   C2301     1.0  0.54544  0.58768  0.92318  1.0000
  H   H2310     1.0  0.76801  0.59861  0.74496  1.0000
  Fe  Fe408     1.0  0.95000  0.37187  0.85045  1.0000
  S   S804      1.0  0.97190  0.38302  0.82941  1.0000
  S   S805      1.0  0.93341  0.38631  0.87252  1.0000
  Fe  Fe409     1.0  0.95355  0.34012  0.83298  1.0000
  S   S806      1.0  0.97561  0.34902  0.81065  1.0000
  C   C2302     1.0  0.96762  0.47239  0.96062  1.0000
  H   H2311     1.0  0.51120  0.53270  0.81854  1.0000
  H   H2312     1.0  0.95963  0.44836  0.95983  1.0000
  Fe  Fe410     1.0  0.95871  0.37663  0.81032  1.0000
  S   S807      1.0  0.95510  0.39567  0.78436  1.0000
  S   S808      1.0  0.96568  0.34338  0.85460  1.0000
  S   S809      1.0  0.93560  0.36753  0.83110  1.0000
  H   H2313     1.0  0.92057  0.34002  0.81687  1.0000
  H   H2314     1.0  0.57623  0.52792  0.81047  1.0000
  H   H2315     1.0  0.55752  0.61326  0.94511  1.0000
  Fe  Fe411     1.0  0.79913  0.56774  0.94846  1.0000
  S   S810      1.0  0.79629  0.59571  0.95225  1.0000
  S   S811      1.0  0.81888  0.55977  0.92398  1.0000
  H   H2316     1.0  0.89370  0.45885  0.85640  1.0000
  H   H2317     1.0  0.54147  0.58848  0.91076  1.0000
  Fe  Fe412     1.0  0.76659  0.59689  0.95760  1.0000
  S   S812      1.0  0.74571  0.61832  0.94542  1.0000
  C   C2303     1.0  0.94993  0.34569  0.74463  1.0000
  S   S813      1.0  0.76956  0.57009  0.95117  1.0000
  C   C2304     1.0  0.71836  0.54266  0.96520  1.0000
  H   H2318     1.0  0.96532  0.32527  0.78955  1.0000
  S   S814      1.0  0.73562  0.64435  0.82384  1.0000
  H   H2319     1.0  0.92861  0.52185  0.96854  1.0000
  C   C2305     1.0  0.91153  0.57853  0.76122  1.0000
  H   H2320     1.0  0.97515  0.54580  0.95367  1.0000
  H   H2321     1.0  0.57492  0.52420  0.85610  1.0000
  C   C2306     1.0  0.94206  0.38941  0.77289  1.0000
  C   C2307     1.0  0.93221  0.37589  0.78121  1.0000
  C   C2308     1.0  0.92146  0.37147  0.77192  1.0000
  C   C2309     1.0  0.92067  0.38046  0.75426  1.0000
  C   C2310     1.0  0.90886  0.32550  0.80444  1.0000
  N   N194      1.0  0.98244  0.47392  0.92430  1.0000
  H   H2322     1.0  0.93276  0.36890  0.79482  1.0000
  H   H2323     1.0  0.91366  0.36119  0.77846  1.0000
  S   S815      1.0  0.83251  0.57696  0.77790  1.0000
  H   H2324     1.0  0.89970  0.46050  0.78116  1.0000
  H   H2325     1.0  0.73172  0.57861  0.97815  1.0000
  H   H2326     1.0  0.63474  0.53358  0.94047  1.0000
  C   C2311     1.0  0.87438  0.49633  0.74622  1.0000
  C   C2312     1.0  0.95797  0.52755  0.92831  1.0000
  C   C2313     1.0  0.95141  0.53437  0.96313  1.0000
  C   C2314     1.0  0.94000  0.52588  0.95858  1.0000
  C   C2315     1.0  0.94329  0.52243  0.94128  1.0000
  S   S816      1.0  0.70763  0.63892  0.86270  1.0000
  H   H2327     1.0  0.93444  0.51581  0.93798  1.0000
  C   C2316     1.0  0.95327  0.42776  0.89008  1.0000
  C   C2317     1.0  0.96564  0.41554  0.88032  1.0000
  C   C2318     1.0  0.95970  0.40305  0.87439  1.0000
  C   C2319     1.0  0.94141  0.40235  0.87875  1.0000
  C   C2320     1.0  0.92909  0.41449  0.88860  1.0000
  C   C2321     1.0  0.93495  0.42734  0.89401  1.0000
  H   H2328     1.0  0.97984  0.41581  0.87725  1.0000
  H   H2329     1.0  0.96930  0.39377  0.86678  1.0000
  H   H2330     1.0  0.91495  0.41392  0.89211  1.0000
  H   H2331     1.0  0.92536  0.43650  0.90177  1.0000
  C   C2322     1.0  0.86626  0.51338  0.93382  1.0000
  C   C2323     1.0  0.85144  0.51646  0.94785  1.0000
  C   C2324     1.0  0.83669  0.53049  0.94487  1.0000
  C   C2325     1.0  0.83675  0.54157  0.92788  1.0000
  C   C2326     1.0  0.85148  0.53835  0.91378  1.0000
  C   C2327     1.0  0.86620  0.52426  0.91673  1.0000
  H   H2332     1.0  0.85138  0.50798  0.96105  1.0000
  H   H2333     1.0  0.82527  0.53264  0.95573  1.0000
  H   H2334     1.0  0.85160  0.54686  0.90060  1.0000
  H   H2335     1.0  0.87745  0.52181  0.90578  1.0000
  C   C2328     1.0  0.87128  0.54317  0.82821  1.0000
  C   C2329     1.0  0.87399  0.54276  0.84524  1.0000
  C   C2330     1.0  0.88899  0.53116  0.85145  1.0000
  C   C2331     1.0  0.90136  0.52012  0.84052  1.0000
  C   C2332     1.0  0.89841  0.52031  0.82367  1.0000
  C   C2333     1.0  0.88335  0.53171  0.81758  1.0000
  H   H2336     1.0  0.86472  0.55165  0.85351  1.0000
  H   H2337     1.0  0.89120  0.53106  0.86447  1.0000
  H   H2338     1.0  0.90794  0.51175  0.81520  1.0000
  H   H2339     1.0  0.88133  0.53188  0.80447  1.0000
  H   H2340     1.0  0.53868  0.55308  0.97339  1.0000
  C   C2334     1.0  0.90305  0.43402  0.77598  1.0000
  N   N195      1.0  0.57165  0.51152  0.83672  1.0000
  H   H2341     1.0  0.85981  0.42293  0.75529  1.0000
  H   H2342     1.0  0.86943  0.60436  0.76758  1.0000
  C   C2335     1.0  0.74969  0.59716  0.78874  1.0000
  C   C2336     1.0  0.76599  0.59522  0.79396  1.0000
  C   C2337     1.0  0.78052  0.58114  0.78964  1.0000
  C   C2338     1.0  0.77849  0.56878  0.78062  1.0000
  C   C2339     1.0  0.76192  0.57030  0.77627  1.0000
  C   C2340     1.0  0.74770  0.58462  0.78000  1.0000
  H   H2343     1.0  0.76763  0.60502  0.80054  1.0000
  H   H2344     1.0  0.79326  0.57999  0.79309  1.0000
  C   C2341     1.0  0.75540  0.61687  0.88618  1.0000
  C   C2342     1.0  0.76982  0.61151  0.89504  1.0000
  C   C2343     1.0  0.76676  0.61127  0.91342  1.0000
  C   C2344     1.0  0.74934  0.61695  0.92288  1.0000
  C   C2345     1.0  0.73492  0.62234  0.91406  1.0000
  C   C2346     1.0  0.73793  0.62206  0.89580  1.0000
  H   H2345     1.0  0.78340  0.60754  0.88769  1.0000
  H   H2346     1.0  0.77798  0.60714  0.92015  1.0000
  C   C2347     1.0  0.59245  0.56167  0.92716  1.0000
  H   H2347     1.0  0.88829  0.54026  0.93134  1.0000
  C   C2348     1.0  0.63608  0.59566  0.84653  1.0000
  C   C2349     1.0  0.63172  0.59603  0.86481  1.0000
  C   C2350     1.0  0.64420  0.59921  0.87292  1.0000
  C   C2351     1.0  0.66113  0.60192  0.86281  1.0000
  C   C2352     1.0  0.66563  0.60137  0.84457  1.0000
  C   C2353     1.0  0.65310  0.59822  0.83645  1.0000
  H   H2348     1.0  0.61864  0.59420  0.87265  1.0000
  H   H2349     1.0  0.64062  0.59982  0.88700  1.0000
  H   H2350     1.0  0.67877  0.60326  0.83673  1.0000
  H   H2351     1.0  0.65658  0.59783  0.82232  1.0000
  C   C2354     1.0  0.52269  0.62613  0.86622  1.0000
  C   C2355     1.0  0.59868  0.53568  0.95784  1.0000
  C   C2356     1.0  0.52198  0.61335  0.85706  1.0000
  H   H2352     1.0  0.98099  0.53977  0.92292  1.0000
  H   H2353     1.0  0.52921  0.59967  0.86025  1.0000
  N   N196      1.0  0.87726  0.42775  0.76946  1.0000
  H   H2354     1.0  0.96141  0.47213  0.97467  1.0000
  C   C2357     1.0  0.55204  0.49092  0.84178  1.0000
  H   H2355     1.0  0.59586  0.58043  0.94111  1.0000
  C   C2358     1.0  0.51436  0.52309  0.84591  1.0000
  C   C2359     1.0  0.51711  0.53420  0.82891  1.0000
  C   C2360     1.0  0.52869  0.54630  0.82491  1.0000
  C   C2361     1.0  0.53717  0.54766  0.83800  1.0000
  C   C2362     1.0  0.53352  0.53738  0.85533  1.0000
  C   C2363     1.0  0.52229  0.52494  0.85920  1.0000
  C   C2364     1.0  0.58278  0.51942  0.84369  1.0000
  S   S817      1.0  0.79648  0.55192  0.77342  1.0000
  H   H2356     1.0  0.53998  0.53840  0.86550  1.0000
  H   H2357     1.0  0.52016  0.51636  0.87238  1.0000
  H   H2358     1.0  0.73517  0.58610  0.77591  1.0000
  C   C2365     1.0  0.59163  0.54392  0.92805  1.0000
  C   C2366     1.0  0.59523  0.53083  0.94325  1.0000
  N   N197      1.0  0.94348  0.33134  0.75600  1.0000
  C   C2367     1.0  0.96633  0.53919  0.95029  1.0000
  H   H2359     1.0  0.59475  0.51701  0.94400  1.0000
  H   H2360     1.0  0.54844  0.61521  0.91646  1.0000
  C   C2368     1.0  0.51305  0.64376  0.86214  1.0000
  H   H2361     1.0  0.53157  0.55419  0.81145  1.0000
  H   H2362     1.0  0.89930  0.33722  0.79965  1.0000
  C   C2369     1.0  0.86874  0.41546  0.76484  1.0000
  H   H2363     1.0  0.69233  0.55344  0.92719  1.0000
  H   H2364     1.0  0.54453  0.48118  0.85089  1.0000
  H   H2365     1.0  0.71838  0.54677  0.95100  1.0000
  H   H2366     1.0  0.90993  0.57834  0.81406  1.0000
  C   C2370     1.0  0.86750  0.44429  0.77215  1.0000
  H   H2367     1.0  0.97694  0.35171  0.76916  1.0000
  S   S818      1.0  0.87439  0.55521  0.76874  1.0000
  C   C2371     1.0  0.89429  0.53901  0.94304  1.0000
  H   H2368     1.0  0.91580  0.33271  0.75801  1.0000
  H   H2369     1.0  0.67271  0.57081  0.89333  1.0000
  C   C2372     1.0  0.51229  0.61830  0.84337  1.0000
  C   C2373     1.0  0.96798  0.34563  0.76525  1.0000
  C   C2374     1.0  0.98780  0.34108  0.89341  1.0000
  C   C2375     1.0  0.78014  0.60291  0.74476  1.0000
  H   H2370     1.0  0.82309  0.61839  0.74434  1.0000
  H   H2371     1.0  0.72141  0.62662  0.92138  1.0000
  H   H2372     1.0  0.54417  0.55984  0.93311  1.0000
  H   H2373     1.0  0.89473  0.59546  0.74309  1.0000
  H   H2374     1.0  0.96863  0.42675  0.82997  1.0000
  C   C2376     1.0  0.96956  0.53584  0.93289  1.0000
  H   H2375     1.0  0.85901  0.55272  0.94564  1.0000
  C   C2377     1.0  0.97429  0.45998  0.93404  1.0000
  C   C2378     1.0  0.97651  0.48619  0.95072  1.0000
  C   C2379     1.0  0.55529  0.58547  0.95513  1.0000
  H   H2376     1.0  0.90217  0.40908  0.77031  1.0000
  H   H2377     1.0  0.90749  0.54317  0.93769  1.0000
  N   N198      1.0  0.92236  0.45126  0.85270  1.0000
  C   C2380     1.0  0.92350  0.43629  0.84630  1.0000
  C   C2381     1.0  0.93756  0.45735  0.85149  1.0000
  C   C2382     1.0  0.94010  0.42745  0.83777  1.0000
  C   C2383     1.0  0.95440  0.44873  0.84321  1.0000
  C   C2384     1.0  0.95563  0.43374  0.83621  1.0000
  C   C2385     1.0  0.90489  0.46015  0.86188  1.0000
  H   H2378     1.0  0.91162  0.43088  0.84806  1.0000
  H   H2379     1.0  0.93676  0.46885  0.85709  1.0000
  H   H2380     1.0  0.94093  0.41547  0.83290  1.0000
  H   H2381     1.0  0.89651  0.52462  0.94989  1.0000
  C   C2386     1.0  0.73329  0.54334  0.97150  1.0000
  H   H2382     1.0  0.72673  0.62599  0.88922  1.0000
  C   C2387     1.0  0.79407  0.62340  0.75203  1.0000
  H   H2383     1.0  0.55947  0.58463  0.96748  1.0000
  N   N199      1.0  0.80229  0.56549  0.85224  1.0000
  C   C2388     1.0  0.78552  0.57309  0.86059  1.0000
  C   C2389     1.0  0.81559  0.55768  0.86177  1.0000
  C   C2390     1.0  0.78154  0.57238  0.87909  1.0000
  C   C2391     1.0  0.81211  0.55693  0.88027  1.0000
  C   C2392     1.0  0.79494  0.56430  0.88895  1.0000
  C   C2393     1.0  0.80634  0.56645  0.83281  1.0000
  H   H2384     1.0  0.77510  0.57989  0.85300  1.0000
  H   H2385     1.0  0.82902  0.55204  0.85507  1.0000
  H   H2386     1.0  0.76821  0.57838  0.88566  1.0000
  H   H2387     1.0  0.82263  0.55079  0.88789  1.0000
  H   H2388     1.0  0.79209  0.56391  0.90328  1.0000
  H   H2389     1.0  0.81326  0.57778  0.82578  1.0000
  H   H2390     1.0  0.81534  0.55381  0.82938  1.0000
  H   H2391     1.0  0.79394  0.56832  0.82765  1.0000
  C   C2394     1.0  0.55431  0.60167  0.94250  1.0000
  H   H2392     1.0  0.59497  0.50935  0.84668  1.0000
  C   C2395     1.0  0.96144  0.33089  0.77668  1.0000
  N   N200      1.0  0.79673  0.59353  0.73804  1.0000
  C   C2396     1.0  0.97523  0.35699  0.89563  1.0000
  H   H2393     1.0  0.96696  0.36475  0.74027  1.0000
  C   C2397     1.0  0.54680  0.57161  0.93597  1.0000
  C   C2398     1.0  0.77855  0.61786  0.75202  1.0000
  H   H2394     1.0  0.49510  0.60512  0.81664  1.0000
  H   H2395     1.0  0.91703  0.42979  0.77733  1.0000
  S   S819      1.0  0.69512  0.63714  0.82671  1.0000
  H   H2396     1.0  0.78659  0.57106  0.73722  1.0000
  H   H2397     1.0  0.53396  0.62634  0.80495  1.0000
  N   N201      1.0  0.88256  0.55007  0.95565  1.0000
  C   C2399     1.0  0.92092  0.32711  0.81415  1.0000
  C   C2400     1.0  0.88956  0.55392  0.96811  1.0000
  H   H2398     1.0  0.90428  0.47480  0.86005  1.0000
  H   H2399     1.0  0.98402  0.46704  0.89926  1.0000
  S   S820      1.0  0.59876  0.56090  0.97643  1.0000
  H   H2400     1.0  0.56429  0.49415  0.86185  1.0000
  H   H2401     1.0  0.97719  0.49674  0.95699  1.0000
  H   H2402     1.0  0.49898  0.57355  0.83342  1.0000
  S   S821      1.0  0.68445  0.53721  0.96900  1.0000
  Fe  Fe413     1.0  0.98652  0.35427  0.83198  1.0000
  H   H2403     1.0  0.96642  0.45349  0.84252  1.0000
  H   H2404     1.0  0.84647  0.50778  0.75549  1.0000
  C   C2401     1.0  0.65110  0.55672  0.89920  1.0000
  H   H2405     1.0  0.86066  0.40847  0.77715  1.0000
  C   C2402     1.0  0.55237  0.55390  0.96519  1.0000
  N   N202      1.0  0.55171  0.57067  0.95168  1.0000
  H   H2406     1.0  0.98709  0.48918  0.89763  1.0000
  H   H2407     1.0  0.76025  0.56072  0.76943  1.0000
  C   C2403     1.0  0.92911  0.32505  0.75214  1.0000
  C   C2404     1.0  0.96239  0.35295  0.74900  1.0000
  S   S822      1.0  0.84498  0.55271  0.74666  1.0000
  H   H2408     1.0  0.58712  0.53133  0.83400  1.0000
  C   C2405     1.0  0.56982  0.51721  0.81923  1.0000
  S   S823      1.0  0.90669  0.37541  0.74294  1.0000
  H   H2409     1.0  0.68509  0.57619  0.91540  1.0000
  C   C2406     1.0  0.65610  0.54823  0.93418  1.0000
  C   C2407     1.0  0.64288  0.54187  0.93006  1.0000
  C   C2408     1.0  0.94146  0.39819  0.75514  1.0000
  H   H2410     1.0  0.55710  0.51483  0.79893  1.0000
  C   C2409     1.0  0.56308  0.49843  0.84792  1.0000
  H   H2411     1.0  0.92248  0.57428  0.75058  1.0000
  H   H2412     1.0  0.94484  0.35212  0.73248  1.0000
  Fe  Fe414     1.0  0.86323  0.53366  0.76395  1.0000
  Fe  Fe415     1.0  0.85441  0.57428  0.75339  1.0000
  H   H2413     1.0  0.62995  0.54153  0.90913  1.0000
  N   N203      1.0  0.66648  0.55868  0.92113  1.0000
  C   C2410     1.0  0.64028  0.54627  0.91247  1.0000
  C   C2411     1.0  0.81200  0.59916  0.73755  1.0000
  C   C2412     1.0  0.68058  0.56474  0.92575  1.0000
  H   H2414     1.0  0.67554  0.56927  0.93874  1.0000
  C   C2413     1.0  0.66429  0.56277  0.90377  1.0000
  H   H2415     1.0  0.64929  0.56013  0.88544  1.0000
  C   C2414     1.0  0.55897  0.50990  0.81262  1.0000
  C   C2415     1.0  0.54995  0.49675  0.82404  1.0000
  H   H2416     1.0  0.51237  0.60841  0.83604  1.0000
  H   H2417     1.0  0.54087  0.49149  0.81936  1.0000
  H   H2418     1.0  0.90270  0.45409  0.87645  1.0000
  C   C2416     1.0  0.88176  0.59548  0.77079  1.0000
  C   C2417     1.0  0.85581  0.49774  0.74862  1.0000
  H   H2419     1.0  0.92491  0.56277  0.78243  1.0000
  N   N204      1.0  0.89881  0.57711  0.79266  1.0000
  H   H2420     1.0  0.94926  0.40848  0.74857  1.0000
  C   C2418     1.0  0.54930  0.60275  0.92644  1.0000
  C   C2419     1.0  0.89334  0.45111  0.77827  1.0000
  H   H2421     1.0  0.87893  0.40518  0.75817  1.0000
  C   C2420     1.0  0.59587  0.56653  0.94168  1.0000
  H   H2422     1.0  0.97317  0.44977  0.92758  1.0000
  H   H2423     1.0  0.79302  0.63486  0.75778  1.0000
  C   C2421     1.0  0.88338  0.58860  0.78866  1.0000
  H   H2424     1.0  0.87215  0.59232  0.79930  1.0000
  C   C2422     1.0  0.91276  0.57200  0.77923  1.0000
  H   H2425     1.0  0.90686  0.55630  0.81409  1.0000
  H   H2426     1.0  0.60064  0.52568  0.96986  1.0000
  H   H2427     1.0  0.74474  0.54777  0.96214  1.0000
  H   H2428     1.0  0.76535  0.62482  0.75794  1.0000
  C   C2423     1.0  0.94926  0.32380  0.77171  1.0000
  H   H2429     1.0  0.85367  0.44855  0.77036  1.0000
  C   C2424     1.0  0.59853  0.55366  0.95722  1.0000
  H   H2430     1.0  0.65679  0.63861  0.84918  1.0000
  C   C2425     1.0  0.96661  0.45910  0.95230  1.0000
  C   C2426     1.0  0.89465  0.42238  0.77180  1.0000
  H   H2431     1.0  0.86770  0.46945  0.77841  1.0000
  S   S824      1.0  0.88304  0.50972  0.75521  1.0000
  H   H2432     1.0  0.96841  0.38047  0.90728  1.0000
  H   H2433     1.0  0.96344  0.36080  0.88963  1.0000
  S   S825      1.0  0.50304  0.50536  0.85021  1.0000
  H   H2434     1.0  0.83897  0.57063  0.96745  1.0000
  C   C2427     1.0  0.85321  0.56603  0.96768  1.0000
  C   C2428     1.0  0.86462  0.55587  0.95540  1.0000
  H   H2435     1.0  0.83494  0.48654  0.74490  1.0000
  H   H2436     1.0  0.63192  0.63527  0.83082  1.0000
  C   C2429     1.0  0.99003  0.47503  0.90508  1.0000
  H   H2437     1.0  0.90376  0.54918  0.96846  1.0000
  H   H2438     1.0  0.55773  0.54208  0.95868  1.0000
  C   C2430     1.0  0.97801  0.36805  0.90554  1.0000
  H   H2439     1.0  0.99051  0.49771  0.92477  1.0000
  S   S826      1.0  0.86018  0.59982  0.73412  1.0000
  C   C2431     1.0  0.84931  0.48568  0.74267  1.0000
  H   H2440     1.0  0.54746  0.62851  0.82784  1.0000
  C   C2432     1.0  0.88636  0.48328  0.73737  1.0000
  H   H2441     1.0  0.63581  0.65013  0.80921  1.0000
  H   H2442     1.0  0.65456  0.63566  0.81795  1.0000
  C   C2433     1.0  0.64101  0.64410  0.82173  1.0000
  H   H2443     1.0  0.82517  0.59204  0.73179  1.0000
  H   H2444     1.0  0.90073  0.48217  0.73549  1.0000
  H   H2445     1.0  0.55011  0.63484  0.78565  1.0000
  S   S827      1.0  0.79873  0.55484  0.97742  1.0000
  C   C2434     1.0  0.53802  0.63870  0.79595  1.0000
  C   C2435     1.0  0.70341  0.53681  0.97719  1.0000
  H   H2446     1.0  0.52653  0.64593  0.78933  1.0000
  C   C2436     1.0  0.54669  0.64271  0.82224  1.0000
  H   H2447     1.0  0.88920  0.34835  0.73843  1.0000
  H   H2448     1.0  0.81041  0.56761  0.73297  1.0000
  C   C2437     1.0  0.79812  0.57786  0.73054  1.0000
  C   C2438     1.0  0.86134  0.47235  0.73417  1.0000
  H   H2449     1.0  0.76250  0.65017  0.90883  1.0000
  C   C2439     1.0  0.50345  0.64879  0.84825  1.0000
  H   H2450     1.0  0.55345  0.64755  0.84521  1.0000
  C   C2440     1.0  0.71723  0.58506  0.97924  1.0000
  H   H2451     1.0  0.71582  0.59972  0.97809  1.0000
  C   C2441     1.0  0.87985  0.47145  0.73124  1.0000
  S   S828      1.0  0.49322  0.64224  0.82002  1.0000
  N   N205      1.0  0.54183  0.65008  0.80605  1.0000
  C   C2442     1.0  0.87965  0.32555  0.73674  1.0000
  C   C2443     1.0  0.88308  0.34291  0.73068  1.0000
  C   C2444     1.0  0.96237  0.71273  0.10173  1.0000
  N   N206      1.0  0.88166  0.79340  0.17780  1.0000
  H   H2452     1.0  0.91095  0.68274  0.11260  1.0000
  H   H2453     1.0  0.83537  0.67270  0.08391  1.0000
  C   C2445     1.0  0.96341  0.69027  0.06831  1.0000
  H   H2454     1.0  0.87540  0.73611  0.18751  1.0000
  H   H2455     1.0  0.89067  0.76862  0.16857  1.0000
  Fe  Fe416     1.0  0.91887  0.86447  0.10142  1.0000
  S   S829      1.0  0.94826  0.85883  0.10168  1.0000
  S   S830      1.0  0.90090  0.84548  0.11825  1.0000
  Fe  Fe417     1.0  0.91862  0.90308  0.08062  1.0000
  S   S831      1.0  0.94802  0.90074  0.07935  1.0000
  S   S832      1.0  0.89835  0.92810  0.07221  1.0000
  Fe  Fe418     1.0  0.95136  0.87355  0.07298  1.0000
  H   H2456     1.0  0.87980  0.91673  0.19210  1.0000
  Fe  Fe419     1.0  0.94247  0.88616  0.10806  1.0000
  S   S833      1.0  0.95369  0.88839  0.13075  1.0000
  S   S834      1.0  0.92217  0.87701  0.07202  1.0000
  S   S835      1.0  0.91287  0.89074  0.10995  1.0000
  Fe  Fe420     1.0  0.87045  0.74381  0.14562  1.0000
  S   S836      1.0  0.90028  0.74246  0.13986  1.0000
  S   S837      1.0  0.84898  0.75727  0.16608  1.0000
  Fe  Fe421     1.0  0.87211  0.72809  0.11351  1.0000
  S   S838      1.0  0.90184  0.72583  0.10463  1.0000
  S   S839      1.0  0.85597  0.72079  0.09741  1.0000
  Fe  Fe422     1.0  0.90246  0.71552  0.13370  1.0000
  S   S840      1.0  0.92394  0.69137  0.14017  1.0000
  Fe  Fe423     1.0  0.89764  0.75287  0.11119  1.0000
  S   S841      1.0  0.91440  0.77228  0.09284  1.0000
  S   S842      1.0  0.87282  0.71563  0.14233  1.0000
  S   S843      1.0  0.86761  0.75643  0.11720  1.0000
  Fe  Fe424     1.0  0.90248  0.94288  0.20299  1.0000
  H   H2457     1.0  0.88872  0.79026  0.21920  1.0000
  S   S844      1.0  0.90138  0.94566  0.17414  1.0000
  H   H2458     1.0  0.90370  0.86400  0.14601  1.0000
  C   C2446     1.0  0.87076  0.81012  0.17556  1.0000
  H   H2459     1.0  0.86838  0.65605  0.12335  1.0000
  S   S845      1.0  0.97442  0.86558  0.05057  1.0000
  C   C2447     1.0  0.94466  0.69432  0.12582  1.0000
  C   C2448     1.0  0.94617  0.71072  0.11394  1.0000
  H   H2460     1.0  0.88039  0.73893  0.21649  1.0000
  C   C2449     1.0  0.95964  0.68010  0.12580  1.0000
  H   H2461     1.0  0.93488  0.72193  0.11414  1.0000
  C   C2450     1.0  0.87412  0.94171  0.03293  1.0000
  H   H2462     1.0  0.95860  0.66745  0.13511  1.0000
  C   C2451     1.0  0.90432  0.82554  0.11057  1.0000
  C   C2452     1.0  0.89363  0.81289  0.11981  1.0000
  C   C2453     1.0  0.89654  0.79656  0.11433  1.0000
  C   C2454     1.0  0.91003  0.79296  0.09943  1.0000
  C   C2455     1.0  0.92045  0.80580  0.08992  1.0000
  C   C2456     1.0  0.91770  0.82203  0.09556  1.0000
  H   H2463     1.0  0.88305  0.81579  0.13118  1.0000
  H   H2464     1.0  0.88830  0.78681  0.12152  1.0000
  H   H2465     1.0  0.93069  0.80317  0.07820  1.0000
  H   H2466     1.0  0.92588  0.83182  0.08827  1.0000
  C   C2457     1.0  0.93965  0.90469  0.14261  1.0000
  C   C2458     1.0  0.92626  0.91759  0.13512  1.0000
  C   C2459     1.0  0.91487  0.93034  0.14480  1.0000
  C   C2460     1.0  0.91668  0.93015  0.16207  1.0000
  C   C2461     1.0  0.93009  0.91727  0.16959  1.0000
  C   C2462     1.0  0.94163  0.90460  0.15982  1.0000
  H   H2467     1.0  0.92485  0.91798  0.12173  1.0000
  H   H2468     1.0  0.90457  0.94033  0.13889  1.0000
  H   H2469     1.0  0.93163  0.91712  0.18287  1.0000
  H   H2470     1.0  0.95205  0.89469  0.16562  1.0000
  C   C2463     1.0  0.91334  0.97361  0.02557  1.0000
  C   C2464     1.0  0.92614  0.95768  0.02892  1.0000
  C   C2465     1.0  0.92214  0.94395  0.04386  1.0000
  C   C2466     1.0  0.90522  0.94604  0.05537  1.0000
  C   C2467     1.0  0.89270  0.96221  0.05238  1.0000
  H   H2471     1.0  0.84918  0.96090  0.03820  1.0000
  H   H2472     1.0  0.93905  0.95581  0.01973  1.0000
  H   H2473     1.0  0.93190  0.93153  0.04610  1.0000
  H   H2474     1.0  0.87962  0.96390  0.06129  1.0000
  H   H2475     1.0  0.97429  0.83481  0.08048  1.0000
  S   S846      1.0  0.91096  0.96415  0.21135  1.0000
  C   C2468     1.0  0.88840  0.78646  0.19308  1.0000
  H   H2476     1.0  0.87531  0.78517  0.15677  1.0000
  H   H2477     1.0  0.83341  0.69811  0.17772  1.0000
  H   H2478     1.0  0.91726  0.86722  0.18628  1.0000
  H   H2479     1.0  0.96374  0.74651  0.11197  1.0000
  C   C2469     1.0  0.85494  0.69810  0.09971  1.0000
  C   C2470     1.0  0.86345  0.68442  0.11184  1.0000
  C   C2471     1.0  0.86184  0.66656  0.11387  1.0000
  C   C2472     1.0  0.85171  0.66221  0.10384  1.0000
  C   C2473     1.0  0.84320  0.67589  0.09170  1.0000
  C   C2474     1.0  0.84481  0.69378  0.08967  1.0000
  H   H2480     1.0  0.87109  0.68761  0.11980  1.0000
  H   H2481     1.0  0.97650  0.69303  0.06102  1.0000
  H   H2482     1.0  0.86880  0.82054  0.21542  1.0000
  H   H2483     1.0  0.83817  0.70431  0.08028  1.0000
  C   C2475     1.0  0.87252  0.81299  0.20480  1.0000
  C   C2476     1.0  0.85941  0.76252  0.21894  1.0000
  C   C2477     1.0  0.86595  0.82012  0.18907  1.0000
  N   N207      1.0  0.89071  0.93835  0.02194  1.0000
  H   H2484     1.0  0.83243  0.78256  0.18877  1.0000
  C   C2478     1.0  0.97142  0.75432  0.10052  1.0000
  C   C2479     1.0  0.89675  0.97596  0.03757  1.0000
  H   H2485     1.0  0.90207  0.89072  0.20404  1.0000
  C   C2480     1.0  0.90291  0.92091  0.02569  1.0000
  H   H2486     1.0  0.96316  0.72520  0.09210  1.0000
  H   H2487     1.0  0.90080  0.91145  0.01849  1.0000
  C   C2481     1.0  0.86065  0.88322  0.22613  1.0000
  H   H2488     1.0  0.90900  0.94846  0.99853  1.0000
  H   H2489     1.0  0.87031  0.93188  0.04494  1.0000
  C   C2482     1.0  0.89571  0.95091  0.00704  1.0000
  C   C2483     1.0  0.96213  0.67426  0.08082  1.0000
  H   H2490     1.0  0.85819  0.98400  0.01131  1.0000
  H   H2491     1.0  0.85714  0.83329  0.18743  1.0000
  H   H2492     1.0  0.86841  0.97269  0.16445  1.0000
  H   H2493     1.0  0.83798  0.78588  0.21710  1.0000
  C   C2484     1.0  0.98632  0.83210  0.07037  1.0000
  S   S847      1.0  0.91527  0.92010  0.22259  1.0000
  C   C2485     1.0  0.97599  0.68223  0.11376  1.0000
  C   C2486     1.0  0.86998  0.74855  0.21040  1.0000
  C   C2487     1.0  0.98921  0.74702  0.09314  1.0000
  S   S848      1.0  0.87503  0.94594  0.22095  1.0000
  H   H2494     1.0  0.82191  0.68892  0.13069  1.0000
  C   C2488     1.0  0.88384  0.79608  0.20684  1.0000
  C   C2489     1.0  0.88409  0.96744  0.00297  1.0000
  H   H2495     1.0  0.89835  0.78780  0.15320  1.0000
  H   H2496     1.0  0.98757  0.67133  0.11402  1.0000
  H   H2497     1.0  0.90065  0.91498  0.04032  1.0000
  C   C2490     1.0  0.88679  0.78329  0.16337  1.0000
  H   H2498     1.0  0.94959  0.77725  0.09829  1.0000
  C   C2491     1.0  0.85356  0.75914  0.18620  1.0000
  C   C2492     1.0  0.86721  0.74695  0.19397  1.0000
  H   H2499     1.0  0.85709  0.88815  0.21311  1.0000
  C   C2493     1.0  0.84604  0.77490  0.21092  1.0000
  C   C2494     1.0  0.86720  0.97107  0.01416  1.0000
  C   C2495     1.0  0.89869  0.89152  0.19132  1.0000
  H   H2500     1.0  0.89699  0.77320  0.19493  1.0000
  C   C2496     1.0  0.84298  0.77306  0.19476  1.0000
  H   H2501     1.0  0.84774  0.97776  0.21935  1.0000
  N   N208      1.0  0.82404  0.72784  0.14022  1.0000
  C   C2497     1.0  0.82782  0.72151  0.15699  1.0000
  C   C2498     1.0  0.82138  0.71643  0.13108  1.0000
  C   C2499     1.0  0.82985  0.70315  0.16467  1.0000
  C   C2500     1.0  0.82329  0.69800  0.13835  1.0000
  C   C2501     1.0  0.82772  0.69133  0.15518  1.0000
  C   C2502     1.0  0.82245  0.74700  0.13202  1.0000
  H   H2502     1.0  0.82980  0.73057  0.16432  1.0000
  H   H2503     1.0  0.81849  0.72143  0.11773  1.0000
  H   H2504     1.0  0.80807  0.75356  0.13257  1.0000
  C   C2503     1.0  0.97732  0.69853  0.10162  1.0000
  H   H2505     1.0  0.82965  0.67700  0.16075  1.0000
  H   H2506     1.0  0.82845  0.75401  0.13892  1.0000
  H   H2507     1.0  0.82982  0.74875  0.11776  1.0000
  N   N209      1.0  0.90300  0.87934  0.16512  1.0000
  C   C2504     1.0  0.89091  0.89376  0.15835  1.0000
  C   C2505     1.0  0.90719  0.87827  0.18123  1.0000
  C   C2506     1.0  0.88223  0.90729  0.16805  1.0000
  C   C2507     1.0  0.88610  0.90608  0.18467  1.0000
  C   C2508     1.0  0.91226  0.86547  0.15461  1.0000
  H   H2508     1.0  0.88807  0.89497  0.14529  1.0000
  H   H2509     1.0  0.87295  0.91890  0.16251  1.0000
  H   H2510     1.0  0.91561  0.85213  0.16342  1.0000
  C   C2509     1.0  0.96348  0.77161  0.09283  1.0000
  C   C2510     1.0  0.91240  0.68060  0.09884  1.0000
  C   C2511     1.0  0.86214  0.95812  0.02924  1.0000
  N   N210      1.0  0.92994  0.68383  0.08795  1.0000
  H   H2511     1.0  0.86567  0.81576  0.16332  1.0000
  C   C2512     1.0  0.93108  0.69950  0.07556  1.0000
  H   H2512     1.0  0.97423  0.66440  0.08317  1.0000
  H   H2513     1.0  0.94873  0.71564  0.05619  1.0000
  H   H2514     1.0  0.88844  0.97758  0.99153  1.0000
  C   C2513     1.0  0.94782  0.70301  0.06566  1.0000
  H   H2515     1.0  0.92490  0.86910  0.14584  1.0000
  C   C2514     1.0  0.94520  0.67137  0.09080  1.0000
  H   H2516     1.0  0.96748  0.79508  0.07216  1.0000
  H   H2517     1.0  0.97965  0.88712  0.09680  1.0000
  C   C2515     1.0  0.99124  0.77382  0.07109  1.0000
  C   C2516     1.0  0.97346  0.78152  0.07810  1.0000
  H   H2518     1.0  0.91721  0.92237  0.02154  1.0000
  H   H2519     1.0  0.90104  0.68978  0.09304  1.0000
  H   H2520     1.0  0.91905  0.70951  0.07339  1.0000
  C   C2517     1.0  0.98933  0.84467  0.05434  1.0000
  H   H2521     1.0  0.94438  0.65923  0.10103  1.0000
  H   H2522     1.0  0.98870  0.86196  0.12105  1.0000
  H   H2523     1.0  0.86857  0.90756  0.22618  1.0000
  H   H2524     1.0  0.91113  0.66663  0.09976  1.0000
  H   H2525     1.0  0.87826  0.98247  0.18594  1.0000
  S   S849      1.0  0.84897  0.85296  0.22708  1.0000
  C   C2518     1.0  0.99051  0.87600  0.09358  1.0000
  Fe  Fe425     1.0  0.70322  0.73894  0.35148  1.0000
  S   S850      1.0  0.70912  0.76044  0.32732  1.0000
  S   S851      1.0  0.69929  0.74621  0.37821  1.0000
  Fe  Fe426     1.0  0.69848  0.71408  0.32928  1.0000
  S   S852      1.0  0.70420  0.73374  0.30335  1.0000
  S   S853      1.0  0.68799  0.68909  0.33177  1.0000
  Fe  Fe427     1.0  0.72626  0.73756  0.31466  1.0000
  S   S854      1.0  0.75507  0.73735  0.30010  1.0000
  Fe  Fe428     1.0  0.68655  0.75444  0.31873  1.0000
  S   S855      1.0  0.66164  0.77379  0.31202  1.0000
  S   S856      1.0  0.72190  0.71618  0.33963  1.0000
  S   S857      1.0  0.67939  0.73460  0.34385  1.0000
  Fe  Fe429     1.0  0.60989  0.83318  0.37790  1.0000
  S   S858      1.0  0.59740  0.82374  0.40672  1.0000
  S   S859      1.0  0.63961  0.82442  0.36802  1.0000
  Fe  Fe430     1.0  0.57472  0.85684  0.36912  1.0000
  S   S860      1.0  0.55936  0.84956  0.39718  1.0000
  S   S861      1.0  0.56099  0.87364  0.34694  1.0000
  Fe  Fe431     1.0  0.58355  0.85272  0.40549  1.0000
  S   S862      1.0  0.58164  0.87104  0.42411  1.0000
  Fe  Fe432     1.0  0.57469  0.82149  0.39535  1.0000
  S   S863      1.0  0.56055  0.79831  0.40212  1.0000
  S   S864      1.0  0.59776  0.86231  0.37730  1.0000
  S   S865      1.0  0.58834  0.82881  0.36669  1.0000
  C   C2519     1.0  0.64158  0.87757  0.41089  1.0000
  C   C2520     1.0  0.49827  0.77551  0.27851  1.0000
  H   H2526     1.0  0.66534  0.88688  0.41042  1.0000
  C   C2521     1.0  0.69301  0.69317  0.29523  1.0000
  H   H2527     1.0  0.87337  0.81125  0.40261  1.0000
  N   N211      1.0  0.81216  0.74907  0.25642  1.0000
  C   C2522     1.0  0.85818  0.86611  0.23586  1.0000
  H   H2528     1.0  0.79458  0.81772  0.31565  1.0000
  Fe  Fe433     1.0  0.84260  0.82840  0.24743  1.0000
  S   S866      1.0  0.86448  0.80651  0.25747  1.0000
  C   C2523     1.0  0.52059  0.89379  0.37053  1.0000
  Fe  Fe434     1.0  0.81287  0.80825  0.26890  1.0000
  S   S867      1.0  0.83250  0.78483  0.28033  1.0000
  S   S868      1.0  0.78281  0.81012  0.27595  1.0000
  Fe  Fe435     1.0  0.84526  0.80569  0.28426  1.0000
  S   S869      1.0  0.84952  0.80386  0.31197  1.0000
  Fe  Fe436     1.0  0.84936  0.78815  0.25236  1.0000
  H   H2529     1.0  0.89029  0.92963  0.29480  1.0000
  S   S870      1.0  0.82448  0.82900  0.27447  1.0000
  C   C2524     1.0  0.52677  0.68117  0.29472  1.0000
  Fe  Fe437     1.0  0.89721  0.85673  0.34878  1.0000
  S   S871      1.0  0.87640  0.88093  0.35493  1.0000
  S   S872      1.0  0.90008  0.85053  0.32159  1.0000
  Fe  Fe438     1.0  0.91059  0.85113  0.38335  1.0000
  S   S873      1.0  0.89105  0.87523  0.39189  1.0000
  S   S874      1.0  0.92667  0.83104  0.40242  1.0000
  Fe  Fe439     1.0  0.87127  0.86512  0.38302  1.0000
  S   S875      1.0  0.84372  0.86435  0.40021  1.0000
  Fe  Fe440     1.0  0.89820  0.88888  0.36295  1.0000
  S   S876      1.0  0.89861  0.91840  0.35279  1.0000
  S   S877      1.0  0.89017  0.84006  0.37629  1.0000
  S   S878      1.0  0.91965  0.86560  0.35496  1.0000
  H   H2530     1.0  0.69040  0.84253  0.37599  1.0000
  H   H2531     1.0  0.96340  0.91294  0.34827  1.0000
  Fe  Fe441     1.0  0.76429  0.78427  0.40447  1.0000
  S   S879      1.0  0.75555  0.80857  0.38420  1.0000
  S   S880      1.0  0.76874  0.75766  0.39679  1.0000
  Fe  Fe442     1.0  0.76742  0.80629  0.42985  1.0000
  S   S881      1.0  0.75912  0.83230  0.41133  1.0000
  Fe  Fe443     1.0  0.88847  0.92508  0.24125  1.0000
  Fe  Fe444     1.0  0.73817  0.81941  0.40815  1.0000
  S   S882      1.0  0.70883  0.83265  0.41114  1.0000
  Fe  Fe445     1.0  0.77740  0.81890  0.38946  1.0000
  S   S883      1.0  0.79852  0.83021  0.36728  1.0000
  S   S884      1.0  0.74511  0.79411  0.42814  1.0000
  S   S885      1.0  0.78745  0.79381  0.40820  1.0000
  Fe  Fe446     1.0  0.55287  0.74948  0.33137  1.0000
  S   S886      1.0  0.54910  0.76253  0.30338  1.0000
  S   S887      1.0  0.57555  0.75713  0.33863  1.0000
  Fe  Fe447     1.0  0.52531  0.72629  0.33691  1.0000
  S   S888      1.0  0.51992  0.73711  0.30923  1.0000
  Fe  Fe448     1.0  0.54979  0.73467  0.30077  1.0000
  S   S889      1.0  0.56642  0.72610  0.27552  1.0000
  Fe  Fe449     1.0  0.51969  0.76375  0.31464  1.0000
  Fe  Fe450     1.0  0.92100  0.94186  0.23284  1.0000
  S   S890      1.0  0.55549  0.72129  0.32799  1.0000
  S   S891      1.0  0.52316  0.75327  0.34304  1.0000
  H   H2532     1.0  0.91241  0.94104  0.31426  1.0000
  H   H2533     1.0  0.49333  0.78563  0.34997  1.0000
  C   C2525     1.0  0.49279  0.82837  0.27509  1.0000
  H   H2534     1.0  0.83509  0.74461  0.26786  1.0000
  S   S892      1.0  0.87778  0.90199  0.26071  1.0000
  S   S893      1.0  0.94519  0.93819  0.24466  1.0000
  C   C2526     1.0  0.51744  0.86677  0.33308  1.0000
  H   H2535     1.0  0.60990  0.82755  0.47091  1.0000
  C   C2527     1.0  0.73388  0.84986  0.45697  1.0000
  C   C2528     1.0  0.52392  0.84259  0.35800  1.0000
  C   C2529     1.0  0.53085  0.66149  0.33805  1.0000
  H   H2536     1.0  0.51260  0.77086  0.27789  1.0000
  H   H2537     1.0  0.66230  0.73274  0.30691  1.0000
  H   H2538     1.0  0.52962  0.88582  0.37932  1.0000
  C   C2530     1.0  0.59057  0.69754  0.26444  1.0000
  C   C2531     1.0  0.57668  0.70332  0.27818  1.0000
  C   C2532     1.0  0.57055  0.69079  0.29322  1.0000
  H   H2539     1.0  0.94855  0.91475  0.30782  1.0000
  H   H2540     1.0  0.59535  0.70723  0.25280  1.0000
  H   H2541     1.0  0.55977  0.69520  0.30384  1.0000
  C   C2533     1.0  0.93591  0.83892  0.41631  1.0000
  H   H2542     1.0  0.90802  0.88437  0.31525  1.0000
  H   H2543     1.0  0.73097  0.81151  0.46829  1.0000
  C   C2534     1.0  0.94958  0.85115  0.43969  1.0000
  C   C2535     1.0  0.94486  0.86280  0.42411  1.0000
  C   C2536     1.0  0.93787  0.85677  0.41252  1.0000
  H   H2544     1.0  0.81325  0.80420  0.33876  1.0000
  H   H2545     1.0  0.94643  0.87661  0.42110  1.0000
  H   H2546     1.0  0.93410  0.86587  0.40063  1.0000
  C   C2537     1.0  0.91814  0.92643  0.35077  1.0000
  C   C2538     1.0  0.91702  0.94503  0.34701  1.0000
  C   C2539     1.0  0.93255  0.95208  0.34355  1.0000
  H   H2547     1.0  0.90408  0.95406  0.34670  1.0000
  H   H2548     1.0  0.51688  0.68366  0.30677  1.0000
  C   C2540     1.0  0.83091  0.85615  0.39014  1.0000
  C   C2541     1.0  0.83895  0.84855  0.37503  1.0000
  C   C2542     1.0  0.82885  0.84083  0.36788  1.0000
  C   C2543     1.0  0.81068  0.84089  0.37567  1.0000
  C   C2544     1.0  0.80259  0.84881  0.39056  1.0000
  C   C2545     1.0  0.81268  0.85642  0.39780  1.0000
  H   H2549     1.0  0.85304  0.84822  0.36912  1.0000
  H   H2550     1.0  0.83528  0.83426  0.35673  1.0000
  H   H2551     1.0  0.78852  0.84923  0.39643  1.0000
  H   H2552     1.0  0.80639  0.86245  0.40939  1.0000
  C   C2546     1.0  0.94737  0.95779  0.25013  1.0000
  C   C2547     1.0  0.67838  0.67846  0.28100  1.0000
  S   S894      1.0  0.95721  0.85954  0.45442  1.0000
  C   C2548     1.0  0.68374  0.68586  0.31211  1.0000
  C   C2549     1.0  0.95988  0.97197  0.26689  1.0000
  H   H2553     1.0  0.54368  0.65580  0.33043  1.0000
  C   C2550     1.0  0.86399  0.81650  0.31444  1.0000
  C   C2551     1.0  0.86525  0.81702  0.33173  1.0000
  C   C2552     1.0  0.87626  0.82743  0.33413  1.0000
  C   C2553     1.0  0.88628  0.83715  0.31919  1.0000
  C   C2554     1.0  0.88521  0.83642  0.30191  1.0000
  C   C2555     1.0  0.87396  0.82626  0.29952  1.0000
  H   H2554     1.0  0.85762  0.80940  0.34331  1.0000
  H   H2555     1.0  0.87709  0.82782  0.34750  1.0000
  H   H2556     1.0  0.89311  0.84374  0.29032  1.0000
  H   H2557     1.0  0.87319  0.82581  0.28615  1.0000
  S   S895      1.0  0.86340  0.76416  0.23947  1.0000
  C   C2556     1.0  0.86259  0.85981  0.25276  1.0000
  C   C2557     1.0  0.86916  0.87072  0.26005  1.0000
  C   C2558     1.0  0.87125  0.88797  0.25053  1.0000
  S   S896      1.0  0.89504  0.94521  0.25281  1.0000
  C   C2559     1.0  0.80292  0.78797  0.45852  1.0000
  H   H2558     1.0  0.86076  0.84660  0.26031  1.0000
  H   H2559     1.0  0.87240  0.86586  0.27320  1.0000
  H   H2560     1.0  0.82309  0.82043  0.45355  1.0000
  C   C2560     1.0  0.72150  0.87136  0.47623  1.0000
  C   C2561     1.0  0.69122  0.87816  0.44211  1.0000
  C   C2562     1.0  0.68023  0.86583  0.44477  1.0000
  C   C2563     1.0  0.68587  0.85171  0.43544  1.0000
  C   C2564     1.0  0.70254  0.84980  0.42345  1.0000
  C   C2565     1.0  0.71346  0.86223  0.42062  1.0000
  C   C2566     1.0  0.70772  0.87649  0.42981  1.0000
  H   H2561     1.0  0.66719  0.86738  0.45371  1.0000
  H   H2562     1.0  0.67722  0.84231  0.43745  1.0000
  H   H2563     1.0  0.72609  0.86117  0.41097  1.0000
  H   H2564     1.0  0.93958  0.81332  0.43458  1.0000
  C   C2567     1.0  0.82911  0.73779  0.26076  1.0000
  C   C2568     1.0  0.51316  0.85140  0.34542  1.0000
  C   C2569     1.0  0.53872  0.84928  0.35841  1.0000
  C   C2570     1.0  0.54285  0.86479  0.34620  1.0000
  C   C2571     1.0  0.53229  0.87343  0.33343  1.0000
  C   C2572     1.0  0.81753  0.77995  0.46712  1.0000
  H   H2565     1.0  0.54688  0.84237  0.36822  1.0000
  H   H2566     1.0  0.53552  0.88534  0.32385  1.0000
  H   H2567     1.0  0.50952  0.87345  0.32311  1.0000
  C   C2573     1.0  0.59468  0.86411  0.44065  1.0000
  C   C2574     1.0  0.60001  0.87720  0.44614  1.0000
  C   C2575     1.0  0.60908  0.87241  0.46038  1.0000
  H   H2568     1.0  0.66435  0.66934  0.32644  1.0000
  C   C2576     1.0  0.60745  0.84138  0.46379  1.0000
  C   C2577     1.0  0.59886  0.84610  0.44916  1.0000
  H   H2569     1.0  0.59683  0.89116  0.43956  1.0000
  H   H2570     1.0  0.52592  0.70928  0.28285  1.0000
  C   C2578     1.0  0.81983  0.82879  0.44067  1.0000
  H   H2571     1.0  0.59472  0.83593  0.44503  1.0000
  C   C2579     1.0  0.56442  0.78712  0.38432  1.0000
  C   C2580     1.0  0.58096  0.78568  0.37216  1.0000
  C   C2581     1.0  0.58426  0.77620  0.35842  1.0000
  C   C2582     1.0  0.57086  0.76848  0.35640  1.0000
  C   C2583     1.0  0.55418  0.77009  0.36836  1.0000
  C   C2584     1.0  0.55106  0.77920  0.38246  1.0000
  H   H2572     1.0  0.59144  0.79141  0.37366  1.0000
  H   H2573     1.0  0.59724  0.77488  0.34932  1.0000
  H   H2574     1.0  0.54380  0.76406  0.36698  1.0000
  H   H2575     1.0  0.53826  0.78016  0.39189  1.0000
  C   C2585     1.0  0.76186  0.75786  0.29612  1.0000
  C   C2586     1.0  0.77982  0.75776  0.29571  1.0000
  C   C2587     1.0  0.78622  0.77383  0.29013  1.0000
  C   C2588     1.0  0.77473  0.79005  0.28475  1.0000
  C   C2589     1.0  0.75654  0.79027  0.28600  1.0000
  C   C2590     1.0  0.75009  0.77419  0.29169  1.0000
  H   H2576     1.0  0.78891  0.74517  0.29932  1.0000
  H   H2577     1.0  0.80010  0.77352  0.28965  1.0000
  H   H2578     1.0  0.74752  0.80281  0.28204  1.0000
  H   H2579     1.0  0.73621  0.77435  0.29192  1.0000
  C   C2591     1.0  0.67764  0.83818  0.38354  1.0000
  H   H2580     1.0  0.69759  0.69515  0.26668  1.0000
  C   C2592     1.0  0.65528  0.78826  0.32717  1.0000
  C   C2593     1.0  0.66807  0.79613  0.33008  1.0000
  C   C2594     1.0  0.66310  0.80736  0.34253  1.0000
  C   C2595     1.0  0.64534  0.81069  0.35216  1.0000
  C   C2596     1.0  0.63263  0.80253  0.34949  1.0000
  C   C2597     1.0  0.63758  0.79135  0.33697  1.0000
  H   H2581     1.0  0.68177  0.79382  0.32251  1.0000
  H   H2582     1.0  0.67305  0.81351  0.34463  1.0000
  H   H2583     1.0  0.61916  0.80432  0.35741  1.0000
  H   H2584     1.0  0.62784  0.78472  0.33526  1.0000
  C   C2598     1.0  0.74954  0.75491  0.39110  1.0000
  C   C2599     1.0  0.75119  0.74273  0.38023  1.0000
  C   C2600     1.0  0.73587  0.74047  0.37564  1.0000
  C   C2601     1.0  0.71881  0.74991  0.38247  1.0000
  C   C2602     1.0  0.71720  0.76211  0.39328  1.0000
  C   C2603     1.0  0.73256  0.76486  0.39732  1.0000
  H   H2585     1.0  0.76430  0.73497  0.37543  1.0000
  H   H2586     1.0  0.73719  0.73096  0.36737  1.0000
  H   H2587     1.0  0.70408  0.76944  0.39862  1.0000
  H   H2588     1.0  0.73120  0.77429  0.40569  1.0000
  C   C2604     1.0  0.95046  0.92192  0.34792  1.0000
  C   C2605     1.0  0.51394  0.91857  0.34624  1.0000
  H   H2589     1.0  0.64194  0.84232  0.39344  1.0000
  H   H2590     1.0  0.95138  0.82419  0.45537  1.0000
  H   H2591     1.0  0.92415  0.89972  0.32773  1.0000
  C   C2606     1.0  0.57768  0.67238  0.29401  1.0000
  C   C2607     1.0  0.54474  0.69208  0.26599  1.0000
  H   H2592     1.0  0.55386  0.80015  0.33018  1.0000
  S   S897      1.0  0.96910  0.94927  0.33820  1.0000
  C   C2608     1.0  0.90028  0.84171  0.46063  1.0000
  C   C2609     1.0  0.49802  0.91310  0.34725  1.0000
  H   H2593     1.0  0.80510  0.83058  0.44165  1.0000
  H   H2594     1.0  0.75250  0.78164  0.32668  1.0000
  N   N212      1.0  0.64969  0.77635  0.38671  1.0000
  C   C2610     1.0  0.65217  0.76409  0.37628  1.0000
  C   C2611     1.0  0.63300  0.78199  0.39660  1.0000
  C   C2612     1.0  0.63771  0.75719  0.37548  1.0000
  C   C2613     1.0  0.61820  0.77541  0.39610  1.0000
  C   C2614     1.0  0.62065  0.76285  0.38552  1.0000
  C   C2615     1.0  0.66524  0.78262  0.38808  1.0000
  H   H2595     1.0  0.66540  0.75969  0.36845  1.0000
  H   H2596     1.0  0.63105  0.79174  0.40483  1.0000
  H   H2597     1.0  0.63980  0.74756  0.36708  1.0000
  H   H2598     1.0  0.60490  0.78004  0.40379  1.0000
  H   H2599     1.0  0.60930  0.75758  0.38507  1.0000
  H   H2600     1.0  0.67532  0.78340  0.37519  1.0000
  H   H2601     1.0  0.66123  0.79627  0.39118  1.0000
  H   H2602     1.0  0.67184  0.77306  0.39866  1.0000
  H   H2603     1.0  0.62075  0.86509  0.40923  1.0000
  C   C2616     1.0  0.78025  0.77088  0.24806  1.0000
  S   S898      1.0  0.64391  0.65372  0.24459  1.0000
  C   C2617     1.0  0.90192  0.87118  0.44232  1.0000
  H   H2604     1.0  0.74304  0.87451  0.45301  1.0000
  C   C2618     1.0  0.53172  0.69553  0.28128  1.0000
  C   C2619     1.0  0.88833  0.96952  0.28522  1.0000
  H   H2605     1.0  0.92032  0.86605  0.28409  1.0000
  C   C2620     1.0  0.52533  0.90874  0.35789  1.0000
  C   C2621     1.0  0.91247  0.98221  0.28725  1.0000
  H   H2606     1.0  0.56436  0.89374  0.46972  1.0000
  H   H2607     1.0  0.51753  0.93020  0.33634  1.0000
  C   C2622     1.0  0.66001  0.87742  0.40636  1.0000
  Fe  Fe451     1.0  0.88435  0.96575  0.23059  1.0000
  H   H2608     1.0  0.80286  0.78473  0.44601  1.0000
  C   C2623     1.0  0.91390  0.88054  0.28149  1.0000
  H   H2609     1.0  0.63239  0.88729  0.41834  1.0000
  H   H2610     1.0  0.80665  0.77681  0.36130  1.0000
  H   H2611     1.0  0.54880  0.70336  0.25582  1.0000
  C   C2624     1.0  0.79870  0.78279  0.35107  1.0000
  C   C2625     1.0  0.91850  0.89101  0.30635  1.0000
  C   C2626     1.0  0.89867  0.85403  0.44459  1.0000
  H   H2612     1.0  0.76419  0.76045  0.33718  1.0000
  H   H2613     1.0  0.91012  0.88884  0.45401  1.0000
  C   C2627     1.0  0.75924  0.77482  0.33811  1.0000
  C   C2628     1.0  0.69027  0.68955  0.27972  1.0000
  C   C2629     1.0  0.61234  0.85457  0.46961  1.0000
  H   H2614     1.0  0.74348  0.84578  0.44539  1.0000
  Fe  Fe452     1.0  0.66315  0.88995  0.47872  1.0000
  C   C2630     1.0  0.90513  0.84676  0.47425  1.0000
  C   C2631     1.0  0.53486  0.66359  0.29276  1.0000
  H   H2615     1.0  0.96464  0.94341  0.26868  1.0000
  H   H2616     1.0  0.55970  0.66929  0.23814  1.0000
  H   H2617     1.0  0.70781  0.81998  0.46557  1.0000
  H   H2618     1.0  0.82278  0.84236  0.43862  1.0000
  H   H2619     1.0  0.86941  0.94478  0.30157  1.0000
  H   H2620     1.0  0.62478  0.81952  0.30583  1.0000
  H   H2621     1.0  0.85498  0.82567  0.42769  1.0000
  C   C2632     1.0  0.59134  0.66660  0.28005  1.0000
  Fe  Fe453     1.0  0.96623  0.97871  0.32515  1.0000
  C   C2633     1.0  0.78841  0.80007  0.46627  1.0000
  H   H2622     1.0  0.89813  0.82823  0.46234  1.0000
  C   C2634     1.0  0.95790  0.95644  0.26251  1.0000
  C   C2635     1.0  0.80233  0.79818  0.33848  1.0000
  C   C2636     1.0  0.63505  0.86504  0.40593  1.0000
  N   N213      1.0  0.57528  0.81445  0.32472  1.0000
  C   C2637     1.0  0.58056  0.82929  0.32595  1.0000
  C   C2638     1.0  0.58734  0.80156  0.31646  1.0000
  C   C2639     1.0  0.59838  0.83142  0.31911  1.0000
  C   C2640     1.0  0.60528  0.80325  0.30945  1.0000
  C   C2641     1.0  0.61081  0.81826  0.31085  1.0000
  C   C2642     1.0  0.55671  0.81228  0.33282  1.0000
  H   H2623     1.0  0.57107  0.83947  0.33254  1.0000
  H   H2624     1.0  0.58323  0.78973  0.31552  1.0000
  H   H2625     1.0  0.60253  0.84306  0.32052  1.0000
  H   H2626     1.0  0.61495  0.79282  0.30328  1.0000
  H   H2627     1.0  0.53804  0.91240  0.35690  1.0000
  H   H2628     1.0  0.55429  0.81080  0.34763  1.0000
  H   H2629     1.0  0.54701  0.82421  0.32746  1.0000
  N   N214      1.0  0.82997  0.87582  0.29063  1.0000
  C   C2643     1.0  0.82540  0.86085  0.30257  1.0000
  C   C2644     1.0  0.84067  0.88515  0.29427  1.0000
  C   C2645     1.0  0.83191  0.85465  0.31844  1.0000
  C   C2646     1.0  0.84767  0.87914  0.30987  1.0000
  C   C2647     1.0  0.84317  0.86384  0.32204  1.0000
  C   C2648     1.0  0.82273  0.88218  0.27421  1.0000
  H   H2630     1.0  0.81673  0.85357  0.29988  1.0000
  H   H2631     1.0  0.84419  0.89710  0.28491  1.0000
  H   H2632     1.0  0.82841  0.84262  0.32773  1.0000
  H   H2633     1.0  0.85666  0.88618  0.31245  1.0000
  H   H2634     1.0  0.84857  0.85905  0.33415  1.0000
  H   H2635     1.0  0.82356  0.87072  0.26797  1.0000
  H   H2636     1.0  0.80847  0.88924  0.27735  1.0000
  H   H2637     1.0  0.83057  0.89149  0.26396  1.0000
  C   C2649     1.0  0.79180  0.80583  0.32558  1.0000
  H   H2638     1.0  0.76932  0.80431  0.31572  1.0000
  H   H2639     1.0  0.70270  0.70120  0.29411  1.0000
  C   C2650     1.0  0.85903  0.81146  0.40661  1.0000
  S   S899      1.0  0.68456  0.89563  0.45409  1.0000
  C   C2651     1.0  0.94577  0.90759  0.28413  1.0000
  H   H2640     1.0  0.65964  0.66282  0.29897  1.0000
  S   S900      1.0  0.49450  0.84288  0.34546  1.0000
  H   H2641     1.0  0.89547  0.85013  0.43368  1.0000
  H   H2642     1.0  0.85861  0.79841  0.38581  1.0000
  N   N215      1.0  0.63699  0.72642  0.30847  1.0000
  C   C2652     1.0  0.64297  0.71715  0.29483  1.0000
  C   C2653     1.0  0.61891  0.73189  0.31470  1.0000
  C   C2654     1.0  0.63077  0.71334  0.28685  1.0000
  C   C2655     1.0  0.60633  0.72849  0.30689  1.0000
  C   C2656     1.0  0.61233  0.71918  0.29287  1.0000
  C   C2657     1.0  0.65008  0.72964  0.31700  1.0000
  H   H2643     1.0  0.65726  0.71266  0.29004  1.0000
  H   H2644     1.0  0.61407  0.73894  0.32575  1.0000
  H   H2645     1.0  0.63562  0.70587  0.27609  1.0000
  H   H2646     1.0  0.59202  0.73302  0.31173  1.0000
  H   H2647     1.0  0.60269  0.71647  0.28673  1.0000
  H   H2648     1.0  0.64448  0.74134  0.32365  1.0000
  H   H2649     1.0  0.65422  0.71751  0.32712  1.0000
  S   S901      1.0  0.67589  0.67382  0.26123  1.0000
  C   C2658     1.0  0.93485  0.91483  0.35154  1.0000
  H   H2650     1.0  0.93581  0.90043  0.35468  1.0000
  H   H2651     1.0  0.82565  0.79950  0.39499  1.0000
  C   C2659     1.0  0.85077  0.80418  0.39725  1.0000
  H   H2652     1.0  0.93069  0.97592  0.23258  1.0000
  H   H2653     1.0  0.50153  0.81500  0.24530  1.0000
  H   H2654     1.0  0.78202  0.76310  0.36017  1.0000
  H   H2655     1.0  0.74903  0.77565  0.35079  1.0000
  C   C2660     1.0  0.94936  0.94058  0.34366  1.0000
  C   C2661     1.0  0.84858  0.81948  0.42089  1.0000
  H   H2656     1.0  0.92955  0.96545  0.30514  1.0000
  N   N216      1.0  0.77422  0.78288  0.33794  1.0000
  C   C2662     1.0  0.78463  0.77518  0.35048  1.0000
  C   C2663     1.0  0.77759  0.79808  0.32563  1.0000
  C   C2664     1.0  0.66894  0.67127  0.29786  1.0000
  C   C2665     1.0  0.52775  0.67910  0.34076  1.0000
  H   H2657     1.0  0.93144  0.96642  0.34102  1.0000
  C   C2666     1.0  0.94099  0.82716  0.43169  1.0000
  C   C2667     1.0  0.86719  0.89416  0.23347  1.0000
  H   H2658     1.0  0.76759  0.77953  0.24555  1.0000
  H   H2659     1.0  0.90120  0.88066  0.42968  1.0000
  H   H2660     1.0  0.52078  0.83061  0.36754  1.0000
  N   N217      1.0  0.72171  0.83952  0.46691  1.0000
  H   H2661     1.0  0.50551  0.81816  0.27332  1.0000
  H   H2662     1.0  0.61262  0.88269  0.46481  1.0000
  C   C2668     1.0  0.50095  0.65867  0.35518  1.0000
  C   C2669     1.0  0.94765  0.83329  0.44346  1.0000
  N   N218      1.0  0.55284  0.67480  0.26432  1.0000
  C   C2670     1.0  0.83228  0.80472  0.40245  1.0000
  N   N219      1.0  0.90849  0.86357  0.47183  1.0000
  N   N220      1.0  0.89340  0.95464  0.29774  1.0000
  C   C2671     1.0  0.67166  0.86465  0.39691  1.0000
  C   C2672     1.0  0.64712  0.85226  0.39682  1.0000
  H   H2663     1.0  0.53817  0.68691  0.33529  1.0000
  H   H2664     1.0  0.82875  0.77061  0.46112  1.0000
  C   C2673     1.0  0.82227  0.81267  0.41693  1.0000
  N   N221      1.0  0.66516  0.85226  0.39231  1.0000
  H   H2665     1.0  0.68600  0.86448  0.39362  1.0000
  H   H2666     1.0  0.71612  0.88617  0.42747  1.0000
  H   H2667     1.0  0.79782  0.72760  0.26491  1.0000
  H   H2668     1.0  0.89943  0.88187  0.28818  1.0000
  H   H2669     1.0  0.91444  0.88545  0.26685  1.0000
  C   C2674     1.0  0.72157  0.82292  0.46178  1.0000
  H   H2670     1.0  0.88326  0.93343  0.31756  1.0000
  H   H2671     1.0  0.93989  0.89869  0.26311  1.0000
  H   H2672     1.0  0.72582  0.82415  0.44700  1.0000
  H   H2673     1.0  0.67162  0.83471  0.37387  1.0000
  H   H2674     1.0  0.68109  0.82599  0.39386  1.0000
  S   S902      1.0  0.50706  0.70819  0.35490  1.0000
  N   N222      1.0  0.83043  0.82011  0.42578  1.0000
  N   N223      1.0  0.92288  0.89070  0.28846  1.0000
  C   C2675     1.0  0.93634  0.89885  0.27734  1.0000
  C   C2676     1.0  0.59807  0.67923  0.26550  1.0000
  S   S903      1.0  0.77006  0.81112  0.45595  1.0000
  C   C2677     1.0  0.90699  0.87570  0.45611  1.0000
  C   C2678     1.0  0.67156  0.67505  0.31339  1.0000
  H   H2675     1.0  0.80786  0.81335  0.42070  1.0000
  C   C2679     1.0  0.51134  0.68637  0.35096  1.0000
  C   C2680     1.0  0.92758  0.89972  0.31352  1.0000
  C   C2681     1.0  0.94131  0.90806  0.30234  1.0000
  H   H2676     1.0  0.95649  0.91392  0.27526  1.0000
  H   H2677     1.0  0.60842  0.67486  0.25458  1.0000
  C   C2682     1.0  0.79741  0.74173  0.25904  1.0000
  C   C2683     1.0  0.73382  0.86604  0.46133  1.0000
  H   H2678     1.0  0.76930  0.74682  0.25791  1.0000
  H   H2679     1.0  0.50141  0.87657  0.38050  1.0000
  C   C2684     1.0  0.56628  0.67137  0.24811  1.0000
  H   H2680     1.0  0.79468  0.79253  0.24033  1.0000
  C   C2685     1.0  0.79545  0.77818  0.24516  1.0000
  C   C2686     1.0  0.91787  0.96677  0.29959  1.0000
  C   C2687     1.0  0.78123  0.75252  0.25493  1.0000
  H   H2681     1.0  0.82712  0.72468  0.26965  1.0000
  C   C2688     1.0  0.81140  0.76698  0.24940  1.0000
  H   H2682     1.0  0.96798  0.97084  0.27649  1.0000
  C   C2689     1.0  0.93882  0.97475  0.24214  1.0000
  C   C2690     1.0  0.90817  0.95300  0.30465  1.0000
  H   H2683     1.0  0.57244  0.66264  0.30530  1.0000
  S   S904      1.0  0.82873  0.81021  0.24058  1.0000
  C   C2691     1.0  0.88362  0.93988  0.30315  1.0000
  C   C2692     1.0  0.49800  0.67609  0.35823  1.0000
  H   H2684     1.0  0.71846  0.65588  0.29971  1.0000
  H   H2685     1.0  0.57230  0.92188  0.47099  1.0000
  H   H2686     1.0  0.57685  0.65928  0.25134  1.0000
  H   H2687     1.0  0.53121  0.65232  0.30324  1.0000
  H   H2688     1.0  0.57337  0.68275  0.24199  1.0000
  H   H2689     1.0  0.49589  0.84205  0.27113  1.0000
  H   H2690     1.0  0.82307  0.77274  0.24747  1.0000
  C   C2693     1.0  0.89778  0.98352  0.27978  1.0000
  H   H2691     1.0  0.49908  0.76767  0.25398  1.0000
  H   H2692     1.0  0.83894  0.73536  0.24820  1.0000
  H   H2693     1.0  0.87697  0.97065  0.27925  1.0000
  N   N224      1.0  0.49380  0.89806  0.35931  1.0000
  H   H2694     1.0  0.49403  0.80789  0.33664  1.0000
  C   C2694     1.0  0.54798  0.66063  0.27738  1.0000
  C   C2695     1.0  0.50469  0.88857  0.37103  1.0000
  S   S905      1.0  0.49720  0.78713  0.30869  1.0000
  H   H2695     1.0  0.71668  0.65678  0.26935  1.0000
  H   H2696     1.0  0.56970  0.86146  0.47816  1.0000
  H   H2697     1.0  0.72092  0.88412  0.47948  1.0000
  Fe  Fe454     1.0  0.66027  0.87000  0.51718  1.0000
  N   N225      1.0  0.63633  0.93978  0.55344  1.0000
  S   S906      1.0  0.67843  0.85442  0.53614  1.0000
  S   S907      1.0  0.66153  0.89865  0.50425  1.0000
  Fe  Fe455     1.0  0.68167  0.86693  0.62602  1.0000
  S   S908      1.0  0.70299  0.87629  0.63323  1.0000
  S   S909      1.0  0.66508  0.88462  0.60632  1.0000
  Fe  Fe456     1.0  0.68422  0.83270  0.65485  1.0000
  S   S910      1.0  0.70591  0.83908  0.66451  1.0000
  S   S911      1.0  0.67104  0.80873  0.66707  1.0000
  Fe  Fe457     1.0  0.68939  0.86722  0.66174  1.0000
  S   S912      1.0  0.67980  0.88315  0.68369  1.0000
  Fe  Fe458     1.0  0.71773  0.84742  0.63508  1.0000
  S   S913      1.0  0.74773  0.84182  0.62360  1.0000
  S   S914      1.0  0.66681  0.86007  0.65434  1.0000
  S   S915      1.0  0.69726  0.83878  0.62559  1.0000
  H   H2698     1.0  0.96310  0.71387  0.61336  1.0000
  C   C2696     1.0  0.77519  0.83601  0.55283  1.0000
  H   H2699     1.0  0.92518  0.80910  0.55956  1.0000
  C   C2697     1.0  0.80436  0.85488  0.57084  1.0000
  N   N226      1.0  0.90278  0.79804  0.56018  1.0000
  H   H2700     1.0  0.88899  0.79971  0.58683  1.0000
  H   H2701     1.0  0.74294  0.85845  0.58189  1.0000
  S   S916      1.0  0.87477  0.66643  0.59000  1.0000
  H   H2702     1.0  0.76980  0.86578  0.58667  1.0000
  Fe  Fe459     1.0  0.85169  0.76797  0.55311  1.0000
  S   S917      1.0  0.83438  0.79003  0.56701  1.0000
  S   S918      1.0  0.87601  0.74923  0.56249  1.0000
  Fe  Fe460     1.0  0.83403  0.78100  0.52073  1.0000
  S   S919      1.0  0.81540  0.80425  0.53169  1.0000
  N   N227      1.0  0.97183  0.70251  0.58984  1.0000
  Fe  Fe461     1.0  0.83935  0.80785  0.53982  1.0000
  S   S920      1.0  0.84245  0.83588  0.53810  1.0000
  Fe  Fe462     1.0  0.81169  0.78473  0.55797  1.0000
  S   S921      1.0  0.78306  0.78519  0.57347  1.0000
  S   S922      1.0  0.85850  0.78642  0.52650  1.0000
  S   S923      1.0  0.82861  0.76087  0.54641  1.0000
  C   C2698     1.0  0.98638  0.69668  0.57731  1.0000
  S   S924      1.0  0.94465  0.82334  0.49897  1.0000
  H   H2703     1.0  0.64511  0.97101  0.50160  1.0000
  S   S925      1.0  0.96865  0.81943  0.52935  1.0000
  C   C2699     1.0  0.62966  0.95014  0.50887  1.0000
  Fe  Fe463     1.0  0.97012  0.80609  0.50696  1.0000
  H   H2704     1.0  0.92654  0.87350  0.48090  1.0000
  Fe  Fe464     1.0  0.94455  0.83796  0.51988  1.0000
  S   S926      1.0  0.91914  0.84701  0.53905  1.0000
  H   H2705     1.0  0.80102  0.86416  0.58027  1.0000
  S   S927      1.0  0.96070  0.85777  0.50146  1.0000
  H   H2706     1.0  0.66077  0.92059  0.54991  1.0000
  H   H2707     1.0  0.80353  0.83523  0.54858  1.0000
  H   H2708     1.0  0.86608  0.74707  0.50722  1.0000
  H   H2709     1.0  0.93556  0.77072  0.52618  1.0000
  C   C2700     1.0  0.79020  0.84060  0.55563  1.0000
  H   H2710     1.0  0.94421  0.70208  0.60201  1.0000
  S   S928      1.0  0.69692  0.96088  0.66791  1.0000
  H   H2711     1.0  0.64466  0.89558  0.67050  1.0000
  C   C2701     1.0  0.95402  0.68644  0.58156  1.0000
  H   H2712     1.0  0.90296  0.87989  0.49108  1.0000
  C   C2702     1.0  0.92632  0.77831  0.53579  1.0000
  N   N228      1.0  0.78821  0.85127  0.56753  1.0000
  H   H2713     1.0  0.58847  0.95213  0.53678  1.0000
  C   C2703     1.0  0.65092  0.92951  0.54193  1.0000
  C   C2704     1.0  0.67593  0.75911  0.71785  1.0000
  H   H2714     1.0  0.61087  0.97443  0.64179  1.0000
  C   C2705     1.0  0.63905  0.79738  0.71642  1.0000
  C   C2706     1.0  0.67208  0.92251  0.62630  1.0000
  C   C2707     1.0  0.64070  0.91027  0.67012  1.0000
  S   S929      1.0  0.66767  0.97163  0.71495  1.0000
  H   H2715     1.0  0.63962  0.94144  0.50085  1.0000
  C   C2708     1.0  0.93235  0.79006  0.54236  1.0000
  C   C2709     1.0  0.86412  0.83890  0.53717  1.0000
  C   C2710     1.0  0.87971  0.82856  0.52852  1.0000
  C   C2711     1.0  0.89680  0.83148  0.52815  1.0000
  C   C2712     1.0  0.89826  0.84430  0.53696  1.0000
  C   C2713     1.0  0.88264  0.85457  0.54549  1.0000
  C   C2714     1.0  0.86566  0.85209  0.54534  1.0000
  H   H2716     1.0  0.87856  0.81843  0.52205  1.0000
  H   H2717     1.0  0.90878  0.82336  0.52167  1.0000
  H   H2718     1.0  0.88366  0.86448  0.55232  1.0000
  H   H2719     1.0  0.85368  0.86019  0.55195  1.0000
  C   C2715     1.0  0.89032  0.80827  0.57315  1.0000
  Fe  Fe465     1.0  0.67398  0.97677  0.68484  1.0000
  H   H2720     1.0  0.96795  0.67066  0.56156  1.0000
  H   H2721     1.0  0.77691  0.82687  0.54399  1.0000
  H   H2722     1.0  0.62656  0.91519  0.66839  1.0000
  C   C2716     1.0  0.61378  0.94468  0.51896  1.0000
  H   H2723     1.0  0.80267  0.79878  0.50393  1.0000
  C   C2717     1.0  0.60944  0.95833  0.57669  1.0000
  C   C2718     1.0  0.92039  0.79980  0.55471  1.0000
  H   H2724     1.0  0.64859  0.94158  0.66887  1.0000
  C   C2719     1.0  0.87492  0.68958  0.58405  1.0000
  C   C2720     1.0  0.85903  0.70193  0.58106  1.0000
  C   C2721     1.0  0.85913  0.72032  0.57470  1.0000
  C   C2722     1.0  0.87513  0.72645  0.57142  1.0000
  C   C2723     1.0  0.89092  0.71418  0.57482  1.0000
  C   C2724     1.0  0.89082  0.69578  0.58114  1.0000
  H   H2725     1.0  0.84665  0.69721  0.58347  1.0000
  H   H2726     1.0  0.84684  0.72971  0.57235  1.0000
  H   H2727     1.0  0.90331  0.71888  0.57240  1.0000
  H   H2728     1.0  0.90310  0.68635  0.58347  1.0000
  H   H2729     1.0  0.97701  0.67324  0.62563  1.0000
  C   C2725     1.0  0.77143  0.85791  0.57667  1.0000
  H   H2730     1.0  0.81272  0.84207  0.57666  1.0000
  S   S930      1.0  0.63025  0.87421  0.52230  1.0000
  N   N229      1.0  0.57463  0.87849  0.49282  1.0000
  H   H2731     1.0  0.68959  0.78066  0.70263  1.0000
  C   C2726     1.0  0.62151  0.93270  0.56256  1.0000
  C   C2727     1.0  0.75806  0.84265  0.56213  1.0000
  H   H2732     1.0  0.74638  0.83871  0.56054  1.0000
  C   C2728     1.0  0.87156  0.73739  0.51851  1.0000
  C   C2729     1.0  0.98525  0.68515  0.56693  1.0000
  H   H2733     1.0  0.81257  0.86096  0.55801  1.0000
  C   C2730     1.0  0.67500  0.93881  0.62779  1.0000
  Fe  Fe466     1.0  0.63161  0.90253  0.50736  1.0000
  H   H2734     1.0  0.94618  0.79167  0.53777  1.0000
  H   H2735     1.0  0.90357  0.76713  0.53683  1.0000
  H   H2736     1.0  0.57944  0.84991  0.49707  1.0000
  N   N230      1.0  0.65263  0.92004  0.65552  1.0000
  C   C2731     1.0  0.65954  0.80915  0.68937  1.0000
  C   C2732     1.0  0.64794  0.79723  0.69844  1.0000
  C   C2733     1.0  0.84473  0.72473  0.52340  1.0000
  H   H2737     1.0  0.64169  0.91212  0.68335  1.0000
  C   C2734     1.0  0.65359  0.82111  0.71625  1.0000
  C   C2735     1.0  0.66234  0.82106  0.69835  1.0000
  H   H2738     1.0  0.64575  0.78798  0.69154  1.0000
  H   H2739     1.0  0.68404  0.94596  0.61716  1.0000
  H   H2740     1.0  0.67143  0.83012  0.69157  1.0000
  C   C2736     1.0  0.75746  0.82456  0.61137  1.0000
  C   C2737     1.0  0.77622  0.82074  0.60530  1.0000
  C   C2738     1.0  0.78426  0.80853  0.59384  1.0000
  C   C2739     1.0  0.77359  0.79983  0.58860  1.0000
  C   C2740     1.0  0.75490  0.80320  0.59513  1.0000
  C   C2741     1.0  0.74683  0.81559  0.60642  1.0000
  H   H2741     1.0  0.78452  0.82754  0.60919  1.0000
  H   H2742     1.0  0.79869  0.80587  0.58903  1.0000
  H   H2743     1.0  0.74661  0.79643  0.59119  1.0000
  H   H2744     1.0  0.73240  0.81837  0.61104  1.0000
  C   C2742     1.0  0.68583  0.90420  0.67935  1.0000
  C   C2743     1.0  0.67692  0.91592  0.69105  1.0000
  C   C2744     1.0  0.68071  0.93306  0.68771  1.0000
  C   C2745     1.0  0.69352  0.93870  0.67268  1.0000
  C   C2746     1.0  0.70276  0.92689  0.66109  1.0000
  C   C2747     1.0  0.69882  0.90968  0.66436  1.0000
  H   H2745     1.0  0.66680  0.91199  0.70261  1.0000
  H   H2746     1.0  0.67362  0.94191  0.69684  1.0000
  H   H2747     1.0  0.71273  0.93115  0.64947  1.0000
  H   H2748     1.0  0.70591  0.90067  0.65535  1.0000
  C   C2748     1.0  0.67541  0.86413  0.55468  1.0000
  C   C2749     1.0  0.68795  0.85789  0.56582  1.0000
  C   C2750     1.0  0.68503  0.86442  0.58152  1.0000
  C   C2751     1.0  0.66958  0.87725  0.58609  1.0000
  C   C2752     1.0  0.65729  0.88390  0.57468  1.0000
  C   C2753     1.0  0.66019  0.87735  0.55896  1.0000
  H   H2749     1.0  0.69981  0.84779  0.56244  1.0000
  H   H2750     1.0  0.69476  0.85955  0.59003  1.0000
  H   H2751     1.0  0.64532  0.89383  0.57821  1.0000
  H   H2752     1.0  0.65047  0.88219  0.55039  1.0000
  C   C2754     1.0  0.90843  0.77637  0.54167  1.0000
  H   H2753     1.0  0.89503  0.82048  0.57315  1.0000
  C   C2755     1.0  0.60087  0.95619  0.52908  1.0000
  S   S931      1.0  0.60987  0.92331  0.51998  1.0000
  N   N231      1.0  0.66403  0.82456  0.61051  1.0000
  C   C2756     1.0  0.67674  0.81013  0.61618  1.0000
  C   C2757     1.0  0.66283  0.82939  0.59283  1.0000
  C   C2758     1.0  0.68876  0.80022  0.60399  1.0000
  C   C2759     1.0  0.67446  0.81962  0.58033  1.0000
  C   C2760     1.0  0.68758  0.80503  0.58595  1.0000
  C   C2761     1.0  0.65203  0.83543  0.62315  1.0000
  H   H2754     1.0  0.67786  0.80636  0.63015  1.0000
  H   H2755     1.0  0.65309  0.84112  0.58822  1.0000
  H   H2756     1.0  0.69902  0.78900  0.60850  1.0000
  H   H2757     1.0  0.67359  0.82366  0.56627  1.0000
  H   H2758     1.0  0.69691  0.79758  0.57630  1.0000
  H   H2759     1.0  0.65288  0.82897  0.63731  1.0000
  H   H2760     1.0  0.65572  0.84878  0.62021  1.0000
  H   H2761     1.0  0.63781  0.83741  0.62203  1.0000
  S   S932      1.0  0.64741  0.97348  0.68231  1.0000
  C   C2762     1.0  0.81755  0.78384  0.48355  1.0000
  C   C2763     1.0  0.95571  0.69775  0.59188  1.0000
  C   C2764     1.0  0.60400  0.97284  0.52957  1.0000
  C   C2765     1.0  0.83506  0.71096  0.53100  1.0000
  H   H2762     1.0  0.67863  0.91691  0.61443  1.0000
  C   C2766     1.0  0.58264  0.87862  0.50627  1.0000
  H   H2763     1.0  0.62994  0.78836  0.72331  1.0000
  H   H2764     1.0  0.59894  0.96566  0.58570  1.0000
  C   C2767     1.0  0.68314  0.77423  0.71582  1.0000
  H   H2765     1.0  0.77732  0.81327  0.48869  1.0000
  H   H2766     1.0  0.70082  0.83579  0.49018  1.0000
  H   H2767     1.0  0.88290  0.78473  0.55856  1.0000
  C   C2768     1.0  0.89679  0.78635  0.55401  1.0000
  H   H2768     1.0  0.88605  0.73227  0.51330  1.0000
  C   C2769     1.0  0.65504  0.93623  0.65687  1.0000
  C   C2770     1.0  0.56960  0.86198  0.49217  1.0000
  C   C2771     1.0  0.80296  0.79583  0.49125  1.0000
  H   H2769     1.0  0.64559  0.92115  0.53589  1.0000
  H   H2770     1.0  0.62586  0.97828  0.56906  1.0000
  H   H2771     1.0  0.87681  0.81303  0.56963  1.0000
  H   H2772     1.0  0.65928  0.88587  0.72056  1.0000
  N   N232      1.0  0.86187  0.72259  0.52580  1.0000
  C   C2772     1.0  0.63800  0.95592  0.55572  1.0000
  C   C2773     1.0  0.71011  0.84425  0.48198  1.0000
  H   H2773     1.0  0.91533  0.85759  0.49772  1.0000
  C   C2774     1.0  0.98323  0.77082  0.54445  1.0000
  H   H2774     1.0  0.65850  0.90066  0.63906  1.0000
  S   S933      1.0  0.98792  0.82315  0.48646  1.0000
  H   H2775     1.0  0.66172  0.73125  0.72366  1.0000
  H   H2776     1.0  0.83835  0.73722  0.51576  1.0000
  H   H2777     1.0  0.88297  0.70561  0.53844  1.0000
  Fe  Fe467     1.0  0.64042  0.97008  0.71220  1.0000
  C   C2775     1.0  0.66634  0.94580  0.64311  1.0000
  C   C2776     1.0  0.97353  0.71431  0.60074  1.0000
  H   H2778     1.0  0.62006  0.92003  0.56055  1.0000
  H   H2779     1.0  0.94140  0.68216  0.58379  1.0000
  C   C2777     1.0  0.75611  0.85379  0.57402  1.0000
  C   C2778     1.0  0.66070  0.91330  0.64035  1.0000
  C   C2779     1.0  0.63275  0.96687  0.50931  1.0000
  C   C2780     1.0  0.60780  0.94191  0.57424  1.0000
  C   C2781     1.0  0.96895  0.67996  0.56916  1.0000
  C   C2782     1.0  0.91355  0.86887  0.48610  1.0000
  H   H2780     1.0  0.70028  0.86419  0.49857  1.0000
  S   S934      1.0  0.94670  0.66017  0.62419  1.0000
  S   S935      1.0  0.66404  0.86100  0.49156  1.0000
  H   H2781     1.0  0.66872  0.95832  0.64457  1.0000
  C   C2783     1.0  0.98174  0.66358  0.61697  1.0000
  H   H2782     1.0  0.87033  0.74472  0.52921  1.0000
  Fe  Fe468     1.0  0.63410  0.86825  0.49500  1.0000
  C   C2784     1.0  0.62460  0.96541  0.56738  1.0000
  H   H2783     1.0  0.65796  0.93863  0.53059  1.0000
  H   H2784     1.0  0.59593  0.93644  0.58123  1.0000
  Fe  Fe469     1.0  0.96229  0.84194  0.48086  1.0000
  H   H2785     1.0  0.58605  0.86638  0.51596  1.0000
  C   C2785     1.0  0.86050  0.69291  0.54345  1.0000
  H   H2786     1.0  0.67707  0.75387  0.70607  1.0000
  H   H2787     1.0  0.83562  0.68427  0.54731  1.0000
  S   S936      1.0  0.97658  0.77583  0.51064  1.0000
  H   H2788     1.0  0.64855  0.86300  0.71187  1.0000
  H   H2789     1.0  0.86665  0.68072  0.55172  1.0000
  C   C2786     1.0  0.86970  0.70703  0.53584  1.0000
  C   C2787     1.0  0.98562  0.76339  0.52947  1.0000
  Fe  Fe470     1.0  0.98501  0.83756  0.50861  1.0000
  C   C2788     1.0  0.84303  0.69497  0.54108  1.0000
  C   C2789     1.0  0.58701  0.89439  0.50746  1.0000
  H   H2790     1.0  0.64955  0.96176  0.54825  1.0000
  H   H2791     1.0  0.97237  0.72834  0.59292  1.0000
  H   H2792     1.0  0.65625  0.83000  0.72323  1.0000
  C   C2790     1.0  0.78852  0.80398  0.48260  1.0000
  C   C2791     1.0  0.62003  0.97818  0.51985  1.0000
  H   H2793     1.0  0.59338  0.89449  0.51811  1.0000
  H   H2794     1.0  0.98581  0.86744  0.53039  1.0000
  C   C2792     1.0  0.64179  0.80946  0.72528  1.0000
  C   C2793     1.0  0.96964  0.65462  0.61436  1.0000
  H   H2795     1.0  0.98687  0.71004  0.60465  1.0000
  H   H2796     1.0  0.99040  0.88889  0.54639  1.0000
  S   S937      1.0  0.83591  0.77373  0.49423  1.0000
  H   H2797     1.0  0.82140  0.71282  0.52923  1.0000
  H   H2798     1.0  0.97531  0.78405  0.54500  1.0000
  H   H2799     1.0  0.59395  0.98156  0.53741  1.0000
  C   C2794     1.0  0.58332  0.91003  0.49470  1.0000
  C   C2795     1.0  0.64220  0.86713  0.72456  1.0000
  S   S938      1.0  0.62007  0.84891  0.48982  1.0000
  C   C2796     1.0  0.70979  0.86027  0.48684  1.0000
  C   C2797     1.0  0.64818  0.88011  0.72939  1.0000
  H   H2800     1.0  0.90639  0.83709  0.48664  1.0000
  H   H2801     1.0  0.55598  0.86119  0.50054  1.0000
  H   H2802     1.0  0.58698  0.92225  0.49538  1.0000
  H   H2803     1.0  0.98921  0.76698  0.57049  1.0000
  S   S939      1.0  0.63325  0.89685  0.48033  1.0000
  C   C2798     1.0  0.99103  0.76101  0.55903  1.0000
  C   C2799     1.0  0.57509  0.90981  0.48106  1.0000
  C   C2800     1.0  0.57062  0.89387  0.48044  1.0000
  S   S940      1.0  0.62995  0.94545  0.72840  1.0000
  H   H2804     1.0  0.68622  0.79361  0.72924  1.0000
  H   H2805     1.0  0.59583  0.92287  0.78743  1.0000
  H   H2806     1.0  0.54632  0.77117  0.82781  1.0000
  S   S941      1.0  0.69527  0.68538  0.83470  1.0000
  Fe  Fe471     1.0  0.61806  0.78846  0.76650  1.0000
  S   S942      1.0  0.63350  0.77282  0.78779  1.0000
  H   H2807     1.0  0.50256  0.75370  0.83266  1.0000
  Fe  Fe472     1.0  0.58540  0.77064  0.78463  1.0000
  S   S943      1.0  0.59863  0.75369  0.80708  1.0000
  S   S944      1.0  0.55564  0.77143  0.78855  1.0000
  Fe  Fe473     1.0  0.60730  0.77873  0.80707  1.0000
  S   S945      1.0  0.60240  0.79027  0.83156  1.0000
  Fe  Fe474     1.0  0.62340  0.74946  0.78544  1.0000
  S   S946      1.0  0.64113  0.72238  0.78246  1.0000
  S   S947      1.0  0.59254  0.79603  0.78609  1.0000
  S   S948      1.0  0.60960  0.76468  0.76261  1.0000
  Fe  Fe475     1.0  0.59751  0.88887  0.82451  1.0000
  S   S949      1.0  0.58821  0.88309  0.85439  1.0000
  S   S950      1.0  0.61605  0.86958  0.80779  1.0000
  Fe  Fe476     1.0  0.57821  0.92764  0.82075  1.0000
  S   S951      1.0  0.56666  0.92527  0.85027  1.0000
  S   S952      1.0  0.57517  0.95414  0.80131  1.0000
  Fe  Fe477     1.0  0.59422  0.90977  0.85341  1.0000
  S   S953      1.0  0.60739  0.91390  0.87391  1.0000
  Fe  Fe478     1.0  0.56138  0.89893  0.84882  1.0000
  S   S954      1.0  0.53757  0.88750  0.86627  1.0000
  S   S955      1.0  0.60627  0.91399  0.82402  1.0000
  S   S956      1.0  0.57028  0.90280  0.81882  1.0000
  H   H2808     1.0  0.52609  0.77693  0.84419  1.0000
  C   C2801     1.0  0.52515  0.83079  0.82741  1.0000
  H   H2809     1.0  0.50889  0.81125  0.83225  1.0000
  H   H2810     1.0  0.62791  0.67969  0.81408  1.0000
  H   H2811     1.0  0.61643  0.94878  0.80407  1.0000
  H   H2812     1.0  0.49999  0.78517  0.79926  1.0000
  C   C2802     1.0  0.54261  0.83377  0.82386  1.0000
  S   S957      1.0  0.52893  0.71019  0.76974  1.0000
  H   H2813     1.0  0.64677  0.69348  0.85420  1.0000
  C   C2803     1.0  0.55409  0.80210  0.82435  1.0000
  Fe  Fe479     1.0  0.70688  0.65590  0.83530  1.0000
  H   H2814     1.0  0.57085  0.82147  0.81927  1.0000
  N   N233      1.0  0.53688  0.79932  0.82790  1.0000
  C   C2804     1.0  0.63929  0.97757  0.76100  1.0000
  C   C2805     1.0  0.55720  0.81935  0.82219  1.0000
  C   C2806     1.0  0.61499  0.93426  0.86786  1.0000
  C   C2807     1.0  0.61407  0.94535  0.85101  1.0000
  H   H2815     1.0  0.59839  0.98222  0.92983  1.0000
  H   H2816     1.0  0.60136  0.87583  0.89036  1.0000
  H   H2817     1.0  0.51368  0.84186  0.82861  1.0000
  H   H2818     1.0  0.57980  0.94930  0.92216  1.0000
  H   H2819     1.0  0.60879  0.94140  0.84157  1.0000
  C   C2808     1.0  0.63462  0.67545  0.82534  1.0000
  C   C2809     1.0  0.51082  0.88647  0.82906  1.0000
  C   C2810     1.0  0.51208  0.87018  0.86474  1.0000
  C   C2811     1.0  0.52311  0.88996  0.83725  1.0000
  H   H2820     1.0  0.53176  0.89928  0.82986  1.0000
  C   C2812     1.0  0.58866  0.95172  0.78019  1.0000
  C   C2813     1.0  0.59132  0.96695  0.76673  1.0000
  C   C2814     1.0  0.54911  0.67179  0.82505  1.0000
  C   C2815     1.0  0.52358  0.88202  0.85518  1.0000
  H   H2821     1.0  0.65510  0.95248  0.75433  1.0000
  C   C2816     1.0  0.59793  0.93469  0.77719  1.0000
  N   N234      1.0  0.66732  0.75132  0.73438  1.0000
  S   S958      1.0  0.49758  0.69338  0.81488  1.0000
  C   C2817     1.0  0.60643  0.81221  0.82518  1.0000
  C   C2818     1.0  0.61831  0.81737  0.80913  1.0000
  C   C2819     1.0  0.62132  0.83497  0.80398  1.0000
  C   C2820     1.0  0.61188  0.84768  0.81447  1.0000
  C   C2821     1.0  0.59969  0.84265  0.83034  1.0000
  C   C2822     1.0  0.59725  0.82483  0.83588  1.0000
  H   H2822     1.0  0.62542  0.80771  0.80079  1.0000
  H   H2823     1.0  0.63089  0.83874  0.79178  1.0000
  H   H2824     1.0  0.59224  0.85240  0.83843  1.0000
  H   H2825     1.0  0.58788  0.82093  0.84821  1.0000
  C   C2823     1.0  0.54886  0.75355  0.78413  1.0000
  C   C2824     1.0  0.56026  0.74284  0.77237  1.0000
  C   C2825     1.0  0.55401  0.72953  0.76809  1.0000
  C   C2826     1.0  0.53646  0.72668  0.77575  1.0000
  C   C2827     1.0  0.52527  0.73697  0.78799  1.0000
  C   C2828     1.0  0.53142  0.75046  0.79205  1.0000
  H   H2826     1.0  0.57370  0.74515  0.76618  1.0000
  H   H2827     1.0  0.56274  0.72156  0.75865  1.0000
  H   H2828     1.0  0.51182  0.73467  0.79414  1.0000
  H   H2829     1.0  0.52270  0.75847  0.80141  1.0000
  Fe  Fe480     1.0  0.50214  0.70350  0.78507  1.0000
  C   C2829     1.0  0.52252  0.81340  0.82942  1.0000
  H   H2830     1.0  0.65892  0.75193  0.76220  1.0000
  C   C2830     1.0  0.68123  0.69613  0.81925  1.0000
  C   C2831     1.0  0.67952  0.68732  0.80664  1.0000
  C   C2832     1.0  0.66750  0.69572  0.79511  1.0000
  C   C2833     1.0  0.65703  0.71291  0.79619  1.0000
  C   C2834     1.0  0.65893  0.72189  0.80858  1.0000
  C   C2835     1.0  0.67107  0.71352  0.82004  1.0000
  H   H2831     1.0  0.68745  0.67403  0.80575  1.0000
  H   H2832     1.0  0.66613  0.68875  0.78549  1.0000
  H   H2833     1.0  0.65089  0.73515  0.80953  1.0000
  H   H2834     1.0  0.67237  0.72042  0.82975  1.0000
  C   C2836     1.0  0.64486  0.95891  0.76421  1.0000
  S   S959      1.0  0.49350  0.68075  0.77927  1.0000
  C   C2837     1.0  0.63254  0.87181  0.85996  1.0000
  C   C2838     1.0  0.63973  0.86596  0.84375  1.0000
  C   C2839     1.0  0.62811  0.83888  0.85701  1.0000
  C   C2840     1.0  0.63763  0.84931  0.84237  1.0000
  H   H2835     1.0  0.63397  0.88492  0.86084  1.0000
  H   H2836     1.0  0.64651  0.87444  0.83219  1.0000
  N   N235      1.0  0.74478  0.66396  0.89081  1.0000
  H   H2837     1.0  0.64287  0.84476  0.82976  1.0000
  C   C2841     1.0  0.75719  0.65943  0.87608  1.0000
  H   H2838     1.0  0.58540  0.96526  0.94090  1.0000
  N   N236      1.0  0.62042  0.86445  0.75239  1.0000
  C   C2842     1.0  0.68125  0.78152  0.73075  1.0000
  N   N237      1.0  0.64223  0.65777  0.83075  1.0000
  H   H2839     1.0  0.61736  0.91973  0.75878  1.0000
  H   H2840     1.0  0.62590  0.82619  0.85579  1.0000
  C   C2843     1.0  0.62092  0.84523  0.87296  1.0000
  H   H2841     1.0  0.66021  0.66122  0.86408  1.0000
  H   H2842     1.0  0.61962  0.88174  0.76967  1.0000
  H   H2843     1.0  0.52549  0.78114  0.82071  1.0000
  C   C2844     1.0  0.53360  0.78123  0.83032  1.0000
  H   H2844     1.0  0.63007  0.70255  0.82938  1.0000
  N   N238      1.0  0.62346  0.86137  0.87437  1.0000
  C   C2845     1.0  0.60599  0.85585  0.76446  1.0000
  C   C2846     1.0  0.58176  0.97313  0.87952  1.0000
  H   H2845     1.0  0.73957  0.65655  0.91941  1.0000
  H   H2846     1.0  0.64490  0.73860  0.74211  1.0000
  H   H2847     1.0  0.51239  0.86403  0.87864  1.0000
  H   H2848     1.0  0.61310  0.83727  0.88411  1.0000
  H   H2849     1.0  0.73058  0.67372  0.84523  1.0000
  H   H2850     1.0  0.63207  0.96046  0.88514  1.0000
  C   C2847     1.0  0.62708  0.95626  0.87562  1.0000
  C   C2848     1.0  0.65964  0.73555  0.73654  1.0000
  H   H2851     1.0  0.62306  0.87719  0.89289  1.0000
  C   C2849     1.0  0.58116  0.96056  0.91095  1.0000
  H   H2852     1.0  0.77088  0.65266  0.87717  1.0000
  H   H2853     1.0  0.64430  0.89583  0.74930  1.0000
  C   C2850     1.0  0.62306  0.95698  0.79219  1.0000
  H   H2854     1.0  0.76198  0.65857  0.84802  1.0000
  H   H2855     1.0  0.59419  0.85897  0.75808  1.0000
  C   C2851     1.0  0.61997  0.96165  0.84635  1.0000
  H   H2856     1.0  0.70824  0.68192  0.87191  1.0000
  H   H2857     1.0  0.62241  0.93111  0.89316  1.0000
  C   C2852     1.0  0.66565  0.75821  0.74912  1.0000
  C   C2853     1.0  0.60382  0.96518  0.75060  1.0000
  C   C2854     1.0  0.63578  0.68849  0.83397  1.0000
  H   H2858     1.0  0.54479  0.84721  0.82242  1.0000
  C   C2855     1.0  0.75227  0.66281  0.85950  1.0000
  H   H2859     1.0  0.61943  0.97009  0.83325  1.0000
  C   C2856     1.0  0.49909  0.87492  0.83870  1.0000
  C   C2857     1.0  0.72205  0.67569  0.87304  1.0000
  C   C2858     1.0  0.62165  0.93966  0.88011  1.0000
  C   C2859     1.0  0.62629  0.96724  0.85867  1.0000
  C   C2860     1.0  0.61013  0.93291  0.76097  1.0000
  C   C2861     1.0  0.73461  0.67107  0.85799  1.0000
  H   H2860     1.0  0.71756  0.67562  0.90113  1.0000
  H   H2861     1.0  0.56554  0.79097  0.82317  1.0000
  S   S960      1.0  0.63064  0.81087  0.74747  1.0000
  H   H2862     1.0  0.66589  0.72409  0.74610  1.0000
  H   H2863     1.0  0.53769  0.67372  0.78583  1.0000
  C   C2862     1.0  0.63678  0.94853  0.77995  1.0000
  H   H2864     1.0  0.49628  0.66248  0.84490  1.0000
  C   C2863     1.0  0.54119  0.66795  0.79884  1.0000
  C   C2864     1.0  0.67242  0.77351  0.74752  1.0000
  C   C2865     1.0  0.54476  0.67909  0.80823  1.0000
  H   H2865     1.0  0.62372  0.84914  0.73258  1.0000
  H   H2866     1.0  0.64065  0.93399  0.78236  1.0000
  H   H2867     1.0  0.57757  0.94638  0.89232  1.0000
  C   C2866     1.0  0.64507  0.68339  0.84794  1.0000
  C   C2867     1.0  0.63990  0.88551  0.74562  1.0000
  H   H2868     1.0  0.60148  0.86042  0.77745  1.0000
  C   C2868     1.0  0.57972  0.95886  0.89414  1.0000
  C   C2869     1.0  0.62594  0.87750  0.75704  1.0000
  H   H2869     1.0  0.55155  0.68036  0.83261  1.0000
  C   C2870     1.0  0.72740  0.67205  0.88945  1.0000
  C   C2871     1.0  0.65267  0.66534  0.85343  1.0000
  H   H2870     1.0  0.61081  0.84101  0.76750  1.0000
  H   H2871     1.0  0.61475  0.85691  0.90291  1.0000
  C   C2872     1.0  0.61526  0.86808  0.89098  1.0000
  H   H2872     1.0  0.54392  0.69333  0.80255  1.0000
  C   C2873     1.0  0.55022  0.65344  0.83208  1.0000
  H   H2873     1.0  0.67052  0.77929  0.75915  1.0000
  C   C2874     1.0  0.61335  0.94815  0.74780  1.0000
  H   H2874     1.0  0.51017  0.89305  0.81531  1.0000
  H   H2875     1.0  0.58114  0.97179  0.86634  1.0000
  C   C2875     1.0  0.58564  0.97799  0.93077  1.0000
  H   H2876     1.0  0.59711  0.97408  0.81298  1.0000
  H   H2877     1.0  0.75312  0.67352  0.90960  1.0000
  N   N239      1.0  0.61743  0.97527  0.78875  1.0000
  C   C2876     1.0  0.62821  0.85939  0.73630  1.0000
  C   C2877     1.0  0.65088  0.65261  0.84480  1.0000
  N   N240      1.0  0.58440  0.97610  0.91312  1.0000
  C   C2878     1.0  0.75026  0.66099  0.90795  1.0000
  C   C2879     1.0  0.49997  0.86649  0.85646  1.0000
  H   H2878     1.0  0.60606  0.97696  0.74037  1.0000
  H   H2879     1.0  0.58399  0.98012  0.76892  1.0000
  H   H2880     1.0  0.51352  0.65368  0.86924  1.0000
  C   C2880     1.0  0.60237  0.98397  0.80114  1.0000
