data_image0
_chemical_formula_structural       FeS2FeS2FeSFeS3CHSH3C7H4C4SCH2CHC4HCHC6H4CHCNH2CHC3HC2HC2NSHCHCH3CH3CH2SCHCH3CSHFeH2CFeS2FeS2FeSFeS3HSCHSFeSFeSHCNFeS2CSFeS2CH2C3H5C6H4C2H2FeCHNHC6H4CHCHCSNC3HCH2CH3NC4H2C2H2CHC2HC2HCHCHC4HC2HCHCHFeH2SH3C2HCNCH2FeHCH2FeS2FeS2FeSFeS3CHS3HC7H4C2H2C3FeH2C4H3C6H4C2H2CH2CH2C2H2C4HCH5N2CHC3HCH6CHC2SCSC3FeS2FeS2FeSFeS3CSHFeSFeSFeSH2FeHSHCSFeS2H3C3HCH2C7H4C2HCH3CHC6H4CHC2HNCHC4H4NC2HC3HSHC2H8C3NCHC3N2CHCHC2HFeH2CH2C2H3SCFeCH3CNCH4SNHCH2CHSHNCH2C3HC2H2SCSH2CHCSC5H3FeHS2HC3H5CHCHCHC2SHSCSCFeS2HC2H2C2H2SFeS2CSFeSFeHNC3SHCHFeS3CHC3SHCHC3HCHC2H2C4H3SCHC5NHCHFeCHCHFeCH2SFeHCFeH3NCH2C2SHCNSH2C3SC2H2FeH7C2H2CH2FeHCNSHNSCFeSH2SCSHSC2SHCHNSCNC2HCSC4HCH6NH2C3HCHFeCH4CHCHSH2CHCH2CHC2HCSH2CFe2S2HC2H2C2H2C2SH2SFeSFe2CHC2SH2Fe2S2HC5H3SC5SH2C3HCH3NHC2HCH2CSCFeC2SFeCH2CH2S2H2CH2SCNC6H4SC3HCNCFeH2CH2CHCS2FeSFeS2HSC2HSH2CH2FeCHC8H4C2H2CHNCHCH2CHCSCH2FeCH3SHCNHNHSHCH2CHCHFeSC2SCFeSFeS3FeS2C2FeHSC2H5C6H4CFeH2SHCNC6HC2HSHNC6H7CH2SHC2H2FeHNH3FeHCHCHCHC3HC2FeS3CSHCSCHCSC2FeHSHC6H5CH2CH2CHNHCFeCFeC2HSH6CFeC2H3CHSCHNC3FeSFeCSCFeSFeS2HFeS2C3H3C2H2C8H5CHCSC3HCH4CSNC2HCFeC3S2HCH4CNH2CFeHNHSHC2H6CH2CH3C2H2
_chemical_formula_sum              "Fe80 S160 C480 H480 N40"
_cell_length_a       62.3436
_cell_length_b       62.4933
_cell_length_c       28.4039
_cell_angle_alpha    88.7813
_cell_angle_beta     88.7253
_cell_angle_gamma    123.067

_space_group_name_H-M_alt    "P 1"
_space_group_IT_number       1

loop_
  _space_group_symop_operation_xyz
  'x, y, z'

loop_
  _atom_site_type_symbol
  _atom_site_label
  _atom_site_symmetry_multiplicity
  _atom_site_fract_x
  _atom_site_fract_y
  _atom_site_fract_z
  _atom_site_occupancy
  Fe  Fe1       1.0  0.16719  0.32164  0.26228  1.0000
  S   S1        1.0  0.17454  0.35906  0.23293  1.0000
  S   S2        1.0  0.16856  0.30956  0.33893  1.0000
  Fe  Fe2       1.0  0.16431  0.30124  0.16192  1.0000
  S   S3        1.0  0.17105  0.33694  0.12663  1.0000
  S   S4        1.0  0.16678  0.27431  0.11271  1.0000
  Fe  Fe3       1.0  0.20105  0.35766  0.17950  1.0000
  S   S5        1.0  0.23976  0.39165  0.15422  1.0000
  Fe  Fe4       1.0  0.14385  0.33500  0.18185  1.0000
  S   S6        1.0  0.11119  0.33851  0.15858  1.0000
  S   S7        1.0  0.19616  0.32233  0.21197  1.0000
  S   S8        1.0  0.13462  0.29732  0.21425  1.0000
  C   C1        1.0  0.22336  0.37415  0.33361  1.0000
  H   H1        1.0  0.22148  0.33082  0.34718  1.0000
  S   S9        1.0  0.12534  0.43368  0.04140  1.0000
  H   H2        1.0  0.12390  0.19901  0.01601  1.0000
  H   H3        1.0  0.22106  0.36786  0.37135  1.0000
  H   H4        1.0  0.13213  0.18668  0.13006  1.0000
  C   C2        1.0  0.26255  0.34855  0.25234  1.0000
  C   C3        1.0  0.11557  0.36563  0.12785  1.0000
  C   C4        1.0  0.09403  0.36462  0.11090  1.0000
  C   C5        1.0  0.09676  0.38524  0.08408  1.0000
  C   C6        1.0  0.12105  0.40736  0.07506  1.0000
  C   C7        1.0  0.14258  0.40861  0.09278  1.0000
  C   C8        1.0  0.13990  0.38773  0.11864  1.0000
  H   H5        1.0  0.07514  0.34765  0.11809  1.0000
  H   H6        1.0  0.08002  0.38410  0.07097  1.0000
  H   H7        1.0  0.16143  0.42574  0.08628  1.0000
  H   H8        1.0  0.15660  0.38879  0.13180  1.0000
  C   C9        1.0  0.26014  0.38516  0.12251  1.0000
  C   C10       1.0  0.25498  0.36041  0.12183  1.0000
  C   C11       1.0  0.27167  0.35572  0.09703  1.0000
  C   C12       1.0  0.26579  0.37200  0.24111  1.0000
  S   S10       1.0  0.07632  0.45218  0.99947  1.0000
  C   C13       1.0  0.28215  0.40518  0.09830  1.0000
  H   H9        1.0  0.23811  0.34482  0.14031  1.0000
  H   H10       1.0  0.26748  0.33648  0.09656  1.0000
  C   C14       1.0  0.29336  0.37560  0.07190  1.0000
  H   H11       1.0  0.16742  0.36683  0.45612  1.0000
  C   C15       1.0  0.16857  0.32053  0.39667  1.0000
  C   C16       1.0  0.16721  0.34181  0.40450  1.0000
  C   C17       1.0  0.16836  0.35028  0.45073  1.0000
  C   C18       1.0  0.17078  0.30775  0.43590  1.0000
  H   H12       1.0  0.16521  0.35175  0.37502  1.0000
  C   C19       1.0  0.12059  0.16711  0.11890  1.0000
  H   H13       1.0  0.17179  0.29122  0.43049  1.0000
  C   C20       1.0  0.13940  0.24625  0.09305  1.0000
  C   C21       1.0  0.14250  0.23241  0.05819  1.0000
  C   C22       1.0  0.12125  0.20962  0.04243  1.0000
  C   C23       1.0  0.09674  0.20034  0.06183  1.0000
  C   C24       1.0  0.09363  0.21422  0.09651  1.0000
  C   C25       1.0  0.11486  0.23718  0.11192  1.0000
  H   H14       1.0  0.16147  0.23929  0.04364  1.0000
  H   H15       1.0  0.23341  0.39529  0.33203  1.0000
  H   H16       1.0  0.07473  0.20716  0.11172  1.0000
  H   H17       1.0  0.11227  0.24767  0.13884  1.0000
  C   C26       1.0  0.25263  0.38009  0.26805  1.0000
  H   H18       1.0  0.20398  0.36573  0.31956  1.0000
  C   C27       1.0  0.11667  0.13149  0.07910  1.0000
  N   N1        1.0  0.23742  0.36566  0.30630  1.0000
  H   H19       1.0  0.09595  0.03866  0.02285  1.0000
  H   H20       1.0  0.27207  0.34177  0.23072  1.0000
  C   C28       1.0  0.17165  0.31604  0.48220  1.0000
  H   H21       1.0  0.24344  0.31517  0.29942  1.0000
  C   C29       1.0  0.09401  0.15280  0.12721  1.0000
  C   C30       1.0  0.23415  0.34263  0.31767  1.0000
  C   C31       1.0  0.17053  0.33747  0.48998  1.0000
  H   H22       1.0  0.00875  0.46291  0.02251  1.0000
  C   C32       1.0  0.22101  0.36081  0.03030  1.0000
  C   C33       1.0  0.13194  0.15633  0.09465  1.0000
  H   H23       1.0  0.21012  0.36712  0.04876  1.0000
  C   C34       1.0  0.11881  0.35923  0.00789  1.0000
  C   C35       1.0  0.24294  0.37827  0.00287  1.0000
  N   N2        1.0  0.07918  0.12842  0.11196  1.0000
  S   S11       1.0  0.06985  0.17080  0.04565  1.0000
  H   H24       1.0  0.12517  0.12298  0.05949  1.0000
  C   C36       1.0  0.05124  0.11432  0.11893  1.0000
  H   H25       1.0  0.04232  0.09334  0.11805  1.0000
  C   C37       1.0  0.24658  0.33369  0.29083  1.0000
  H   H26       1.0  0.04582  0.11843  0.15348  1.0000
  H   H27       1.0  0.04316  0.12013  0.09064  1.0000
  H   H28       1.0  0.08521  0.16169  0.14435  1.0000
  C   C38       1.0  0.09015  0.11777  0.08788  1.0000
  H   H29       1.0  0.07841  0.09867  0.07470  1.0000
  H   H30       1.0  0.15248  0.16734  0.08731  1.0000
  H   H31       1.0  0.27790  0.38360  0.21095  1.0000
  C   C39       1.0  0.29863  0.40040  0.07278  1.0000
  H   H32       1.0  0.25440  0.39782  0.25762  1.0000
  H   H33       1.0  0.09348  0.32294  0.04505  1.0000
  S   S12       1.0  0.09476  0.08227  0.99367  1.0000
  C   C40       1.0  0.09523  0.33628  0.01766  1.0000
  H   H34       1.0  0.13518  0.36319  0.02771  1.0000
  C   C41       1.0  0.21388  0.33545  0.03532  1.0000
  H   H35       1.0  0.05535  0.31370  0.00102  1.0000
  H   H36       1.0  0.28642  0.42444  0.09910  1.0000
  H   H37       1.0  0.24859  0.39804  0.99986  1.0000
  C   C42       1.0  0.22874  0.32790  0.01305  1.0000
  S   S13       1.0  0.00426  0.41041  0.00877  1.0000
  H   H38       1.0  0.19726  0.32180  0.05739  1.0000
  Fe  Fe5       1.0  0.09437  0.42946  0.99446  1.0000
  H   H39       1.0  0.22370  0.30839  0.01802  1.0000
  H   H40       1.0  0.15864  0.40576  0.99484  1.0000
  C   C43       1.0  0.07383  0.33123  0.99330  1.0000
  Fe  Fe6       1.0  0.16630  0.35654  0.71934  1.0000
  S   S14       1.0  0.20035  0.36619  0.67274  1.0000
  S   S15       1.0  0.16662  0.38922  0.75334  1.0000
  Fe  Fe7       1.0  0.14141  0.29937  0.70843  1.0000
  S   S16       1.0  0.17304  0.30454  0.65999  1.0000
  S   S17       1.0  0.10710  0.26195  0.73736  1.0000
  Fe  Fe8       1.0  0.19891  0.33375  0.71198  1.0000
  S   S18       1.0  0.22966  0.33101  0.74792  1.0000
  Fe  Fe9       1.0  0.17158  0.33649  0.62436  1.0000
  S   S19       1.0  0.17233  0.34953  0.54737  1.0000
  S   S20       1.0  0.16710  0.32653  0.76184  1.0000
  S   S21       1.0  0.13766  0.32888  0.66966  1.0000
  H   H41       1.0  0.28991  0.40860  0.96707  1.0000
  S   S22       1.0  0.07670  0.11079  0.88401  1.0000
  C   C44       1.0  0.97898  0.40708  0.97561  1.0000
  H   H42       1.0  0.15672  0.22094  0.91267  1.0000
  S   S23       1.0  0.06199  0.15205  0.91443  1.0000
  Fe  Fe10      1.0  0.04230  0.10945  0.91367  1.0000
  S   S24       1.0  0.00546  0.08386  0.87729  1.0000
  Fe  Fe11      1.0  0.09723  0.15329  0.89132  1.0000
  S   S25       1.0  0.12584  0.18186  0.83594  1.0000
  H   H43       1.0  0.14334  0.27736  0.86309  1.0000
  C   C45       1.0  0.13423  0.39364  0.66435  1.0000
  N   N3        1.0  0.14451  0.38729  0.62850  1.0000
  Fe  Fe12      1.0  0.08553  0.10929  0.95954  1.0000
  S   S26       1.0  0.05071  0.42840  0.89698  1.0000
  S   S27       1.0  0.09405  0.99572  0.87778  1.0000
  C   C46       1.0  0.10008  0.37182  0.95091  1.0000
  S   S28       1.0  0.05772  0.39352  0.97649  1.0000
  Fe  Fe13      1.0  0.07106  0.40765  0.90122  1.0000
  S   S29       1.0  0.06814  0.37869  0.85024  1.0000
  S   S30       1.0  0.10839  0.44264  0.91937  1.0000
  C   C47       1.0  0.02508  0.99852  0.93423  1.0000
  H   H44       1.0  0.20855  0.27834  0.80890  1.0000
  H   H45       1.0  0.17844  0.41964  0.59793  1.0000
  C   C48       1.0  0.09423  0.01954  0.91068  1.0000
  C   C49       1.0  0.09342  0.03900  0.88681  1.0000
  C   C50       1.0  0.09318  0.05810  0.91182  1.0000
  H   H46       1.0  0.10177  0.38570  0.92503  1.0000
  H   H47       1.0  0.04476  0.00470  0.93952  1.0000
  H   H48       1.0  0.09297  0.03930  0.84874  1.0000
  H   H49       1.0  0.09270  0.07301  0.89293  1.0000
  H   H50       1.0  0.98389  0.01699  0.95629  1.0000
  C   C51       1.0  0.09584  0.38149  0.82505  1.0000
  C   C52       1.0  0.11991  0.40433  0.82600  1.0000
  C   C53       1.0  0.14148  0.40620  0.80467  1.0000
  C   C54       1.0  0.13927  0.38524  0.78260  1.0000
  C   C55       1.0  0.11530  0.36223  0.78227  1.0000
  C   C56       1.0  0.09364  0.36045  0.80320  1.0000
  H   H51       1.0  0.12184  0.42076  0.84210  1.0000
  H   H52       1.0  0.15993  0.42411  0.80478  1.0000
  H   H53       1.0  0.11337  0.34597  0.76525  1.0000
  H   H54       1.0  0.07509  0.34269  0.80239  1.0000
  C   C57       1.0  0.25465  0.35773  0.77596  1.0000
  C   C58       1.0  0.26847  0.35396  0.80985  1.0000
  H   H55       1.0  0.99349  0.07725  0.97813  1.0000
  H   H56       1.0  0.30034  0.37174  0.85580  1.0000
  Fe  Fe14      1.0  0.08696  0.46217  0.92290  1.0000
  C   C59       1.0  0.26190  0.38262  0.76337  1.0000
  H   H57       1.0  0.26297  0.33475  0.81975  1.0000
  N   N4        1.0  0.12087  0.37682  0.97539  1.0000
  H   H58       1.0  0.25138  0.38575  0.73730  1.0000
  C   C60       1.0  0.11334  0.24078  0.76596  1.0000
  C   C61       1.0  0.09591  0.22355  0.80102  1.0000
  C   C62       1.0  0.09965  0.20554  0.82286  1.0000
  C   C63       1.0  0.12075  0.20447  0.80955  1.0000
  C   C64       1.0  0.13832  0.22184  0.77467  1.0000
  C   C65       1.0  0.13475  0.24010  0.75316  1.0000
  H   H59       1.0  0.07931  0.22400  0.81103  1.0000
  H   H60       1.0  0.08599  0.19238  0.84951  1.0000
  H   H61       1.0  0.15476  0.22121  0.76419  1.0000
  H   H62       1.0  0.14827  0.25331  0.72600  1.0000
  C   C66       1.0  0.97988  0.05893  0.91226  1.0000
  H   H63       1.0  0.01299  0.12673  0.81847  1.0000
  C   C67       1.0  0.09421  0.05816  0.96097  1.0000
  H   H64       1.0  0.09015  0.33722  0.58674  1.0000
  C   C68       1.0  0.03230  0.16048  0.77218  1.0000
  S   S31       1.0  0.10970  0.15216  0.96456  1.0000
  N   N5        1.0  0.06890  0.14869  0.75733  1.0000
  C   C69       1.0  0.07161  0.16957  0.73434  1.0000
  C   C70       1.0  0.12497  0.23680  0.92278  1.0000
  C   C71       1.0  0.19177  0.27000  0.83268  1.0000
  H   H65       1.0  0.18242  0.40758  0.65349  1.0000
  C   C72       1.0  0.08792  0.14218  0.74888  1.0000
  H   H66       1.0  0.08828  0.18195  0.71129  1.0000
  H   H67       1.0  0.28917  0.42282  0.77261  1.0000
  C   C73       1.0  0.04791  0.13319  0.78655  1.0000
  H   H68       1.0  0.10717  0.15957  0.73983  1.0000
  H   H69       1.0  0.09020  0.13334  0.78119  1.0000
  H   H70       1.0  0.08199  0.12867  0.71984  1.0000
  N   N6        1.0  0.14787  0.24813  0.89127  1.0000
  C   C74       1.0  0.15499  0.26933  0.86342  1.0000
  C   C75       1.0  0.16253  0.23795  0.89112  1.0000
  C   C76       1.0  0.17706  0.28057  0.83386  1.0000
  C   C77       1.0  0.18451  0.24853  0.86147  1.0000
  H   H71       1.0  0.14658  0.40932  0.68664  1.0000
  H   H72       1.0  0.04540  0.11631  0.80405  1.0000
  C   C78       1.0  0.12890  0.36777  0.59995  1.0000
  C   C79       1.0  0.17235  0.40214  0.61970  1.0000
  H   H73       1.0  0.17334  0.30594  0.51180  1.0000
  H   H74       1.0  0.11576  0.21578  0.92767  1.0000
  C   C80       1.0  0.09177  0.35899  0.64613  1.0000
  H   H75       1.0  0.18255  0.29710  0.81120  1.0000
  C   C81       1.0  0.97875  0.06043  0.96124  1.0000
  C   C82       1.0  0.97770  0.40294  0.92725  1.0000
  H   H76       1.0  0.07125  0.34758  0.65381  1.0000
  C   C83       1.0  0.10776  0.37950  0.67396  1.0000
  C   C84       1.0  0.02260  0.47430  0.95030  1.0000
  H   H77       1.0  0.13698  0.36296  0.57099  1.0000
  C   C85       1.0  0.97447  0.98251  0.92259  1.0000
  H   H78       1.0  0.19545  0.23975  0.86013  1.0000
  C   C86       1.0  0.09488  0.01939  0.95989  1.0000
  H   H79       1.0  0.17858  0.39081  0.60112  1.0000
  C   C87       1.0  0.02941  0.13894  0.79468  1.0000
  C   C88       1.0  0.10234  0.35316  0.60862  1.0000
  C   C89       1.0  0.99091  0.00553  0.94404  1.0000
  C   C90       1.0  0.05343  0.17584  0.74154  1.0000
  H   H80       1.0  0.09573  0.00466  0.97867  1.0000
  C   C91       1.0  0.14562  0.40077  0.96510  1.0000
  C   C92       1.0  0.01641  0.01369  0.94982  1.0000
  H   H81       1.0  0.99227  0.40142  0.90934  1.0000
  C   C93       1.0  0.28335  0.40360  0.78336  1.0000
  H   H82       1.0  0.09982  0.38414  0.70349  1.0000
  C   C94       1.0  0.29748  0.39987  0.81655  1.0000
  H   H83       1.0  0.05613  0.19290  0.72436  1.0000
  Fe  Fe15      1.0  0.04071  0.41750  0.97371  1.0000
  H   H84       1.0  0.05986  0.34535  0.93992  1.0000
  H   H85       1.0  0.01822  0.16530  0.77861  1.0000
  S   S32       1.0  0.04988  0.10560  0.98895  1.0000
  H   H86       1.0  0.14298  0.41688  0.95998  1.0000
  H   H87       1.0  0.13017  0.24551  0.95779  1.0000
  H   H88       1.0  0.15477  0.39913  0.93255  1.0000
  C   C95       1.0  0.28966  0.37493  0.83038  1.0000
  C   C96       1.0  0.09505  0.03873  0.98486  1.0000
  H   H89       1.0  0.11033  0.23965  0.90785  1.0000
  C   C97       1.0  0.25062  0.34590  0.98595  1.0000
  N   N7        1.0  0.25753  0.37076  0.98145  1.0000
  C   C98       1.0  0.07629  0.34899  0.95936  1.0000
  H   H90       1.0  0.26253  0.34010  0.96984  1.0000
  H   H91       1.0  0.02168  0.45676  0.94399  1.0000
  Fe  Fe16      1.0  0.07322  0.14861  0.98729  1.0000
  H   H92       1.0  0.02942  0.03162  0.96634  1.0000
  C   C99       1.0  0.28017  0.38930  0.95220  1.0000
  H   H93       1.0  0.29449  0.38395  0.95073  1.0000
  H   H94       1.0  0.27458  0.39045  0.91583  1.0000
  Fe  Fe17      1.0  0.15902  0.82034  0.26568  1.0000
  S   S33       1.0  0.16782  0.85598  0.22503  1.0000
  S   S34       1.0  0.14522  0.80652  0.34289  1.0000
  Fe  Fe18      1.0  0.16124  0.79525  0.17478  1.0000
  S   S35       1.0  0.17031  0.82856  0.12767  1.0000
  S   S36       1.0  0.16046  0.76114  0.14711  1.0000
  Fe  Fe19      1.0  0.19706  0.85224  0.18367  1.0000
  S   S37       1.0  0.23601  0.88633  0.15918  1.0000
  Fe  Fe20      1.0  0.14058  0.82977  0.17137  1.0000
  S   S38       1.0  0.10838  0.83039  0.13655  1.0000
  S   S39       1.0  0.19039  0.81879  0.22813  1.0000
  S   S40       1.0  0.12938  0.79428  0.21456  1.0000
  C   C100      1.0  0.29131  0.89653  0.06584  1.0000
  H   H95       1.0  0.16766  0.76062  0.25288  1.0000
  S   S41       1.0  0.12102  0.92792  0.03358  1.0000
  S   S42       1.0  0.00177  0.90151  0.00399  1.0000
  S   S43       1.0  0.06410  0.67288  0.04463  1.0000
  H   H96       1.0  0.08167  0.53270  0.03309  1.0000
  C   C101      1.0  0.02768  0.87517  0.08636  1.0000
  C   C102      1.0  0.11374  0.85719  0.10320  1.0000
  C   C103      1.0  0.09411  0.85450  0.07540  1.0000
  C   C104      1.0  0.09663  0.87584  0.05189  1.0000
  C   C105      1.0  0.11871  0.90016  0.05651  1.0000
  C   C106      1.0  0.13869  0.90275  0.08308  1.0000
  C   C107      1.0  0.13628  0.88133  0.10620  1.0000
  H   H97       1.0  0.07663  0.83585  0.07291  1.0000
  H   H98       1.0  0.05897  0.69824  0.21984  1.0000
  H   H99       1.0  0.15587  0.92149  0.08680  1.0000
  H   H100      1.0  0.15154  0.88362  0.12749  1.0000
  C   C108      1.0  0.25570  0.88036  0.12365  1.0000
  C   C109      1.0  0.27285  0.89902  0.08987  1.0000
  H   H101      1.0  0.12999  0.48141  0.07091  1.0000
  H   H102      1.0  0.01031  0.86807  0.06706  1.0000
  C   C110      1.0  0.27557  0.85660  0.10905  1.0000
  C   C111      1.0  0.25671  0.85880  0.13234  1.0000
  C   C112      1.0  0.09700  0.70564  0.21693  1.0000
  Fe  Fe21      1.0  0.06873  0.64788  0.99403  1.0000
  H   H103      1.0  0.27679  0.84032  0.11722  1.0000
  H   H104      1.0  0.24365  0.84435  0.15845  1.0000
  C   C113      1.0  0.15794  0.81860  0.39909  1.0000
  C   C114      1.0  0.18170  0.84142  0.40395  1.0000
  C   C115      1.0  0.19096  0.84996  0.44925  1.0000
  C   C116      1.0  0.14362  0.80459  0.44030  1.0000
  H   H105      1.0  0.19295  0.85247  0.37279  1.0000
  H   H106      1.0  0.20937  0.86763  0.45233  1.0000
  H   H107      1.0  0.12522  0.78691  0.43714  1.0000
  C   C117      1.0  0.13371  0.73727  0.11768  1.0000
  C   C118      1.0  0.13481  0.71756  0.09756  1.0000
  C   C119      1.0  0.11369  0.69789  0.07465  1.0000
  C   C120      1.0  0.09111  0.69750  0.07249  1.0000
  C   C121      1.0  0.08989  0.71707  0.09312  1.0000
  C   C122      1.0  0.11123  0.73709  0.11519  1.0000
  H   H108      1.0  0.15212  0.71755  0.09951  1.0000
  H   H109      1.0  0.11477  0.68280  0.05935  1.0000
  H   H110      1.0  0.07243  0.71684  0.09173  1.0000
  H   H111      1.0  0.11017  0.75215  0.13082  1.0000
  C   C123      1.0  0.13339  0.51761  0.06247  1.0000
  C   C124      1.0  0.12170  0.72052  0.23390  1.0000
  H   H112      1.0  0.12656  0.51710  0.09820  1.0000
  H   H113      1.0  0.10128  0.88944  0.16440  1.0000
  C   C125      1.0  0.07801  0.70919  0.23372  1.0000
  H   H114      1.0  0.27214  0.91570  0.08291  1.0000
  H   H115      1.0  0.16598  0.77247  0.02689  1.0000
  C   C126      1.0  0.03237  0.85824  0.10937  1.0000
  H   H116      1.0  0.09252  0.90820  0.19740  1.0000
  H   H117      1.0  0.11225  0.92106  0.14354  1.0000
  C   C127      1.0  0.15349  0.75409  0.28304  1.0000
  C   C128      1.0  0.14022  0.53819  0.03122  1.0000
  H   H118      1.0  0.15687  0.74284  0.30902  1.0000
  H   H119      1.0  0.13857  0.55364  0.04321  1.0000
  C   C129      1.0  0.04554  0.90140  0.08795  1.0000
  C   C130      1.0  0.09573  0.90358  0.16148  1.0000
  C   C131      1.0  0.29317  0.87563  0.07619  1.0000
  C   C132      1.0  0.29807  0.91759  0.19917  1.0000
  H   H120      1.0  0.06920  0.73017  0.28111  1.0000
  C   C133      1.0  0.06811  0.91040  0.11198  1.0000
  H   H121      1.0  0.12164  0.76058  0.01546  1.0000
  H   H122      1.0  0.04191  0.91464  0.07035  1.0000
  H   H123      1.0  0.11299  0.75561  0.31057  1.0000
  H   H124      1.0  0.01867  0.83779  0.10809  1.0000
  H   H125      1.0  0.13659  0.71825  0.21949  1.0000
  N   N8        1.0  0.12734  0.73852  0.26647  1.0000
  N   N9        1.0  0.07255  0.89369  0.13453  1.0000
  C   C134      1.0  0.10861  0.74151  0.28436  1.0000
  H   H126      1.0  0.08220  0.93083  0.11196  1.0000
  C   C135      1.0  0.05491  0.86790  0.13393  1.0000
  C   C136      1.0  0.13530  0.49760  0.04722  1.0000
  C   C137      1.0  0.08375  0.72711  0.26791  1.0000
  H   H127      1.0  0.05850  0.85464  0.15163  1.0000
  C   C138      1.0  0.15399  0.75768  0.00271  1.0000
  H   H128      1.0  0.29713  0.95049  0.17952  1.0000
  H   H129      1.0  0.15702  0.77159  0.29995  1.0000
  H   H130      1.0  0.09290  0.69209  0.18972  1.0000
  H   H131      1.0  0.07914  0.72855  0.99198  1.0000
  H   H132      1.0  0.08103  0.87356  0.03188  1.0000
  H   H133      1.0  0.01097  0.50328  0.03800  1.0000
  C   C139      1.0  0.08659  0.53596  0.99570  1.0000
  H   H134      1.0  0.28153  0.90956  0.22346  1.0000
  C   C140      1.0  0.15288  0.81313  0.48561  1.0000
  C   C141      1.0  0.12881  0.75076  0.99630  1.0000
  S   S44       1.0  0.09167  0.58181  0.00686  1.0000
  C   C142      1.0  0.01644  0.50026  0.00348  1.0000
  S   S45       1.0  0.04653  0.60486  0.99799  1.0000
  C   C143      1.0  0.14374  0.49828  0.00100  1.0000
  C   C144      1.0  0.01528  0.47773  0.99493  1.0000
  C   C145      1.0  0.17671  0.83587  0.49039  1.0000
  Fe  Fe22      1.0  0.16555  0.85422  0.71352  1.0000
  S   S46       1.0  0.20167  0.86465  0.67341  1.0000
  S   S47       1.0  0.16439  0.88780  0.73831  1.0000
  Fe  Fe23      1.0  0.14332  0.79760  0.70696  1.0000
  S   S48       1.0  0.17741  0.80367  0.66517  1.0000
  S   S49       1.0  0.10872  0.75908  0.73092  1.0000
  Fe  Fe24      1.0  0.20009  0.83378  0.71770  1.0000
  S   S50       1.0  0.23259  0.83388  0.75170  1.0000
  Fe  Fe25      1.0  0.17601  0.83404  0.62362  1.0000
  S   S51       1.0  0.18957  0.84784  0.54654  1.0000
  S   S52       1.0  0.16605  0.82570  0.76188  1.0000
  S   S53       1.0  0.13986  0.82564  0.66142  1.0000
  C   C146      1.0  0.12242  0.71917  0.94314  1.0000
  S   S54       1.0  0.07585  0.60952  0.89554  1.0000
  H   H135      1.0  0.09271  0.85718  0.66212  1.0000
  Fe  Fe26      1.0  0.08316  0.60929  0.97228  1.0000
  S   S55       1.0  0.05874  0.64969  0.91908  1.0000
  Fe  Fe27      1.0  0.04023  0.60707  0.92133  1.0000
  S   S56       1.0  0.00372  0.57770  0.88725  1.0000
  Fe  Fe28      1.0  0.09510  0.65209  0.90039  1.0000
  S   S57       1.0  0.12617  0.68284  0.85062  1.0000
  H   H136      1.0  0.24282  0.87828  0.57453  1.0000
  H   H137      1.0  0.25137  0.80194  0.64096  1.0000
  Fe  Fe29      1.0  0.03849  0.91238  0.96432  1.0000
  H   H138      1.0  0.14569  0.56992  0.96310  1.0000
  S   S58       1.0  0.04724  0.92299  0.88735  1.0000
  H   H139      1.0  0.18175  0.90265  0.63802  1.0000
  C   C147      1.0  0.14751  0.72567  0.94844  1.0000
  S   S59       1.0  0.05665  0.88961  0.96516  1.0000
  Fe  Fe30      1.0  0.06903  0.90373  0.88973  1.0000
  S   S60       1.0  0.06566  0.87416  0.84002  1.0000
  S   S61       1.0  0.10616  0.93942  0.90674  1.0000
  H   H140      1.0  0.15161  0.55467  0.91690  1.0000
  H   H141      1.0  0.11024  0.70417  0.91963  1.0000
  H   H142      1.0  0.97102  0.95017  0.89008  1.0000
  C   C148      1.0  0.09558  0.52227  0.92262  1.0000
  C   C149      1.0  0.10002  0.54453  0.89963  1.0000
  C   C150      1.0  0.09775  0.56246  0.92461  1.0000
  H   H143      1.0  0.15452  0.71571  0.92912  1.0000
  C   C151      1.0  0.13194  0.86656  0.88453  1.0000
  H   H144      1.0  0.10580  0.54823  0.86260  1.0000
  H   H145      1.0  0.10186  0.57987  0.90686  1.0000
  C   C152      1.0  0.09153  0.55844  0.97298  1.0000
  C   C153      1.0  0.09304  0.87839  0.81055  1.0000
  C   C154      1.0  0.11630  0.90214  0.80770  1.0000
  C   C155      1.0  0.13788  0.90480  0.78470  1.0000
  C   C156      1.0  0.13654  0.88366  0.76527  1.0000
  C   C157      1.0  0.11328  0.85989  0.76789  1.0000
  C   C158      1.0  0.09154  0.85734  0.79011  1.0000
  H   H146      1.0  0.11762  0.91854  0.82275  1.0000
  H   H147      1.0  0.15579  0.92329  0.78253  1.0000
  H   H148      1.0  0.11204  0.84348  0.75292  1.0000
  H   H149      1.0  0.07356  0.83892  0.79202  1.0000
  C   C159      1.0  0.25819  0.86124  0.77714  1.0000
  C   C160      1.0  0.27516  0.85858  0.80433  1.0000
  H   H150      1.0  0.18732  0.89090  0.58549  1.0000
  C   C161      1.0  0.13166  0.87715  0.63389  1.0000
  H   H151      1.0  0.17965  0.91496  0.58118  1.0000
  H   H152      1.0  0.07615  0.82434  0.60097  1.0000
  H   H153      1.0  0.27180  0.83983  0.81070  1.0000
  C   C162      1.0  0.25070  0.87077  0.59853  1.0000
  H   H154      1.0  0.18274  0.75002  0.98350  1.0000
  C   C163      1.0  0.11388  0.73854  0.76568  1.0000
  C   C164      1.0  0.09279  0.71594  0.78641  1.0000
  C   C165      1.0  0.09631  0.69892  0.81314  1.0000
  C   C166      1.0  0.12098  0.70421  0.81881  1.0000
  C   C167      1.0  0.14208  0.72693  0.79849  1.0000
  C   C168      1.0  0.13859  0.74413  0.77233  1.0000
  H   H155      1.0  0.07363  0.71145  0.78128  1.0000
  H   H156      1.0  0.07989  0.68137  0.82811  1.0000
  H   H157      1.0  0.16122  0.73121  0.80278  1.0000
  H   H158      1.0  0.15499  0.76151  0.75668  1.0000
  C   C169      1.0  0.97570  0.55443  0.97016  1.0000
  H   H159      1.0  0.08672  0.73525  0.92901  1.0000
  C   C170      1.0  0.03180  0.51480  0.92310  1.0000
  C   C171      1.0  0.13916  0.86025  0.56596  1.0000
  H   H160      1.0  0.12561  0.84863  0.86810  1.0000
  N   N10       1.0  0.03096  0.49281  0.91524  1.0000
  C   C172      1.0  0.08879  0.84748  0.92042  1.0000
  H   H161      1.0  0.15216  0.86094  0.53898  1.0000
  C   C173      1.0  0.97734  0.90135  0.97307  1.0000
  C   C174      1.0  0.14845  0.91284  0.92495  1.0000
  C   C175      1.0  0.28069  0.87713  0.65750  1.0000
  C   C176      1.0  0.26958  0.85071  0.66063  1.0000
  H   H162      1.0  0.13869  0.89136  0.66067  1.0000
  H   H163      1.0  0.03832  0.52949  0.89533  1.0000
  H   H164      1.0  0.14164  0.80201  0.51673  1.0000
  H   H165      1.0  0.15600  0.51901  0.93426  1.0000
  N   N11       1.0  0.14818  0.87769  0.60061  1.0000
  C   C177      1.0  0.97493  0.89736  0.92470  1.0000
  C   C178      1.0  0.17558  0.89760  0.60121  1.0000
  H   H166      1.0  0.18515  0.92648  0.89065  1.0000
  C   C179      1.0  0.28432  0.90709  0.78761  1.0000
  C   C180      1.0  0.23978  0.84441  0.60311  1.0000
  C   C181      1.0  0.08706  0.72455  0.96040  1.0000
  H   H167      1.0  0.22342  0.79637  0.61233  1.0000
  S   S62       1.0  0.10147  0.50166  0.89158  1.0000
  H   H168      1.0  0.17702  0.57485  0.95585  1.0000
  C   C182      1.0  0.16558  0.91036  0.89690  1.0000
  C   C183      1.0  0.98039  0.55153  0.92306  1.0000
  H   H169      1.0  0.14510  0.48270  0.98885  1.0000
  H   H170      1.0  0.27633  0.84295  0.68663  1.0000
  H   H171      1.0  0.98800  0.57253  0.98635  1.0000
  H   H172      1.0  0.17033  0.88506  0.85385  1.0000
  H   H173      1.0  0.22575  0.80048  0.67496  1.0000
  H   H174      1.0  0.05266  0.50673  0.84997  1.0000
  H   H175      1.0  0.08476  0.50081  0.98870  1.0000
  H   H176      1.0  0.10995  0.89416  0.95328  1.0000
  C   C184      1.0  0.10555  0.85794  0.63466  1.0000
  C   C185      1.0  0.29641  0.87997  0.82367  1.0000
  C   C186      1.0  0.27113  0.88718  0.62624  1.0000
  N   N12       1.0  0.14823  0.53854  0.98577  1.0000
  C   C187      1.0  0.98392  0.96798  0.90687  1.0000
  H   H177      1.0  0.00599  0.94618  0.87198  1.0000
  C   C188      1.0  0.02472  0.51894  0.96738  1.0000
  C   C189      1.0  0.30114  0.90434  0.81530  1.0000
  C   C190      1.0  0.23685  0.80700  0.64065  1.0000
  N   N13       1.0  0.11516  0.86931  0.91142  1.0000
  N   N14       1.0  0.24928  0.83471  0.63390  1.0000
  C   C191      1.0  0.15734  0.88707  0.87657  1.0000
  H   H178      1.0  0.03800  0.97281  0.87952  1.0000
  C   C192      1.0  0.09630  0.83957  0.60037  1.0000
  H   H179      1.0  0.24981  0.88784  0.74788  1.0000
  C   C193      1.0  0.26275  0.88558  0.76891  1.0000
  C   C194      1.0  0.12317  0.89200  0.93182  1.0000
  H   H180      1.0  0.10625  0.82661  0.53872  1.0000
  Fe  Fe31      1.0  0.08346  0.95776  0.91151  1.0000
  H   H181      1.0  0.15454  0.93078  0.94124  1.0000
  H   H182      1.0  0.02594  0.53666  0.97371  1.0000
  C   C195      1.0  0.11314  0.84081  0.56551  1.0000
  H   H183      1.0  0.98807  0.89417  0.90557  1.0000
  H   H184      1.0  0.29597  0.88955  0.68052  1.0000
  C   C196      1.0  0.01872  0.96062  0.89735  1.0000
  C   C197      1.0  0.03778  0.48843  0.86833  1.0000
  H   H185      1.0  0.07548  0.85396  0.92557  1.0000
  H   H186      1.0  0.07410  0.70371  0.95507  1.0000
  H   H187      1.0  0.02025  0.95050  0.92845  1.0000
  S   S63       1.0  0.10608  0.65225  0.97542  1.0000
  C   C198      1.0  0.08824  0.51778  0.97050  1.0000
  Fe  Fe32      1.0  0.09280  0.92610  0.98209  1.0000
  C   C199      1.0  0.15613  0.56063  0.95392  1.0000
  H   H188      1.0  0.28785  0.92589  0.78098  1.0000
  H   H189      1.0  0.22335  0.83179  0.58250  1.0000
  H   H190      1.0  0.08185  0.83492  0.88977  1.0000
  C   C200      1.0  0.15005  0.51895  0.97049  1.0000
  N   N15       1.0  0.11328  0.73143  0.96738  1.0000
  C   C201      1.0  0.16332  0.74496  0.97866  1.0000
  H   H191      1.0  0.08772  0.83636  0.95240  1.0000
  H   H192      1.0  0.27923  0.90757  0.62417  1.0000
  H   H193      1.0  0.02049  0.47850  0.84692  1.0000
  H   H194      1.0  0.04607  0.47658  0.87084  1.0000
  S   S64       1.0  0.07378  0.94795  0.98848  1.0000
  N   N16       1.0  0.00900  0.97618  0.91256  1.0000
  H   H195      1.0  0.61557  0.17961  0.07187  1.0000
  C   C202      1.0  0.61371  0.19420  0.08724  1.0000
  H   H196      1.0  0.55320  0.01898  0.06108  1.0000
  H   H197      1.0  0.54372  0.35045  0.12595  1.0000
  C   C203      1.0  0.54238  0.03597  0.00774  1.0000
  H   H198      1.0  0.61771  0.30188  0.43182  1.0000
  S   S65       1.0  0.38649  0.41573  0.99247  1.0000
  H   H199      1.0  0.45728  0.40248  0.02194  1.0000
  N   N17       1.0  0.57422  0.38974  0.12634  1.0000
  C   C204      1.0  0.59168  0.23067  0.27630  1.0000
  H   H200      1.0  0.49713  0.44748  0.01409  1.0000
  H   H201      1.0  0.60305  0.26097  0.02989  1.0000
  C   C205      1.0  0.60139  0.21932  0.24888  1.0000
  C   C206      1.0  0.61250  0.25225  0.01480  1.0000
  C   C207      1.0  0.54569  0.01715  0.02628  1.0000
  H   H202      1.0  0.31549  0.41595  0.05420  1.0000
  C   C208      1.0  0.58788  0.21085  0.10836  1.0000
  C   C209      1.0  0.60905  0.23182  0.12896  1.0000
  H   H203      1.0  0.58918  0.20443  0.22505  1.0000
  H   H204      1.0  0.61200  0.04808  0.02584  1.0000
  S   S66       1.0  0.60698  0.32705  0.11898  1.0000
  C   C210      1.0  0.56228  0.36441  0.13933  1.0000
  S   S67       1.0  0.56365  0.16666  0.05951  1.0000
  H   H205      1.0  0.56974  0.20931  0.10829  1.0000
  H   H206      1.0  0.54737  0.05249  0.02805  1.0000
  C   C211      1.0  0.59025  0.19218  0.08674  1.0000
  H   H207      1.0  0.60720  0.24638  0.14464  1.0000
  C   C212      1.0  0.50045  0.46619  0.01945  1.0000
  S   S68       1.0  0.62590  0.29368  0.20945  1.0000
  C   C213      1.0  0.61290  0.35421  0.08615  1.0000
  C   C214      1.0  0.59363  0.35194  0.05781  1.0000
  C   C215      1.0  0.59618  0.37368  0.03604  1.0000
  C   C216      1.0  0.61803  0.39792  0.04265  1.0000
  C   C217      1.0  0.59778  0.40731  0.14282  1.0000
  H   H208      1.0  0.44991  0.04737  0.02105  1.0000
  H   H209      1.0  0.57626  0.33335  0.05404  1.0000
  H   H210      1.0  0.58079  0.37171  0.01579  1.0000
  Fe  Fe33      1.0  0.57081  0.14562  0.00358  1.0000
  H   H211      1.0  0.54657  0.39905  0.11554  1.0000
  S   S69       1.0  0.31268  0.36839  0.03842  1.0000
  S   S70       1.0  0.62026  0.42602  0.02214  1.0000
  H   H212      1.0  0.56551  0.33573  0.17647  1.0000
  C   C218      1.0  0.57433  0.35598  0.16830  1.0000
  C   C219      1.0  0.56137  0.39800  0.09520  1.0000
  C   C220      1.0  0.54035  0.99659  0.99883  1.0000
  H   H213      1.0  0.57520  0.41704  0.07788  1.0000
  H   H214      1.0  0.60056  0.25921  0.32747  1.0000
  H   H215      1.0  0.62944  0.41335  0.18336  1.0000
  H   H216      1.0  0.57180  0.22465  0.27407  1.0000
  H   H217      1.0  0.54345  0.98229  0.01321  1.0000
  C   C221      1.0  0.62721  0.22772  0.25148  1.0000
  H   H218      1.0  0.60851  0.36718  0.20528  1.0000
  C   C222      1.0  0.59853  0.37367  0.18453  1.0000
  H   H219      1.0  0.55215  0.38449  0.06633  1.0000
  C   C223      1.0  0.60776  0.25000  0.30623  1.0000
  H   H220      1.0  0.46033  0.45282  0.02201  1.0000
  C   C224      1.0  0.63254  0.23386  0.12898  1.0000
  C   C225      1.0  0.47989  0.46920  0.02410  1.0000
  S   S71       1.0  0.55294  0.10320  0.99959  1.0000
  H   H221      1.0  0.60752  0.42732  0.13172  1.0000
  S   S72       1.0  0.41054  0.99543  0.00189  1.0000
  C   C226      1.0  0.61030  0.39954  0.17207  1.0000
  S   S73       1.0  0.60567  0.08888  0.00010  1.0000
  C   C227      1.0  0.63352  0.25804  0.30770  1.0000
  Fe  Fe34      1.0  0.34898  0.42300  0.89307  1.0000
  S   S74       1.0  0.32559  0.42676  0.83758  1.0000
  S   S75       1.0  0.39202  0.44375  0.88840  1.0000
  H   H222      1.0  0.35898  0.00681  0.90024  1.0000
  C   C228      1.0  0.44967  0.00981  0.93600  1.0000
  C   C229      1.0  0.47241  0.02804  0.91101  1.0000
  H   H223      1.0  0.43850  0.99053  0.92422  1.0000
  H   H224      1.0  0.47830  0.02273  0.87961  1.0000
  C   C230      1.0  0.47426  0.39613  0.91117  1.0000
  C   C231      1.0  0.45384  0.39427  0.88707  1.0000
  H   H225      1.0  0.48868  0.39477  0.89217  1.0000
  H   H226      1.0  0.45274  0.39163  0.84947  1.0000
  S   S76       1.0  0.60986  0.25558  0.71688  1.0000
  Fe  Fe35      1.0  0.39055  0.45172  0.96444  1.0000
  S   S77       1.0  0.58505  0.11699  0.89616  1.0000
  S   S78       1.0  0.41059  0.39538  0.87956  1.0000
  C   C232      1.0  0.36949  0.99726  0.90527  1.0000
  S   S79       1.0  0.56076  0.14986  0.92987  1.0000
  Fe  Fe36      1.0  0.54692  0.10839  0.92392  1.0000
  S   S80       1.0  0.51247  0.07666  0.88829  1.0000
  Fe  Fe37      1.0  0.59959  0.15806  0.90972  1.0000
  H   H227      1.0  0.59295  0.07426  0.90249  1.0000
  N   N18       1.0  0.61602  0.36880  0.89910  1.0000
  C   C233      1.0  0.63291  0.36573  0.87333  1.0000
  C   C234      1.0  0.48429  0.46765  0.89519  1.0000
  C   C235      1.0  0.60676  0.04591  0.98937  1.0000
  S   S81       1.0  0.54779  0.42386  0.87618  1.0000
  H   H228      1.0  0.58928  0.03865  0.85821  1.0000
  C   C236      1.0  0.62248  0.21215  0.83366  1.0000
  H   H229      1.0  0.61199  0.37728  0.61481  1.0000
  Fe  Fe38      1.0  0.56904  0.40400  0.87815  1.0000
  S   S82       1.0  0.56574  0.37467  0.82789  1.0000
  S   S83       1.0  0.60622  0.43926  0.89635  1.0000
  S   S84       1.0  0.63042  0.19486  0.87140  1.0000
  C   C237      1.0  0.59606  0.06072  0.91999  1.0000
  H   H230      1.0  0.51749  0.44851  0.90935  1.0000
  C   C238      1.0  0.59790  0.02268  0.91720  1.0000
  C   C239      1.0  0.47581  0.39947  0.95980  1.0000
  C   C240      1.0  0.41319  0.03508  0.89801  1.0000
  S   S85       1.0  0.59544  0.99767  0.88450  1.0000
  H   H231      1.0  0.57279  0.33843  0.78162  1.0000
  C   C241      1.0  0.43500  0.39603  0.91130  1.0000
  H   H232      1.0  0.38100  0.43859  0.72228  1.0000
  C   C242      1.0  0.48700  0.05330  0.92540  1.0000
  C   C243      1.0  0.59304  0.37801  0.79966  1.0000
  C   C244      1.0  0.59104  0.35659  0.77982  1.0000
  H   H233      1.0  0.61086  0.34177  0.74342  1.0000
  C   C245      1.0  0.33168  0.38750  0.74362  1.0000
  H   H234      1.0  0.63160  0.21312  0.70053  1.0000
  C   C246      1.0  0.61414  0.23963  0.76430  1.0000
  C   C247      1.0  0.61665  0.40143  0.79690  1.0000
  H   H235      1.0  0.61839  0.41810  0.81159  1.0000
  H   H236      1.0  0.32326  0.33238  0.78828  1.0000
  C   C248      1.0  0.62934  0.37922  0.62929  1.0000
  C   C249      1.0  0.59957  0.20004  0.80984  1.0000
  C   C250      1.0  0.59545  0.21377  0.77520  1.0000
  C   C251      1.0  0.61256  0.35846  0.75807  1.0000
  H   H237      1.0  0.58542  0.17991  0.81689  1.0000
  H   H238      1.0  0.57800  0.20414  0.75594  1.0000
  H   H239      1.0  0.46933  0.44769  0.89172  1.0000
  S   S86       1.0  0.34314  0.38546  0.91399  1.0000
  C   C252      1.0  0.35585  0.37033  0.79893  1.0000
  H   H240      1.0  0.42736  0.01079  0.78534  1.0000
  C   C253      1.0  0.44110  0.01683  0.97500  1.0000
  C   C254      1.0  0.36694  0.39644  0.78925  1.0000
  C   C255      1.0  0.59395  0.04048  0.89496  1.0000
  C   C256      1.0  0.51651  0.45774  0.87630  1.0000
  C   C257      1.0  0.32008  0.36124  0.75242  1.0000
  N   N19       1.0  0.39468  0.01219  0.88072  1.0000
  H   H241      1.0  0.50237  0.44276  0.85320  1.0000
  C   C258      1.0  0.60269  0.06365  0.96726  1.0000
  H   H242      1.0  0.60752  0.01198  0.98205  1.0000
  Fe  Fe39      1.0  0.58397  0.45806  0.90188  1.0000
  C   C259      1.0  0.44242  0.04129  0.83409  1.0000
  H   H243      1.0  0.54012  0.98111  0.89322  1.0000
  C   C260      1.0  0.52856  0.01321  0.93572  1.0000
  H   H244      1.0  0.58282  0.33418  0.87787  1.0000
  Fe  Fe40      1.0  0.38605  0.40696  0.91636  1.0000
  C   C261      1.0  0.33221  0.35266  0.78054  1.0000
  H   H245      1.0  0.37170  0.99530  0.94356  1.0000
  H   H246      1.0  0.57628  0.35368  0.91188  1.0000
  S   S87       1.0  0.61008  0.15519  0.98367  1.0000
  Fe  Fe41      1.0  0.53826  0.41241  0.95276  1.0000
  H   H247      1.0  0.61065  0.39415  0.93898  1.0000
  C   C262      1.0  0.39940  0.00365  0.84026  1.0000
  Fe  Fe42      1.0  0.59156  0.11319  0.97222  1.0000
  H   H248      1.0  0.52224  0.01206  0.90007  1.0000
  H   H249      1.0  0.32177  0.39400  0.72272  1.0000
  H   H250      1.0  0.61781  0.36006  0.54364  1.0000
  N   N20       1.0  0.53197  0.99489  0.95410  1.0000
  C   C263      1.0  0.42342  0.01793  0.81663  1.0000
  H   H251      1.0  0.57928  0.22355  0.97890  1.0000
  H   H252      1.0  0.62662  0.34764  0.85764  1.0000
  C   C264      1.0  0.36682  0.43215  0.75222  1.0000
  C   C265      1.0  0.43722  0.05006  0.87476  1.0000
  S   S88       1.0  0.55591  0.38914  0.95308  1.0000
  H   H253      1.0  0.37646  0.44324  0.78371  1.0000
  C   C266      1.0  0.59919  0.23133  0.98622  1.0000
  N   N21       1.0  0.35466  0.40472  0.76247  1.0000
  S   S89       1.0  0.34808  0.43487  0.96681  1.0000
  H   H254      1.0  0.38533  0.41000  0.80376  1.0000
  H   H255      1.0  0.38467  0.98550  0.82645  1.0000
  C   C267      1.0  0.61150  0.22012  0.96762  1.0000
  C   C268      1.0  0.47935  0.05999  0.96618  1.0000
  C   C269      1.0  0.53369  0.03401  0.96223  1.0000
  S   S90       1.0  0.57365  0.44727  0.97852  1.0000
  C   C270      1.0  0.58958  0.34709  0.90800  1.0000
  C   C271      1.0  0.43648  0.39916  0.95996  1.0000
  H   H256      1.0  0.36552  0.36395  0.82095  1.0000
  H   H257      1.0  0.46140  0.05235  0.81701  1.0000
  Fe  Fe43      1.0  0.59229  0.42512  0.97115  1.0000
  H   H258      1.0  0.35235  0.43668  0.74359  1.0000
  H   H259      1.0  0.42187  0.40003  0.97920  1.0000
  H   H260      1.0  0.60141  0.20397  0.94513  1.0000
  H   H261      1.0  0.53157  0.04884  0.94717  1.0000
  H   H262      1.0  0.58825  0.33629  0.94067  1.0000
  H   H263      1.0  0.40965  0.04156  0.93067  1.0000
  H   H264      1.0  0.45213  0.06790  0.88918  1.0000
  C   C272      1.0  0.60408  0.02534  0.96466  1.0000
  C   C273      1.0  0.45660  0.40054  0.98415  1.0000
  H   H265      1.0  0.62345  0.36216  0.65241  1.0000
  H   H266      1.0  0.53556  0.46728  0.85726  1.0000
  C   C274      1.0  0.62397  0.39171  0.91850  1.0000
  H   H267      1.0  0.35759  0.97764  0.89193  1.0000
  H   H268      1.0  0.49052  0.07948  0.97747  1.0000
  Fe  Fe44      1.0  0.34405  0.39807  0.98793  1.0000
  H   H269      1.0  0.30149  0.34773  0.73842  1.0000
  C   C275      1.0  0.45630  0.04182  0.99068  1.0000
  N   N22       1.0  0.50948  0.47599  0.88742  1.0000
  S   S91       1.0  0.50177  0.40326  0.99122  1.0000
  H   H270      1.0  0.35618  0.93009  0.07481  1.0000
  N   N23       1.0  0.50930  0.51417  0.03456  1.0000
  S   S92       1.0  0.57610  0.95385  0.00119  1.0000
  C   C276      1.0  0.30676  0.94054  0.17420  1.0000
  Fe  Fe45      1.0  0.59433  0.93107  0.99895  1.0000
  S   S93       1.0  0.57217  0.67354  0.04817  1.0000
  H   H271      1.0  0.37777  0.95464  0.11374  1.0000
  H   H272      1.0  0.61601  0.75579  0.12516  1.0000
  S   S94       1.0  0.42118  0.48743  0.99877  1.0000
  C   C277      1.0  0.61983  0.90691  0.07820  1.0000
  S   S95       1.0  0.31889  0.87415  0.05277  1.0000
  H   H273      1.0  0.43856  0.86759  0.04117  1.0000
  S   S96       1.0  0.62411  0.93404  0.04765  1.0000
  C   C278      1.0  0.36815  0.85565  0.04318  1.0000
  C   C279      1.0  0.32999  0.91408  0.15704  1.0000
  S   S97       1.0  0.50373  0.91083  0.01279  1.0000
  H   H274      1.0  0.46864  0.49578  0.03465  1.0000
  C   C280      1.0  0.32708  0.94984  0.14082  1.0000
  H   H275      1.0  0.51434  0.54813  0.00542  1.0000
  N   N24       1.0  0.61667  0.73216  0.24214  1.0000
  S   S98       1.0  0.61129  0.83537  0.14716  1.0000
  C   C281      1.0  0.61028  0.84336  0.01379  1.0000
  N   N25       1.0  0.40269  0.85360  0.00943  1.0000
  C   C282      1.0  0.61837  0.74204  0.10729  1.0000
  C   C283      1.0  0.48471  0.49353  0.03144  1.0000
  H   H276      1.0  0.58984  0.53348  0.01778  1.0000
  C   C284      1.0  0.52951  0.51137  0.02966  1.0000
  S   S99       1.0  0.38719  0.92326  0.00035  1.0000
  C   C285      1.0  0.35730  0.85150  0.99923  1.0000
  C   C286      1.0  0.61487  0.86358  0.12336  1.0000
  C   C287      1.0  0.59357  0.86216  0.10418  1.0000
  C   C288      1.0  0.59607  0.88365  0.08128  1.0000
  H   H277      1.0  0.59072  0.73856  0.20807  1.0000
  C   C289      1.0  0.59041  0.72504  0.23459  1.0000
  H   H278      1.0  0.35887  0.85824  0.07333  1.0000
  H   H279      1.0  0.57512  0.84423  0.10634  1.0000
  H   H280      1.0  0.57957  0.88222  0.06631  1.0000
  H   H281      1.0  0.46689  0.92340  0.03447  1.0000
  H   H282      1.0  0.36014  0.96063  0.07195  1.0000
  H   H283      1.0  0.57801  0.71625  0.09599  1.0000
  N   N26       1.0  0.33817  0.93643  0.13221  1.0000
  H   H284      1.0  0.49927  0.53887  0.06396  1.0000
  H   H285      1.0  0.57852  0.70535  0.22155  1.0000
  C   C290      1.0  0.30978  0.90428  0.19073  1.0000
  C   C291      1.0  0.59970  0.70168  0.06735  1.0000
  C   C292      1.0  0.59689  0.71964  0.09078  1.0000
  H   H286      1.0  0.54894  0.52778  0.03194  1.0000
  C   C293      1.0  0.39096  0.85657  0.04774  1.0000
  H   H287      1.0  0.46172  0.53615  0.02653  1.0000
  Fe  Fe46      1.0  0.57427  0.64943  0.99194  1.0000
  C   C294      1.0  0.42585  0.85333  0.01545  1.0000
  H   H288      1.0  0.30244  0.88591  0.20860  1.0000
  H   H289      1.0  0.33341  0.96746  0.12099  1.0000
  H   H290      1.0  0.58100  0.72564  0.26780  1.0000
  H   H291      1.0  0.42060  0.83405  0.02798  1.0000
  C   C295      1.0  0.46464  0.91776  0.99822  1.0000
  H   H292      1.0  0.62648  0.69227  0.04357  1.0000
  C   C296      1.0  0.35911  0.94598  0.09657  1.0000
  H   H293      1.0  0.54156  0.48528  0.01820  1.0000
  S   S100      1.0  0.54885  0.60648  0.99229  1.0000
  H   H294      1.0  0.39928  0.85975  0.08204  1.0000
  H   H295      1.0  0.33831  0.90310  0.14930  1.0000
  C   C297      1.0  0.62778  0.72352  0.21271  1.0000
  H   H296      1.0  0.30459  0.91125  0.04056  1.0000
  C   C298      1.0  0.62416  0.70619  0.06079  1.0000
  H   H297      1.0  0.61226  0.83072  0.03751  1.0000
  H   H298      1.0  0.53304  0.55280  0.05597  1.0000
  C   C299      1.0  0.52543  0.48740  0.02198  1.0000
  H   H299      1.0  0.61703  0.71079  0.18481  1.0000
  C   C300      1.0  0.51416  0.53969  0.04031  1.0000
  C   C301      1.0  0.63089  0.86858  0.00480  1.0000
  H   H300      1.0  0.62200  0.75625  0.29901  1.0000
  C   C302      1.0  0.63055  0.74885  0.27630  1.0000
  S   S101      1.0  0.63439  0.79720  0.21173  1.0000
  H   H301      1.0  0.33963  0.85077  0.99525  1.0000
  H   H302      1.0  0.57049  0.81573  0.00175  1.0000
  C   C303      1.0  0.58677  0.83504  0.99413  1.0000
  Fe  Fe47      1.0  0.34452  0.90195  0.99349  1.0000
  Fe  Fe48      1.0  0.34873  0.92542  0.89618  1.0000
  S   S102      1.0  0.32833  0.93166  0.83776  1.0000
  S   S103      1.0  0.39172  0.94899  0.89453  1.0000
  H   H303      1.0  0.57783  0.72303  0.80941  1.0000
  C   C304      1.0  0.44131  0.51719  0.91616  1.0000
  C   C305      1.0  0.45971  0.53973  0.89058  1.0000
  H   H304      1.0  0.42645  0.50104  0.89795  1.0000
  H   H305      1.0  0.45904  0.54076  0.85261  1.0000
  C   C306      1.0  0.59779  0.54158  0.88190  1.0000
  C   C307      1.0  0.48127  0.91172  0.97762  1.0000
  H   H306      1.0  0.49430  0.57560  0.98140  1.0000
  H   H307      1.0  0.40169  0.84780  0.93546  1.0000
  C   C308      1.0  0.52227  0.51880  0.90461  1.0000
  C   C309      1.0  0.44230  0.51571  0.96522  1.0000
  S   S104      1.0  0.57409  0.61067  0.88612  1.0000
  H   H308      1.0  0.60965  0.84476  0.76315  1.0000
  H   H309      1.0  0.43739  0.85850  0.98182  1.0000
  S   S105      1.0  0.56299  0.65398  0.91971  1.0000
  Fe  Fe49      1.0  0.54113  0.61130  0.91755  1.0000
  S   S106      1.0  0.50370  0.58775  0.88121  1.0000
  Fe  Fe50      1.0  0.59683  0.65324  0.89468  1.0000
  Fe  Fe51      1.0  0.58584  0.96148  0.92393  1.0000
  C   C310      1.0  0.61240  0.86032  0.78400  1.0000
  H   H310      1.0  0.59188  0.50151  0.97136  1.0000
  C   C311      1.0  0.59280  0.51743  0.95352  1.0000
  C   C312      1.0  0.36943  0.84860  0.96036  1.0000
  S   S107      1.0  0.54953  0.92645  0.90150  1.0000
  H   H311      1.0  0.60035  0.54404  0.84392  1.0000
  H   H312      1.0  0.56606  0.84575  0.94987  1.0000
  Fe  Fe52      1.0  0.58311  0.60790  0.96108  1.0000
  Fe  Fe53      1.0  0.57048  0.90652  0.90813  1.0000
  S   S108      1.0  0.56716  0.87700  0.85830  1.0000
  S   S109      1.0  0.60776  0.94240  0.92292  1.0000
  H   H313      1.0  0.49174  0.52411  0.92131  1.0000
  C   C313      1.0  0.59547  0.55919  0.90807  1.0000
  C   C314      1.0  0.45812  0.90237  0.90534  1.0000
  C   C315      1.0  0.59580  0.52026  0.90443  1.0000
  C   C316      1.0  0.61907  0.90086  0.83672  1.0000
  C   C317      1.0  0.44471  0.91594  0.97261  1.0000
  H   H314      1.0  0.62182  0.91678  0.85614  1.0000
  H   H315      1.0  0.62174  0.72592  0.96853  1.0000
  H   H316      1.0  0.61876  0.91673  0.66808  1.0000
  S   S110      1.0  0.59509  0.49664  0.86998  1.0000
  C   C318      1.0  0.47933  0.56065  0.91391  1.0000
  C   C319      1.0  0.59447  0.87896  0.83325  1.0000
  C   C320      1.0  0.59128  0.85862  0.80717  1.0000
  C   C321      1.0  0.44109  0.90779  0.92632  1.0000
  C   C322      1.0  0.62042  0.91172  0.70495  1.0000
  S   S111      1.0  0.41436  0.90209  0.89515  1.0000
  H   H317      1.0  0.45541  0.89600  0.86955  1.0000
  H   H318      1.0  0.56374  0.91993  0.79743  1.0000
  C   C323      1.0  0.59462  0.72275  0.80038  1.0000
  C   C324      1.0  0.59872  0.70537  0.82401  1.0000
  C   C325      1.0  0.59145  0.53553  0.97974  1.0000
  H   H319      1.0  0.54814  0.50753  0.88636  1.0000
  C   C326      1.0  0.52832  0.50110  0.89234  1.0000
  H   H320      1.0  0.58508  0.69249  0.85095  1.0000
  H   H321      1.0  0.59644  0.57519  0.89027  1.0000
  H   H322      1.0  0.60733  0.89071  0.71135  1.0000
  N   N27       1.0  0.62806  0.88508  0.97737  1.0000
  H   H323      1.0  0.51966  0.64265  0.84988  1.0000
  C   C327      1.0  0.59211  0.55611  0.95715  1.0000
  C   C328      1.0  0.62005  0.70444  0.81181  1.0000
  H   H324      1.0  0.43179  0.92022  0.98914  1.0000
  C   C329      1.0  0.58956  0.91528  0.75356  1.0000
  H   H325      1.0  0.57451  0.89626  0.74381  1.0000
  H   H326      1.0  0.49080  0.89952  0.91469  1.0000
  C   C330      1.0  0.47827  0.90450  0.93075  1.0000
  S   S112      1.0  0.60939  0.65070  0.96724  1.0000
  C   C331      1.0  0.49665  0.51055  0.91200  1.0000
  Fe  Fe54      1.0  0.38772  0.95688  0.96963  1.0000
  C   C332      1.0  0.58421  0.85187  0.96548  1.0000
  C   C333      1.0  0.60518  0.87696  0.95747  1.0000
  S   S113      1.0  0.60516  0.75961  0.73324  1.0000
  Fe  Fe55      1.0  0.38848  0.91386  0.92505  1.0000
  C   C334      1.0  0.47987  0.55928  0.96298  1.0000
  H   H327      1.0  0.53738  0.53878  0.90813  1.0000
  H   H328      1.0  0.50680  0.65264  0.80482  1.0000
  C   C335      1.0  0.63336  0.94939  0.75120  1.0000
  H   H329      1.0  0.50677  0.96283  0.91419  1.0000
  H   H330      1.0  0.50080  0.62095  0.80515  1.0000
  S   S114      1.0  0.62520  0.68202  0.83915  1.0000
  S   S115      1.0  0.34553  0.88929  0.92029  1.0000
  H   H331      1.0  0.60139  0.67470  0.70949  1.0000
  H   H332      1.0  0.36165  0.84625  0.92565  1.0000
  C   C336      1.0  0.61197  0.73955  0.76473  1.0000
  H   H333      1.0  0.60290  0.88998  0.93578  1.0000
  H   H334      1.0  0.57232  0.84161  0.80423  1.0000
  S   S116      1.0  0.34494  0.93648  0.96917  1.0000
  C   C337      1.0  0.63110  0.72069  0.94145  1.0000
  N   N28       1.0  0.53869  0.65035  0.78277  1.0000
  C   C338      1.0  0.54710  0.66989  0.74975  1.0000
  C   C339      1.0  0.55204  0.63903  0.78921  1.0000
  C   C340      1.0  0.56952  0.67864  0.72232  1.0000
  C   C341      1.0  0.57464  0.64744  0.76270  1.0000
  C   C342      1.0  0.58340  0.66738  0.72907  1.0000
  C   C343      1.0  0.51534  0.64132  0.81187  1.0000
  H   H335      1.0  0.53689  0.67928  0.74507  1.0000
  H   H336      1.0  0.54540  0.62362  0.81551  1.0000
  H   H337      1.0  0.57668  0.69480  0.69745  1.0000
  H   H338      1.0  0.58577  0.63915  0.76931  1.0000
  S   S117      1.0  0.55771  0.89433  0.98408  1.0000
  C   C344      1.0  0.60256  0.95272  0.79797  1.0000
  C   C345      1.0  0.63365  0.73911  0.75323  1.0000
  C   C346      1.0  0.39216  0.84956  0.96616  1.0000
  H   H339      1.0  0.59800  0.96321  0.82174  1.0000
  C   C347      1.0  0.47746  0.48483  0.90740  1.0000
  N   N29       1.0  0.61436  0.92564  0.73788  1.0000
  C   C348      1.0  0.58332  0.92858  0.78399  1.0000
  Fe  Fe56      1.0  0.54046  0.91800  0.97890  1.0000
  H   H340      1.0  0.61611  0.70321  0.92442  1.0000
  H   H341      1.0  0.45744  0.47825  0.91334  1.0000
  C   C349      1.0  0.52698  0.97365  0.92501  1.0000
  H   H342      1.0  0.53020  0.96002  0.94427  1.0000
  H   H343      1.0  0.30928  0.87759  0.84456  1.0000
  C   C350      1.0  0.62777  0.96323  0.78161  1.0000
  H   H344      1.0  0.61885  0.75260  0.90781  1.0000
  C   C351      1.0  0.46137  0.53694  0.98850  1.0000
  S   S118      1.0  0.58749  0.57664  0.99168  1.0000
  S   S119      1.0  0.66371  0.35597  0.21283  1.0000
  Fe  Fe57      1.0  0.63798  0.32753  0.16046  1.0000
  S   S120      1.0  0.66896  0.32542  0.12378  1.0000
  Fe  Fe58      1.0  0.69412  0.35128  0.17939  1.0000
  S   S121      1.0  0.73340  0.38513  0.15632  1.0000
  S   S122      1.0  0.68662  0.31961  0.23031  1.0000
  H   H345      1.0  0.68188  0.27542  0.29510  1.0000
  S   S123      1.0  0.65968  0.25990  0.15377  1.0000
  C   C352      1.0  0.85589  0.45635  0.10577  1.0000
  C   C353      1.0  0.63834  0.31263  0.43367  1.0000
  H   H346      1.0  0.95720  0.04177  0.02619  1.0000
  S   S124      1.0  0.80981  0.36650  0.04233  1.0000
  H   H347      1.0  0.96058  0.41186  0.03587  1.0000
  H   H348      1.0  0.80438  0.41801  0.17942  1.0000
  C   C354      1.0  0.86370  0.43961  0.09800  1.0000
  H   H349      1.0  0.65271  0.21612  0.10910  1.0000
  H   H350      1.0  0.88040  0.44563  0.07522  1.0000
  Fe  Fe59      1.0  0.65898  0.29395  0.17664  1.0000
  C   C355      1.0  0.81481  0.38204  0.17145  1.0000
  H   H351      1.0  0.85550  0.40189  0.11201  1.0000
  C   C356      1.0  0.63530  0.37828  0.09084  1.0000
  C   C357      1.0  0.67007  0.25583  0.28160  1.0000
  C   C358      1.0  0.75213  0.37869  0.11919  1.0000
  C   C359      1.0  0.74859  0.35457  0.12005  1.0000
  C   C360      1.0  0.76577  0.35075  0.09455  1.0000
  C   C361      1.0  0.78632  0.37086  0.06742  1.0000
  C   C362      1.0  0.78909  0.39463  0.06478  1.0000
  C   C363      1.0  0.77218  0.39857  0.09092  1.0000
  H   H352      1.0  0.73317  0.33911  0.14170  1.0000
  H   H353      1.0  0.76349  0.33230  0.09679  1.0000
  H   H354      1.0  0.80485  0.41029  0.04426  1.0000
  H   H355      1.0  0.77489  0.41722  0.08988  1.0000
  C   C364      1.0  0.65363  0.32134  0.39161  1.0000
  C   C365      1.0  0.68027  0.33516  0.39466  1.0000
  H   H356      1.0  0.69233  0.34208  0.36278  1.0000
  H   H357      1.0  0.67205  0.24250  0.30468  1.0000
  C   C366      1.0  0.64948  0.31765  0.47819  1.0000
  H   H358      1.0  0.71205  0.35123  0.44102  1.0000
  N   N30       1.0  0.82872  0.40755  0.14823  1.0000
  C   C367      1.0  0.63779  0.40006  0.06924  1.0000
  H   H359      1.0  0.81452  0.36785  0.14796  1.0000
  C   C368      1.0  0.84973  0.41507  0.11937  1.0000
  H   H360      1.0  0.65030  0.38023  0.11249  1.0000
  H   H361      1.0  0.87352  0.98481  0.07273  1.0000
  C   C369      1.0  0.69140  0.34033  0.43917  1.0000
  H   H362      1.0  0.68054  0.26809  0.05448  1.0000
  C   C370      1.0  0.82124  0.42407  0.15698  1.0000
  S   S125      1.0  0.91347  0.99345  0.00219  1.0000
  C   C371      1.0  0.83451  0.44859  0.13544  1.0000
  H   H363      1.0  0.82403  0.38239  0.20463  1.0000
  H   H364      1.0  0.65481  0.41873  0.07436  1.0000
  Fe  Fe60      1.0  0.65418  0.32201  0.25989  1.0000
  C   C372      1.0  0.67614  0.33166  0.48123  1.0000
  H   H365      1.0  0.79444  0.37521  0.17948  1.0000
  H   H366      1.0  0.67923  0.24344  0.02161  1.0000
  H   H367      1.0  0.82805  0.46132  0.14138  1.0000
  S   S126      1.0  0.88182  0.41563  0.99931  1.0000
  H   H368      1.0  0.64592  0.27329  0.33072  1.0000
  C   C373      1.0  0.95976  0.40873  0.99845  1.0000
  N   N31       1.0  0.64302  0.24723  0.27984  1.0000
  H   H369      1.0  0.64778  0.36363  0.48044  1.0000
  N   N32       1.0  0.64949  0.24963  0.00797  1.0000
  H   H370      1.0  0.67802  0.25666  0.24563  1.0000
  S   S127      1.0  0.63840  0.31461  0.33654  1.0000
  H   H371      1.0  0.64791  0.27721  0.04831  1.0000
  C   C374      1.0  0.67602  0.25927  0.01944  1.0000
  H   H372      1.0  0.83775  0.97748  0.12653  1.0000
  H   H373      1.0  0.86641  0.47525  0.08853  1.0000
  C   C375      1.0  0.63469  0.21483  0.10868  1.0000
  H   H374      1.0  0.63473  0.21908  0.22950  1.0000
  C   C376      1.0  0.63787  0.26131  0.02515  1.0000
  H   H375      1.0  0.68939  0.27378  0.99220  1.0000
  Fe  Fe61      1.0  0.66545  0.35235  0.70140  1.0000
  S   S128      1.0  0.70236  0.36261  0.66400  1.0000
  C   C377      1.0  0.63817  0.37071  0.54961  1.0000
  C   C378      1.0  0.68011  0.21580  0.79353  1.0000
  S   S129      1.0  0.67762  0.30152  0.65753  1.0000
  C   C379      1.0  0.93865  0.01855  0.96684  1.0000
  Fe  Fe62      1.0  0.69972  0.33160  0.71009  1.0000
  S   S130      1.0  0.72962  0.32924  0.74964  1.0000
  Fe  Fe63      1.0  0.67731  0.33179  0.61381  1.0000
  S   S131      1.0  0.69153  0.33997  0.53619  1.0000
  S   S132      1.0  0.66487  0.32376  0.75130  1.0000
  S   S133      1.0  0.64048  0.32371  0.64823  1.0000
  Fe  Fe64      1.0  0.84646  0.42009  0.89212  1.0000
  S   S134      1.0  0.82829  0.42619  0.82964  1.0000
  S   S135      1.0  0.88932  0.44262  0.89361  1.0000
  C   C380      1.0  0.68110  0.38564  0.52158  1.0000
  C   C381      1.0  0.93981  0.01703  0.91788  1.0000
  Fe  Fe65      1.0  0.64292  0.29567  0.69602  1.0000
  H   H376      1.0  0.92479  0.00047  0.90085  1.0000
  S   S136      1.0  0.84202  0.38340  0.91589  1.0000
  C   C382      1.0  0.70533  0.26111  0.77470  1.0000
  C   C383      1.0  0.66418  0.21252  0.75669  1.0000
  H   H377      1.0  0.82989  0.39879  0.73143  1.0000
  H   H378      1.0  0.68621  0.42566  0.87876  1.0000
  H   H379      1.0  0.65538  0.43056  0.92731  1.0000
  H   H380      1.0  0.80263  0.35155  0.74137  1.0000
  H   H381      1.0  0.85955  0.35098  0.86874  1.0000
  C   C384      1.0  0.75516  0.35674  0.77485  1.0000
  C   C385      1.0  0.76441  0.38130  0.75609  1.0000
  C   C386      1.0  0.78643  0.40261  0.77408  1.0000
  C   C387      1.0  0.79904  0.39955  0.81143  1.0000
  C   C388      1.0  0.78922  0.37508  0.83120  1.0000
  C   C389      1.0  0.76757  0.35374  0.81259  1.0000
  H   H382      1.0  0.75505  0.38380  0.72684  1.0000
  H   H383      1.0  0.79390  0.42147  0.75855  1.0000
  H   H384      1.0  0.79863  0.37247  0.86011  1.0000
  H   H385      1.0  0.76047  0.33483  0.82744  1.0000
  C   C390      1.0  0.66658  0.40963  0.88490  1.0000
  Fe  Fe66      1.0  0.88473  0.40692  0.92422  1.0000
  H   H386      1.0  0.67579  0.19953  0.81602  1.0000
  H   H387      1.0  0.67147  0.38387  0.84360  1.0000
  S   S137      1.0  0.66368  0.38544  0.72786  1.0000
  H   H388      1.0  0.65115  0.27180  0.78148  1.0000
  C   C391      1.0  0.70069  0.24028  0.80275  1.0000
  N   N33       1.0  0.64726  0.38183  0.59178  1.0000
  C   C392      1.0  0.69010  0.39620  0.56515  1.0000
  C   C393      1.0  0.68912  0.25712  0.73795  1.0000
  C   C394      1.0  0.65838  0.38614  0.86552  1.0000
  C   C395      1.0  0.64932  0.41245  0.91180  1.0000
  C   C396      1.0  0.93767  0.40138  0.92521  1.0000
  C   C397      1.0  0.95700  0.39990  0.90226  1.0000
  H   H389      1.0  0.69275  0.27352  0.71684  1.0000
  C   C398      1.0  0.67283  0.39415  0.60006  1.0000
  C   C399      1.0  0.65159  0.22924  0.69154  1.0000
  H   H390      1.0  0.65843  0.24776  0.84245  1.0000
  S   S138      1.0  0.91141  0.39641  0.89306  1.0000
  H   H391      1.0  0.65615  0.42169  0.77195  1.0000
  N   N34       1.0  0.85370  0.36266  0.80222  1.0000
  C   C400      1.0  0.86869  0.38874  0.79728  1.0000
  C   C401      1.0  0.83016  0.34931  0.78276  1.0000
  C   C402      1.0  0.86045  0.40209  0.77146  1.0000
  C   C403      1.0  0.82147  0.36204  0.75618  1.0000
  C   C404      1.0  0.83679  0.38860  0.75049  1.0000
  C   C405      1.0  0.86247  0.34918  0.83062  1.0000
  H   H392      1.0  0.88701  0.39941  0.81384  1.0000
  H   H393      1.0  0.81784  0.32873  0.78803  1.0000
  H   H394      1.0  0.87197  0.42281  0.76884  1.0000
  H   H395      1.0  0.88327  0.35760  0.82352  1.0000
  H   H396      1.0  0.71025  0.40532  0.57222  1.0000
  H   H397      1.0  0.85220  0.32860  0.82286  1.0000
  H   H398      1.0  0.95586  0.39615  0.86509  1.0000
  C   C406      1.0  0.93929  0.40609  0.97333  1.0000
  H   H399      1.0  0.72105  0.28034  0.78179  1.0000
  H   H400      1.0  0.92449  0.40709  0.99150  1.0000
  S   S139      1.0  0.84154  0.43101  0.96441  1.0000
  H   H401      1.0  0.63746  0.31082  0.51011  1.0000
  C   C407      1.0  0.63660  0.25192  0.78946  1.0000
  C   C408      1.0  0.63612  0.38194  0.75515  1.0000
  H   H402      1.0  0.64607  0.22052  0.96437  1.0000
  H   H403      1.0  0.65057  0.24629  0.68549  1.0000
  Fe  Fe67      1.0  0.88414  0.45023  0.96835  1.0000
  H   H404      1.0  0.64765  0.19352  0.75102  1.0000
  N   N35       1.0  0.66859  0.23310  0.72988  1.0000
  H   H405      1.0  0.71272  0.24313  0.83206  1.0000
  H   H406      1.0  0.68000  0.40224  0.63397  1.0000
  H   H407      1.0  0.65853  0.22539  0.65851  1.0000
  Fe  Fe68      1.0  0.83946  0.39557  0.98879  1.0000
  H   H408      1.0  0.69423  0.38653  0.49463  1.0000
  C   C409      1.0  0.64071  0.23823  0.82403  1.0000
  H   H409      1.0  0.96093  0.03603  0.85277  1.0000
  C   C410      1.0  0.96027  0.03725  0.89066  1.0000
  H   H410      1.0  0.63841  0.39626  0.65148  1.0000
  C   C411      1.0  0.63801  0.40342  0.77425  1.0000
  H   H411      1.0  0.64285  0.98194  0.79268  1.0000
  C   C412      1.0  0.65497  0.37267  0.51372  1.0000
  C   C413      1.0  0.63682  0.22960  0.97877  1.0000
  C   C414      1.0  0.95808  0.04039  0.98838  1.0000
  H   H412      1.0  0.80447  0.89613  0.19647  1.0000
  C   C415      1.0  0.86356  0.96808  0.09664  1.0000
  C   C416      1.0  0.64278  0.74639  0.10115  1.0000
  Fe  Fe69      1.0  0.70111  0.85787  0.18665  1.0000
  S   S140      1.0  0.73951  0.89248  0.16212  1.0000
  S   S141      1.0  0.69561  0.82273  0.22230  1.0000
  S   S142      1.0  0.66996  0.77312  0.12464  1.0000
  C   C417      1.0  0.82466  0.90223  0.18880  1.0000
  S   S143      1.0  0.67449  0.83706  0.12870  1.0000
  H   H413      1.0  0.63570  0.78174  0.43495  1.0000
  C   C418      1.0  0.83100  0.94222  0.15711  1.0000
  S   S144      1.0  0.81871  0.87375  0.05927  1.0000
  C   C419      1.0  0.65681  0.81110  0.48491  1.0000
  H   H414      1.0  0.82391  0.88571  0.17287  1.0000
  C   C420      1.0  0.64560  0.72846  0.07766  1.0000
  S   S145      1.0  0.90794  0.48807  0.00327  1.0000
  C   C421      1.0  0.68742  0.85310  0.45057  1.0000
  C   C422      1.0  0.65627  0.75741  0.28146  1.0000
  Fe  Fe70      1.0  0.64425  0.83446  0.17722  1.0000
  H   H415      1.0  0.73675  0.81864  0.06190  1.0000
  S   S146      1.0  0.65294  0.80469  0.34156  1.0000
  H   H416      1.0  0.96147  0.90798  0.03499  1.0000
  C   C423      1.0  0.76041  0.88640  0.13180  1.0000
  C   C424      1.0  0.75926  0.86365  0.13996  1.0000
  C   C425      1.0  0.77705  0.85984  0.11699  1.0000
  C   C426      1.0  0.79579  0.87854  0.08515  1.0000
  C   C427      1.0  0.79654  0.90103  0.07630  1.0000
  C   C428      1.0  0.77909  0.90507  0.09993  1.0000
  H   H417      1.0  0.74505  0.84923  0.16480  1.0000
  H   H418      1.0  0.77644  0.84244  0.12427  1.0000
  H   H419      1.0  0.81098  0.91570  0.05238  1.0000
  H   H420      1.0  0.78008  0.92273  0.09352  1.0000
  H   H421      1.0  0.66247  0.72569  0.19205  1.0000
  C   C429      1.0  0.68071  0.84375  0.40471  1.0000
  H   H422      1.0  0.65510  0.88825  0.13567  1.0000
  H   H423      1.0  0.69000  0.85652  0.37415  1.0000
  C   C430      1.0  0.95981  0.90499  0.99753  1.0000
  H   H424      1.0  0.86269  0.91476  0.12614  1.0000
  H   H425      1.0  0.83481  0.90654  0.22232  1.0000
  C   C431      1.0  0.66202  0.81793  0.39856  1.0000
  H   H426      1.0  0.70187  0.87310  0.45464  1.0000
  N   N36       1.0  0.83780  0.92476  0.15647  1.0000
  H   H427      1.0  0.92686  0.90782  0.99294  1.0000
  C   C432      1.0  0.85745  0.92870  0.12712  1.0000
  Fe  Fe71      1.0  0.66382  0.82127  0.26509  1.0000
  C   C433      1.0  0.84357  0.96398  0.12682  1.0000
  Fe  Fe72      1.0  0.66679  0.80176  0.16697  1.0000
  C   C434      1.0  0.72538  0.82634  0.04941  1.0000
  C   C435      1.0  0.87069  0.95047  0.09706  1.0000
  H   H428      1.0  0.66731  0.77110  0.30797  1.0000
  S   S147      1.0  0.67142  0.85836  0.23312  1.0000
  H   H429      1.0  0.66441  0.73161  0.07313  1.0000
  H   H430      1.0  0.65940  0.92653  0.09673  1.0000
  H   H431      1.0  0.81528  0.93900  0.18013  1.0000
  H   H432      1.0  0.68798  0.75613  0.25382  1.0000
  H   H433      1.0  0.72206  0.86718  0.04427  1.0000
  H   H434      1.0  0.88630  0.95363  0.07390  1.0000
  C   C436      1.0  0.65019  0.80173  0.43905  1.0000
  Fe  Fe73      1.0  0.84534  0.90061  0.99986  1.0000
  C   C437      1.0  0.65347  0.73174  0.21683  1.0000
  C   C438      1.0  0.66782  0.74895  0.25123  1.0000
  H   H435      1.0  0.70904  0.81151  0.02955  1.0000
  H   H436      1.0  0.94976  0.53717  0.03107  1.0000
  H   H437      1.0  0.71754  0.83009  0.08149  1.0000
  C   C439      1.0  0.64100  0.90853  0.09854  1.0000
  H   H438      1.0  0.64886  0.87511  0.02135  1.0000
  S   S148      1.0  0.88831  0.92214  0.00092  1.0000
  C   C440      1.0  0.73661  0.86864  0.02016  1.0000
  H   H439      1.0  0.66186  0.91888  0.99914  1.0000
  N   N37       1.0  0.74130  0.84964  0.01961  1.0000
  C   C441      1.0  0.95393  0.53445  0.99533  1.0000
  C   C442      1.0  0.63861  0.88690  0.12071  1.0000
  C   C443      1.0  0.67553  0.83690  0.49105  1.0000
  Fe  Fe74      1.0  0.66333  0.85458  0.71834  1.0000
  S   S149      1.0  0.69911  0.86449  0.67720  1.0000
  Fe  Fe75      1.0  0.63926  0.79780  0.70612  1.0000
  C   C444      1.0  0.68090  0.76419  0.84910  1.0000
  S   S150      1.0  0.67284  0.80341  0.66326  1.0000
  C   C445      1.0  0.63685  0.88256  0.78629  1.0000
  Fe  Fe76      1.0  0.69624  0.83183  0.71772  1.0000
  S   S151      1.0  0.72717  0.82893  0.75175  1.0000
  Fe  Fe77      1.0  0.67274  0.83547  0.62530  1.0000
  S   S152      1.0  0.68531  0.84995  0.54800  1.0000
  S   S153      1.0  0.66267  0.82415  0.76263  1.0000
  H   H440      1.0  0.77467  0.85714  0.69000  1.0000
  Fe  Fe78      1.0  0.84535  0.92130  0.90258  1.0000
  S   S154      1.0  0.81753  0.92320  0.85523  1.0000
  S   S155      1.0  0.88849  0.94527  0.89452  1.0000
  C   C446      1.0  0.96415  0.52815  0.90227  1.0000
  C   C447      1.0  0.94279  0.50806  0.92771  1.0000
  C   C448      1.0  0.77460  0.87335  0.95963  1.0000
  H   H441      1.0  0.68217  0.79417  0.80781  1.0000
  H   H442      1.0  0.87610  0.47990  0.83857  1.0000
  H   H443      1.0  0.64710  0.75193  0.72562  1.0000
  C   C449      1.0  0.92643  0.54135  0.84843  1.0000
  C   C450      1.0  0.74389  0.90172  0.57185  1.0000
  H   H444      1.0  0.67355  0.73226  0.89294  1.0000
  H   H445      1.0  0.73947  0.89290  0.53683  1.0000
  C   C451      1.0  0.88880  0.49833  0.85380  1.0000
  C   C452      1.0  0.94016  0.90490  0.97376  1.0000
  C   C453      1.0  0.75120  0.85472  0.78307  1.0000
  C   C454      1.0  0.76978  0.85229  0.80503  1.0000
  C   C455      1.0  0.79000  0.87297  0.82805  1.0000
  C   C456      1.0  0.79187  0.89630  0.82883  1.0000
  C   C457      1.0  0.77314  0.89862  0.80722  1.0000
  C   C458      1.0  0.75278  0.87787  0.78464  1.0000
  H   H446      1.0  0.76877  0.83447  0.80366  1.0000
  H   H447      1.0  0.80446  0.87106  0.84415  1.0000
  H   H448      1.0  0.77446  0.91662  0.80776  1.0000
  H   H449      1.0  0.73856  0.87993  0.76784  1.0000
  H   H450      1.0  0.93924  0.56847  0.95223  1.0000
  C   C459      1.0  0.75212  0.85242  0.62997  1.0000
  H   H451      1.0  0.65415  0.72093  0.76681  1.0000
  C   C460      1.0  0.67204  0.77955  0.83565  1.0000
  S   S156      1.0  0.63702  0.82776  0.66443  1.0000
  C   C461      1.0  0.77697  0.89185  0.67030  1.0000
  C   C462      1.0  0.63756  0.72147  0.77649  1.0000
  C   C463      1.0  0.90033  0.52636  0.91887  1.0000
  H   H452      1.0  0.96770  0.52579  0.86587  1.0000
  C   C464      1.0  0.77005  0.89284  0.96009  1.0000
  H   H453      1.0  0.86748  0.48741  0.92027  1.0000
  H   H454      1.0  0.91454  0.51457  0.79263  1.0000
  H   H455      1.0  0.69788  0.76686  0.83152  1.0000
  H   H456      1.0  0.65897  0.92000  0.81485  1.0000
  C   C465      1.0  0.76880  0.86636  0.66535  1.0000
  S   S157      1.0  0.66324  0.88720  0.75224  1.0000
  N   N38       1.0  0.64561  0.74139  0.90572  1.0000
  C   C466      1.0  0.64964  0.77540  0.85699  1.0000
  C   C467      1.0  0.93713  0.51136  0.97383  1.0000
  H   H457      1.0  0.64373  0.71619  0.96014  1.0000
  C   C468      1.0  0.64012  0.90268  0.81315  1.0000
  Fe  Fe79      1.0  0.88672  0.91093  0.92611  1.0000
  C   C469      1.0  0.93761  0.90068  0.92544  1.0000
  C   C470      1.0  0.91029  0.51778  0.82803  1.0000
  C   C471      1.0  0.76861  0.90321  0.63909  1.0000
  S   S158      1.0  0.84344  0.88595  0.92743  1.0000
  S   S159      1.0  0.91365  0.90094  0.89363  1.0000
  H   H458      1.0  0.64745  0.79834  0.51546  1.0000
  C   C472      1.0  0.93789  0.57041  0.91359  1.0000
  H   H459      1.0  0.74481  0.83228  0.62725  1.0000
  H   H460      1.0  0.77457  0.92285  0.64385  1.0000
  H   H461      1.0  0.93022  0.49046  0.91080  1.0000
  H   H462      1.0  0.78920  0.90249  0.69890  1.0000
  C   C473      1.0  0.66719  0.74487  0.88406  1.0000
  N   N39       1.0  0.75291  0.88964  0.60349  1.0000
  H   H463      1.0  0.75851  0.92244  0.56585  1.0000
  H   H464      1.0  0.66181  0.91186  0.93727  1.0000
  C   C474      1.0  0.95508  0.89690  0.90109  1.0000
  Fe  Fe80      1.0  0.88790  0.95521  0.96961  1.0000
  H   H465      1.0  0.73103  0.85335  0.57211  1.0000
  N   N40       1.0  0.92138  0.54531  0.89340  1.0000
  H   H466      1.0  0.65302  0.95761  0.73874  1.0000
  S   S160      1.0  0.84511  0.93465  0.97523  1.0000
  H   H467      1.0  0.78144  0.90974  0.93696  1.0000
  C   C475      1.0  0.63656  0.75609  0.89214  1.0000
  C   C476      1.0  0.74432  0.86443  0.59911  1.0000
  H   H468      1.0  0.95321  0.89357  0.86374  1.0000
  H   H469      1.0  0.95782  0.58038  0.89832  1.0000
  H   H470      1.0  0.64208  0.78661  0.84547  1.0000
  H   H471      1.0  0.89658  0.52929  0.95485  1.0000
  H   H472      1.0  0.72599  0.89910  0.58715  1.0000
  H   H473      1.0  0.64016  0.91623  0.70948  1.0000
  C   C477      1.0  0.64998  0.91130  0.96766  1.0000
  H   H474      1.0  0.78951  0.87510  0.93618  1.0000
  H   H475      1.0  0.93024  0.58252  0.90666  1.0000
  C   C478      1.0  0.88382  0.50258  0.89957  1.0000
  H   H476      1.0  0.94333  0.55628  0.82850  1.0000
  H   H477      1.0  0.64357  0.92442  0.95971  1.0000
  H   H478      1.0  0.95453  0.97592  0.91821  1.0000
  C   C479      1.0  0.75099  0.89057  0.99062  1.0000
  C   C480      1.0  0.75998  0.85175  0.98978  1.0000
  H   H479      1.0  0.76400  0.83691  0.98967  1.0000
  H   H480      1.0  0.74757  0.90580  0.99174  1.0000
