data_image0
_chemical_formula_structural       FeS2FeS2FeSFeS3HSFeSCFeSFeS3FeSC2SHC3H2C6H4C6H4CHC4HSH3C2HC3NH5CH4FeH2NCH3CFeH3C3NC2NC2H2SHCH2C2HCH2CH2CHCHCHC5HC2HCSH2C2HFeS2FeS2FeSFeS3CSFeSCFeSFeSCSFeSCHSHCHC9H4C6H4C4NHC2H2C4HC2H3NC3HC2HCSC2SCH2CH3CHCH4FeNHCH3CH2SCHC2H5C3HNCH4CHCNCH2FeHFeHCH2SNCH2C2H2C2H2CSHCHFeSCHSFeSH2SHCHC6HCH2C6H5CH2CHSHCHCH4CH3NC2NCSHCHCSHS2CHCHSFeHC2FeSHCSFeSCHSCHC7H4C6H6CH2CNH2CH2CHCNCH2C3H2CHCH2CFeHSHS3HCH2SHCSCHFeSFeSFeS2FeSFeS3FeS2FeS2FeSFeS3C4HCH4C6H4C3H3C3HC6H4NC2H3C3H2CH3CH2CH4CHCNHCH3C5H3C2SH2C2HFeC2NHCHCH3CH2CSCHC3NCSCSH2FeSFeSFeS2FeSFeS3FeS2FeS2FeSFeS3HC3HC2H3C6H5C3H2C2SHC6H6NH2CHC3HCNH2FeC3H3CSH3NC6H3CH2NHNC6H8CH5C3H2C3FeS2FeS2FeSFeS3FeS2FeHSFeSHS2HSCHFeSCNCHC5SHC7H4C3FeHCH2CH2C2H2C6H4CHC2HSNHCHC3H7CN2H2CHC3HCHCH5C2HC3H2CFeC2HCH4CHC3HSHCH2CH2CFeS2FeS2FeSFeS3FeHSFeS2FeCHS2CSH2FeSNH5C3H2C7H4C4HC4SH3CHC6H4NC6HCH5CH2CNSC2HC3H2NHNHC2H2SH3CH2C3HCH2FeCH5SH3SNHFeSCS2HCFeS2C7HSH2C6HCH3C5H6CH3CH3SCHNHCH3C2HCH2CNH3CHFeHC4FeCHSCFeSNFe2SHCSH2FeS3C6HCH2C6H4SCHCHCHC4H2FeH13C3HCHCHC2FeC2HNCHSC3N2CHC2H2CHCSCFeSH2SCFeSFeS2FeSFeS3FeS2FeS2FeSFeS3C2H3C2SHC3HC2H2CHC7H4C6H5CHNH3C2HC3HNC2HC2NH2CHC2H5FeHCH2SCH7NC2HNHC2HC3H5C4HFeSH2SCFeSFeS2FeSFeS3FeS2FeS2FeSFeS3C3HC3HCH2CSC2H5C6H4C6H5C2NHC4H2CH2CNC3HCH7NSNC6H2SH6FeH2CHCH2CHCH2C3HC2HCHCHCH2C4
_chemical_formula_sum              "Fe96 S192 H576 C576 N48"
_cell_length_a       32.5922
_cell_length_b       65.7882
_cell_length_c       46.0303
_cell_angle_alpha    89.6264
_cell_angle_beta     90.1777
_cell_angle_gamma    89.8414

_space_group_name_H-M_alt    "P 1"
_space_group_IT_number       1

loop_
  _space_group_symop_operation_xyz
  'x, y, z'

loop_
  _atom_site_type_symbol
  _atom_site_label
  _atom_site_symmetry_multiplicity
  _atom_site_fract_x
  _atom_site_fract_y
  _atom_site_fract_z
  _atom_site_occupancy
  Fe  Fe1       1.0  0.15255  0.19389  0.11795  1.0000
  S   S1        1.0  0.16215  0.22746  0.12269  1.0000
  S   S2        1.0  0.09033  0.17860  0.11007  1.0000
  Fe  Fe2       1.0  0.24382  0.18396  0.13242  1.0000
  S   S3        1.0  0.25879  0.21715  0.13805  1.0000
  S   S4        1.0  0.29348  0.16199  0.14947  1.0000
  Fe  Fe3       1.0  0.19964  0.21961  0.16238  1.0000
  S   S5        1.0  0.18747  0.23431  0.20619  1.0000
  Fe  Fe4       1.0  0.22064  0.22228  0.09760  1.0000
  S   S6        1.0  0.24131  0.24706  0.06589  1.0000
  S   S7        1.0  0.18631  0.18625  0.15926  1.0000
  S   S8        1.0  0.20927  0.18886  0.09017  1.0000
  H   H1        1.0  0.25403  0.18204  0.20023  1.0000
  S   S9        1.0  0.24665  0.28105  0.36349  1.0000
  Fe  Fe5       1.0  0.34868  0.30643  0.38477  1.0000
  S   S10       1.0  0.34352  0.27284  0.37743  1.0000
  C   C1        1.0  0.47910  0.01052  0.01842  1.0000
  Fe  Fe6       1.0  0.30530  0.28164  0.33845  1.0000
  S   S11       1.0  0.32135  0.26731  0.29492  1.0000
  Fe  Fe7       1.0  0.28508  0.27518  0.40334  1.0000
  S   S12       1.0  0.25745  0.25098  0.43298  1.0000
  S   S13       1.0  0.31324  0.31532  0.34437  1.0000
  S   S14       1.0  0.29238  0.30833  0.41372  1.0000
  Fe  Fe8       1.0  0.45580  0.07490  0.10815  1.0000
  S   S15       1.0  0.39994  0.09186  0.08998  1.0000
  C   C2        1.0  0.29226  0.26072  0.48628  1.0000
  C   C3        1.0  0.33384  0.20369  0.23560  1.0000
  S   S16       1.0  0.45519  0.04064  0.11197  1.0000
  H   H2        1.0  0.16543  0.27215  0.02280  1.0000
  C   C4        1.0  0.00560  0.17765  0.10971  1.0000
  C   C5        1.0  0.48432  0.01282  0.22237  1.0000
  C   C6        1.0  0.49645  0.01966  0.50396  1.0000
  H   H3        1.0  0.43778  0.28003  0.38743  1.0000
  H   H4        1.0  0.19099  0.19047  0.22426  1.0000
  C   C7        1.0  0.32414  0.14344  0.13161  1.0000
  C   C8        1.0  0.31572  0.13686  0.10338  1.0000
  C   C9        1.0  0.33979  0.12138  0.09076  1.0000
  C   C10       1.0  0.37278  0.11243  0.10603  1.0000
  C   C11       1.0  0.38160  0.11924  0.13410  1.0000
  C   C12       1.0  0.35721  0.13452  0.14685  1.0000
  H   H5        1.0  0.29032  0.14349  0.09141  1.0000
  H   H6        1.0  0.33257  0.11621  0.06908  1.0000
  H   H7        1.0  0.40684  0.11253  0.14612  1.0000
  H   H8        1.0  0.36406  0.13950  0.16867  1.0000
  C   C13       1.0  0.22475  0.24512  0.22946  1.0000
  C   C14       1.0  0.26582  0.24718  0.22125  1.0000
  C   C15       1.0  0.29485  0.25474  0.24119  1.0000
  C   C16       1.0  0.28316  0.26012  0.26953  1.0000
  C   C17       1.0  0.24197  0.25841  0.27751  1.0000
  C   C18       1.0  0.21293  0.25098  0.25754  1.0000
  H   H9        1.0  0.27523  0.24280  0.19966  1.0000
  H   H10       1.0  0.32662  0.25610  0.23478  1.0000
  H   H11       1.0  0.23254  0.26255  0.29920  1.0000
  H   H12       1.0  0.18117  0.24956  0.26400  1.0000
  C   C19       1.0  0.26351  0.24912  0.47111  1.0000
  H   H13       1.0  0.49643  0.05484  0.01962  1.0000
  C   C20       1.0  0.47704  0.27739  0.30960  1.0000
  C   C21       1.0  0.24893  0.24494  0.02808  1.0000
  C   C22       1.0  0.20550  0.28964  0.49313  1.0000
  C   C23       1.0  0.18769  0.28225  0.46761  1.0000
  H   H14       1.0  0.32972  0.21760  0.27786  1.0000
  S   S17       1.0  0.48373  0.07890  0.15209  1.0000
  H   H15       1.0  0.41363  0.07207  0.19796  1.0000
  H   H16       1.0  0.31190  0.27116  0.47458  1.0000
  H   H17       1.0  0.36591  0.07660  0.21687  1.0000
  C   C24       1.0  0.45942  0.31066  0.39242  1.0000
  C   C25       1.0  0.46448  0.28968  0.38899  1.0000
  H   H18       1.0  0.36096  0.99575  0.41294  1.0000
  C   C26       1.0  0.27166  0.20531  0.26382  1.0000
  C   C27       1.0  0.03542  0.21084  0.11658  1.0000
  C   C28       1.0  0.04074  0.18995  0.11241  1.0000
  N   N1        1.0  0.49943  0.29430  0.31634  1.0000
  H   H19       1.0  0.06205  0.22051  0.11869  1.0000
  H   H20       1.0  0.37474  0.29528  0.01207  1.0000
  H   H21       1.0  0.25582  0.21041  0.28316  1.0000
  H   H22       1.0  0.20259  0.17714  0.25784  1.0000
  H   H23       1.0  0.43966  0.01924  0.25560  1.0000
  C   C29       1.0  0.24273  0.22673  0.01321  1.0000
  H   H24       1.0  0.35712  0.25982  0.02542  1.0000
  H   H25       1.0  0.32745  0.18932  0.19374  1.0000
  H   H26       1.0  0.38113  0.29746  0.31329  1.0000
  H   H27       1.0  0.39007  0.03702  0.16257  1.0000
  Fe  Fe9       1.0  0.48801  0.04477  0.15488  1.0000
  H   H28       1.0  0.29493  0.09147  0.13066  1.0000
  H   H29       1.0  0.26633  0.27640  0.02387  1.0000
  N   N2        1.0  0.36043  0.06485  0.17374  1.0000
  C   C30       1.0  0.31226  0.20002  0.50606  1.0000
  H   H30       1.0  0.41612  0.26492  0.30331  1.0000
  H   H31       1.0  0.35715  0.03507  0.11411  1.0000
  H   H32       1.0  0.46005  0.02085  0.03066  1.0000
  C   C31       1.0  0.20676  0.19157  0.24564  1.0000
  Fe  Fe10      1.0  0.25669  0.31433  0.37243  1.0000
  H   H33       1.0  0.13111  0.28384  0.42058  1.0000
  H   H34       1.0  0.19124  0.20423  0.25723  1.0000
  H   H35       1.0  0.33422  0.22694  0.00963  1.0000
  C   C32       1.0  0.16446  0.28629  0.41738  1.0000
  C   C33       1.0  0.31358  0.20935  0.26098  1.0000
  C   C34       1.0  0.43414  0.27829  0.30844  1.0000
  N   N3        1.0  0.25055  0.19589  0.24200  1.0000
  C   C35       1.0  0.19405  0.31463  0.44503  1.0000
  C   C36       1.0  0.27044  0.18981  0.21738  1.0000
  N   N4        1.0  0.18284  0.29461  0.44384  1.0000
  C   C37       1.0  0.36849  0.04879  0.15589  1.0000
  C   C38       1.0  0.31222  0.19378  0.21368  1.0000
  H   H36       1.0  0.21566  0.22670  0.47506  1.0000
  H   H37       1.0  0.26634  0.17883  0.49156  1.0000
  S   S18       1.0  0.46522  0.03237  0.19877  1.0000
  H   H38       1.0  0.32894  0.09317  0.17854  1.0000
  C   C39       1.0  0.23809  0.23569  0.48662  1.0000
  H   H39       1.0  0.17941  0.27160  0.41179  1.0000
  H   H40       1.0  0.36606  0.20722  0.23274  1.0000
  C   C40       1.0  0.33422  0.08000  0.16498  1.0000
  C   C41       1.0  0.31473  0.07912  0.13790  1.0000
  H   H41       1.0  0.31363  0.20817  0.48549  1.0000
  C   C42       1.0  0.34984  0.04753  0.12854  1.0000
  H   H42       1.0  0.17876  0.26640  0.46664  1.0000
  H   H43       1.0  0.23300  0.21331  0.02501  1.0000
  C   C43       1.0  0.38202  0.06632  0.20162  1.0000
  H   H44       1.0  0.38437  0.05111  0.21227  1.0000
  H   H45       1.0  0.30954  0.06251  0.09790  1.0000
  C   C44       1.0  0.46573  0.00996  0.24970  1.0000
  H   H46       1.0  0.46668  0.99363  0.29083  1.0000
  C   C45       1.0  0.41432  0.29663  0.31408  1.0000
  H   H47       1.0  0.00933  0.16148  0.10641  1.0000
  C   C46       1.0  0.32292  0.06285  0.11951  1.0000
  H   H48       1.0  0.16865  0.29660  0.39840  1.0000
  C   C47       1.0  0.26160  0.26224  0.01250  1.0000
  C   C48       1.0  0.48085  0.99535  0.26974  1.0000
  C   C49       1.0  0.48015  0.31239  0.32175  1.0000
  C   C50       1.0  0.43732  0.31379  0.32089  1.0000
  C   C51       1.0  0.49673  0.01419  0.47428  1.0000
  H   H49       1.0  0.49317  0.02589  0.45783  1.0000
  C   C52       1.0  0.21217  0.32251  0.47013  1.0000
  C   C53       1.0  0.50126  0.99377  0.46566  1.0000
  H   H50       1.0  0.18956  0.32458  0.42643  1.0000
  C   C54       1.0  0.21815  0.30986  0.49425  1.0000
  S   S19       1.0  0.40999  0.32224  0.39333  1.0000
  H   H51       1.0  0.41607  0.99622  0.40773  1.0000
  H   H52       1.0  0.49231  0.26308  0.30525  1.0000
  C   C55       1.0  0.49465  0.32294  0.39437  1.0000
  C   C56       1.0  0.50418  0.28115  0.38770  1.0000
  H   H53       1.0  0.49773  0.32575  0.32754  1.0000
  Fe  Fe11      1.0  0.15212  0.20405  0.60854  1.0000
  S   S20       1.0  0.18636  0.23136  0.62495  1.0000
  S   S21       1.0  0.08722  0.21079  0.59187  1.0000
  Fe  Fe12      1.0  0.22885  0.17645  0.61595  1.0000
  S   S22       1.0  0.26754  0.20187  0.63329  1.0000
  S   S23       1.0  0.25148  0.14401  0.60761  1.0000
  Fe  Fe13      1.0  0.21179  0.21051  0.65947  1.0000
  S   S24       1.0  0.20419  0.21692  0.70784  1.0000
  Fe  Fe14      1.0  0.23857  0.22055  0.59718  1.0000
  S   S25       1.0  0.27764  0.24212  0.57008  1.0000
  S   S26       1.0  0.17447  0.18361  0.64453  1.0000
  S   S27       1.0  0.20310  0.19467  0.57833  1.0000
  C   C57       1.0  0.33795  0.06295  0.67291  1.0000
  S   S28       1.0  0.23809  0.27789  0.86629  1.0000
  Fe  Fe15      1.0  0.34084  0.30372  0.88679  1.0000
  S   S29       1.0  0.33745  0.27149  0.87179  1.0000
  C   C58       1.0  0.38472  0.28830  0.96695  1.0000
  Fe  Fe16      1.0  0.29307  0.28327  0.83805  1.0000
  S   S30       1.0  0.30575  0.27630  0.79042  1.0000
  Fe  Fe17      1.0  0.28288  0.26916  0.90150  1.0000
  S   S31       1.0  0.27216  0.24130  0.92988  1.0000
  C   C59       1.0  0.33585  0.20645  0.52973  1.0000
  S   S32       1.0  0.28888  0.30069  0.91895  1.0000
  Fe  Fe18      1.0  0.46658  0.07768  0.62023  1.0000
  S   S33       1.0  0.43345  0.10849  0.62114  1.0000
  C   C60       1.0  0.03411  0.23720  0.65465  1.0000
  H   H54       1.0  0.29661  0.08739  0.66118  1.0000
  S   S34       1.0  0.44581  0.04503  0.62377  1.0000
  H   H55       1.0  0.23268  0.31566  0.51374  1.0000
  C   C61       1.0  0.10266  0.20205  0.71549  1.0000
  H   H56       1.0  0.33989  0.21542  0.59274  1.0000
  C   C62       1.0  0.46367  0.00137  0.99293  1.0000
  C   C63       1.0  0.37387  0.25322  0.95408  1.0000
  C   C64       1.0  0.37654  0.05804  0.68414  1.0000
  C   C65       1.0  0.30220  0.13428  0.61170  1.0000
  C   C66       1.0  0.31057  0.11409  0.60360  1.0000
  C   C67       1.0  0.35053  0.10588  0.60610  1.0000
  C   C68       1.0  0.38265  0.11787  0.61657  1.0000
  C   C69       1.0  0.37424  0.13806  0.62465  1.0000
  C   C70       1.0  0.33426  0.14616  0.62253  1.0000
  H   H57       1.0  0.28601  0.10476  0.59521  1.0000
  H   H58       1.0  0.35651  0.09033  0.59982  1.0000
  H   H59       1.0  0.39882  0.14743  0.63292  1.0000
  H   H60       1.0  0.32826  0.16158  0.62937  1.0000
  C   C71       1.0  0.23278  0.23368  0.73022  1.0000
  C   C72       1.0  0.26599  0.24490  0.71965  1.0000
  C   C73       1.0  0.28789  0.25790  0.73836  1.0000
  C   C74       1.0  0.27678  0.25989  0.76774  1.0000
  C   C75       1.0  0.24346  0.24873  0.77826  1.0000
  C   C76       1.0  0.22166  0.23568  0.75958  1.0000
  H   H61       1.0  0.27487  0.24353  0.69713  1.0000
  H   H62       1.0  0.31356  0.26649  0.72998  1.0000
  H   H63       1.0  0.23459  0.25008  0.80078  1.0000
  H   H64       1.0  0.19608  0.22705  0.76800  1.0000
  C   C77       1.0  0.26220  0.24321  0.96748  1.0000
  C   C78       1.0  0.16625  0.24704  0.92946  1.0000
  C   C79       1.0  0.40343  0.07364  0.69194  1.0000
  C   C80       1.0  0.27052  0.24514  0.53216  1.0000
  N   N5        1.0  0.42654  0.29450  0.80379  1.0000
  H   H65       1.0  0.34501  0.11431  0.67561  1.0000
  C   C81       1.0  0.17845  0.29921  0.96027  1.0000
  C   C82       1.0  0.24127  0.23385  0.51701  1.0000
  H   H66       1.0  0.31858  0.26745  0.52825  1.0000
  H   H67       1.0  0.09291  0.24845  0.64059  1.0000
  C   C83       1.0  0.30697  0.18069  0.55955  1.0000
  C   C84       1.0  0.45151  0.30801  0.89213  1.0000
  C   C85       1.0  0.45671  0.28919  0.87863  1.0000
  C   C86       1.0  0.47569  0.99297  0.77797  1.0000
  H   H68       1.0  0.49999  0.26781  0.86064  1.0000
  C   C87       1.0  0.03460  0.18713  0.62559  1.0000
  C   C88       1.0  0.03863  0.20243  0.60456  1.0000
  H   H69       1.0  0.31710  0.05098  0.66639  1.0000
  H   H70       1.0  0.06174  0.17975  0.63428  1.0000
  H   H71       1.0  0.02079  0.20197  0.70779  1.0000
  N   N6        1.0  0.07860  0.21417  0.69468  1.0000
  C   C89       1.0  0.37481  0.28352  0.99566  1.0000
  C   C90       1.0  0.49799  0.04434  0.96233  1.0000
  C   C91       1.0  0.50050  0.00474  0.52560  1.0000
  H   H72       1.0  0.16022  0.24433  0.98722  1.0000
  C   C92       1.0  0.48656  0.31949  0.89906  1.0000
  C   C93       1.0  0.48451  0.01077  0.73114  1.0000
  H   H73       1.0  0.43022  0.28017  0.87306  1.0000
  C   C94       1.0  0.35765  0.20376  0.58071  1.0000
  S   S35       1.0  0.46579  0.02918  0.70547  1.0000
  C   C95       1.0  0.42105  0.10969  0.69641  1.0000
  C   C96       1.0  0.24953  0.22587  0.98302  1.0000
  S   S36       1.0  0.40193  0.31818  0.89949  1.0000
  C   C97       1.0  0.46250  0.00748  0.75708  1.0000
  H   H74       1.0  0.24521  0.21166  0.97171  1.0000
  H   H75       1.0  0.43494  0.01621  0.76107  1.0000
  C   C98       1.0  0.26787  0.26145  0.98232  1.0000
  H   H76       1.0  0.18369  0.31458  0.95234  1.0000
  H   H77       1.0  0.27766  0.27489  0.97070  1.0000
  H   H78       1.0  0.35518  0.21974  0.52724  1.0000
  C   C99       1.0  0.41284  0.27499  0.79206  1.0000
  H   H79       1.0  0.26168  0.16134  0.53976  1.0000
  C   C100      1.0  0.32642  0.08332  0.67009  1.0000
  H   H80       1.0  0.13173  0.22848  0.67720  1.0000
  H   H81       1.0  0.21026  0.27959  0.51166  1.0000
  H   H82       1.0  0.18513  0.25017  0.90983  1.0000
  H   H83       1.0  0.46886  0.05194  0.96579  1.0000
  Fe  Fe19      1.0  0.24680  0.31005  0.88217  1.0000
  N   N7        1.0  0.39235  0.09356  0.68829  1.0000
  H   H84       1.0  0.12580  0.19275  0.70376  1.0000
  C   C101      1.0  0.35403  0.09851  0.67823  1.0000
  H   H85       1.0  0.17839  0.28632  0.91760  1.0000
  H   H86       1.0  0.33904  0.21956  0.97256  1.0000
  H   H87       1.0  0.08330  0.19158  0.72852  1.0000
  C   C102      1.0  0.39776  0.30850  0.81193  1.0000
  H   H88       1.0  0.38587  0.04226  0.68660  1.0000
  H   H89       1.0  0.43887  0.26494  0.78613  1.0000
  S   S37       1.0  0.29927  0.31608  0.85147  1.0000
  C   C103      1.0  0.03675  0.21248  0.69358  1.0000
  H   H90       1.0  0.45325  0.10495  0.69220  1.0000
  C   C104      1.0  0.09859  0.22719  0.67632  1.0000
  C   C105      1.0  0.07674  0.23878  0.65592  1.0000
  H   H91       1.0  0.39237  0.27667  0.92376  1.0000
  H   H92       1.0  0.39257  0.30378  0.96078  1.0000
  H   H93       1.0  0.43278  0.00484  0.98576  1.0000
  H   H94       1.0  0.43339  0.06967  0.70066  1.0000
  H   H95       1.0  0.36535  0.30526  0.80928  1.0000
  C   C106      1.0  0.28284  0.17388  0.53645  1.0000
  C   C107      1.0  0.17556  0.28312  0.94066  1.0000
  C   C108      1.0  0.38446  0.27306  0.94606  1.0000
  H   H96       1.0  0.01694  0.24564  0.63831  1.0000
  N   N8        1.0  0.33346  0.19658  0.55592  1.0000
  C   C109      1.0  0.29588  0.25863  0.51668  1.0000
  H   H97       1.0  0.22150  0.22346  0.52864  1.0000
  H   H98       1.0  0.39357  0.27755  0.77236  1.0000
  H   H99       1.0  0.11941  0.21224  0.73061  1.0000
  H   H100      1.0  0.37296  0.24155  0.93753  1.0000
  C   C110      1.0  0.16760  0.27548  0.99968  1.0000
  H   H101      1.0  0.13378  0.24499  0.92282  1.0000
  C   C111      1.0  0.46748  0.29852  0.80716  1.0000
  N   N9        1.0  0.16954  0.26366  0.95038  1.0000
  C   C112      1.0  0.16487  0.25976  0.97943  1.0000
  H   H102      1.0  0.17830  0.23259  0.93887  1.0000
  H   H103      1.0  0.30393  0.17335  0.58051  1.0000
  Fe  Fe20      1.0  0.48948  0.04181  0.66182  1.0000
  H   H104      1.0  0.41589  0.12358  0.68298  1.0000
  Fe  Fe21      1.0  0.50066  0.03766  0.59536  1.0000
  H   H105      1.0  0.39378  0.26687  0.80842  1.0000
  C   C113      1.0  0.01387  0.22404  0.67365  1.0000
  H   H106      1.0  0.41755  0.11340  0.71975  1.0000
  H   H107      1.0  0.38701  0.21062  0.57346  1.0000
  S   S38       1.0  0.50061  0.01055  0.56357  1.0000
  N   N10       1.0  0.36421  0.24864  0.98228  1.0000
  C   C114      1.0  0.28552  0.18366  0.50953  1.0000
  H   H108      1.0  0.47654  0.02872  0.92395  1.0000
  H   H109      1.0  0.36530  0.19104  0.59584  1.0000
  C   C115      1.0  0.35506  0.22757  0.99053  1.0000
  C   C116      1.0  0.48044  0.31690  0.81923  1.0000
  H   H110      1.0  0.49272  0.03541  0.51007  1.0000
  H   H111      1.0  0.49045  0.28727  0.80150  1.0000
  C   C117      1.0  0.49640  0.28222  0.87153  1.0000
  C   C118      1.0  0.17468  0.29530  0.98998  1.0000
  H   H112      1.0  0.17742  0.30759  0.00546  1.0000
  H   H113      1.0  0.38388  0.21934  0.99590  1.0000
  C   C119      1.0  0.36496  0.26343  0.00306  1.0000
  S   S39       1.0  0.18481  0.32559  0.89012  1.0000
  H   H114      1.0  0.00574  0.22362  0.57710  1.0000
  C   C120      1.0  0.50222  0.03142  0.93849  1.0000
  H   H115      1.0  0.42196  0.32794  0.32629  1.0000
  Fe  Fe22      1.0  0.05538  0.42952  0.38862  1.0000
  S   S40       1.0  0.12217  0.41946  0.39436  1.0000
  C   C121      1.0  0.04554  0.57408  0.02017  1.0000
  H   H116      1.0  0.04329  0.54139  0.01789  1.0000
  S   S41       1.0  0.04001  0.46239  0.37842  1.0000
  Fe  Fe23      1.0  0.03562  0.57995  0.12831  1.0000
  S   S42       1.0  0.07255  0.60867  0.11773  1.0000
  H   H117      1.0  0.16748  0.56725  0.07606  1.0000
  H   H118      1.0  0.17647  0.39451  0.32892  1.0000
  S   S43       1.0  0.05551  0.54774  0.13752  1.0000
  H   H119      1.0  0.21999  0.64660  0.21790  1.0000
  C   C122      1.0  0.15422  0.39516  0.31056  1.0000
  H   H120      1.0  0.13041  0.46104  0.34043  1.0000
  C   C123      1.0  0.12142  0.61824  0.12803  1.0000
  C   C124      1.0  0.13453  0.63677  0.11585  1.0000
  C   C125      1.0  0.17285  0.64520  0.12328  1.0000
  C   C126      1.0  0.19871  0.63514  0.14298  1.0000
  C   C127      1.0  0.18582  0.61648  0.15498  1.0000
  C   C128      1.0  0.14733  0.60808  0.14765  1.0000
  H   H121      1.0  0.11482  0.64475  0.10060  1.0000
  C   C129      1.0  0.07562  0.43445  0.29067  1.0000
  H   H122      1.0  0.20557  0.60855  0.17025  1.0000
  H   H123      1.0  0.13769  0.59383  0.15726  1.0000
  C   C130      1.0  0.14172  0.39462  0.38813  1.0000
  C   C131      1.0  0.11702  0.37909  0.37715  1.0000
  C   C132      1.0  0.13419  0.35990  0.37098  1.0000
  C   C133      1.0  0.17612  0.35590  0.37582  1.0000
  C   C134      1.0  0.20077  0.37135  0.38713  1.0000
  C   C135      1.0  0.18364  0.39061  0.39314  1.0000
  H   H124      1.0  0.08476  0.38192  0.37318  1.0000
  H   H125      1.0  0.11481  0.34806  0.36229  1.0000
  H   H126      1.0  0.23309  0.36855  0.39090  1.0000
  H   H127      1.0  0.20305  0.40253  0.40158  1.0000
  H   H128      1.0  0.09651  0.65804  0.16915  1.0000
  C   C136      1.0  0.08752  0.55165  0.04950  1.0000
  H   H129      1.0  0.05518  0.60607  0.02757  1.0000
  H   H130      1.0  0.03016  0.52887  0.27869  1.0000
  C   C137      1.0  0.14334  0.43033  0.32680  1.0000
  H   H131      1.0  0.08814  0.40359  0.27867  1.0000
  S   S44       1.0  0.02616  0.51269  0.07292  1.0000
  H   H132      1.0  0.13179  0.57593  0.10333  1.0000
  C   C138      1.0  0.09784  0.41624  0.29201  1.0000
  H   H133      1.0  0.10947  0.60035  0.06432  1.0000
  C   C139      1.0  0.13642  0.56498  0.08532  1.0000
  H   H134      1.0  0.13457  0.54950  0.09511  1.0000
  H   H135      1.0  0.05561  0.48094  0.03563  1.0000
  H   H136      1.0  0.04892  0.43592  0.27662  1.0000
  H   H137      1.0  0.16933  0.42880  0.34146  1.0000
  C   C140      1.0  0.06438  0.59069  0.03329  1.0000
  H   H138      1.0  0.07002  0.46480  0.30754  1.0000
  H   H139      1.0  0.09603  0.53628  0.05580  1.0000
  H   H140      1.0  0.15302  0.64356  0.19857  1.0000
  N   N11       1.0  0.13111  0.41433  0.31003  1.0000
  C   C141      1.0  0.12149  0.44867  0.32628  1.0000
  C   C142      1.0  0.03038  0.48827  0.02433  1.0000
  N   N12       1.0  0.10515  0.56803  0.06274  1.0000
  C   C143      1.0  0.08751  0.45072  0.30801  1.0000
  S   S45       1.0  0.24609  0.64585  0.15444  1.0000
  H   H141      1.0  0.17148  0.39332  0.28998  1.0000
  C   C144      1.0  0.09480  0.58736  0.05431  1.0000
  H   H142      1.0  0.13307  0.38208  0.31349  1.0000
  C   C145      1.0  0.01583  0.51543  0.26989  1.0000
  S   S46       1.0  0.01206  0.41748  0.35503  1.0000
  H   H143      1.0  0.00903  0.46345  0.49378  1.0000
  S   S47       1.0  0.19575  0.33150  0.36676  1.0000
  S   S48       1.0  0.01422  0.53717  0.21831  1.0000
  C   C146      1.0  0.05755  0.55443  0.02801  1.0000
  H   H144      1.0  0.49112  0.33919  0.39701  1.0000
  C   C147      1.0  0.00869  0.49851  0.28831  1.0000
  H   H145      1.0  0.22183  0.33828  0.47067  1.0000
  S   S49       1.0  0.01000  0.42735  0.42524  1.0000
  Fe  Fe24      1.0  0.00743  0.53817  0.10457  1.0000
  H   H146      1.0  0.01738  0.49911  0.31099  1.0000
  C   C148      1.0  0.00944  0.50442  0.03784  1.0000
  C   C149      1.0  0.12512  0.50396  0.58534  1.0000
  Fe  Fe25      1.0  0.05157  0.42815  0.88737  1.0000
  S   S50       1.0  0.11840  0.41738  0.88854  1.0000
  H   H147      1.0  0.38663  0.33761  0.83190  1.0000
  C   C150      1.0  0.18295  0.64573  0.64095  1.0000
  S   S51       1.0  0.03743  0.46141  0.87874  1.0000
  Fe  Fe26      1.0  0.06270  0.57124  0.62629  1.0000
  S   S52       1.0  0.12489  0.58468  0.61372  1.0000
  C   C151      1.0  0.08633  0.46632  0.78397  1.0000
  H   H148      1.0  0.01971  0.44205  0.74884  1.0000
  S   S53       1.0  0.05611  0.53795  0.63709  1.0000
  C   C152      1.0  0.00673  0.49946  0.78991  1.0000
  H   H149      1.0  0.06754  0.43607  0.73075  1.0000
  C   C153      1.0  0.12709  0.54441  0.56828  1.0000
  C   C154      1.0  0.14605  0.60845  0.62432  1.0000
  C   C155      1.0  0.18338  0.61486  0.61198  1.0000
  C   C156      1.0  0.20168  0.63342  0.62013  1.0000
  C   C157      1.0  0.45123  0.33110  0.82806  1.0000
  C   C158      1.0  0.14561  0.63932  0.65325  1.0000
  C   C159      1.0  0.12715  0.62086  0.64493  1.0000
  H   H150      1.0  0.19831  0.60541  0.59602  1.0000
  H   H151      1.0  0.23040  0.63810  0.61050  1.0000
  H   H152      1.0  0.10493  0.41702  0.82793  1.0000
  H   H153      1.0  0.09851  0.61615  0.65463  1.0000
  C   C160      1.0  0.13622  0.39173  0.88806  1.0000
  C   C161      1.0  0.17860  0.38786  0.88562  1.0000
  C   C162      1.0  0.19409  0.36776  0.88565  1.0000
  C   C163      1.0  0.16730  0.35128  0.88839  1.0000
  C   C164      1.0  0.12492  0.35517  0.89073  1.0000
  C   C165      1.0  0.10941  0.37524  0.89038  1.0000
  H   H154      1.0  0.19966  0.40048  0.88390  1.0000
  H   H155      1.0  0.22674  0.36507  0.88396  1.0000
  H   H156      1.0  0.10388  0.34257  0.89287  1.0000
  H   H157      1.0  0.07678  0.37793  0.89229  1.0000
  H   H158      1.0  0.06824  0.41613  0.78087  1.0000
  H   H159      1.0  0.03597  0.46924  0.98619  1.0000
  C   C166      1.0  0.01550  0.51631  0.77173  1.0000
  H   H160      1.0  0.13084  0.64870  0.66937  1.0000
  H   H161      1.0  0.12722  0.56042  0.56238  1.0000
  C   C167      1.0  0.11348  0.44948  0.82662  1.0000
  N   N13       1.0  0.07332  0.44805  0.77332  1.0000
  H   H162      1.0  0.06753  0.52655  0.51508  1.0000
  H   H163      1.0  0.48297  0.33404  0.90958  1.0000
  C   C168      1.0  0.15093  0.51742  0.59985  1.0000
  H   H164      1.0  0.08064  0.48029  0.77195  1.0000
  H   H165      1.0  0.04493  0.54349  0.54123  1.0000
  C   C169      1.0  0.05193  0.44701  0.74530  1.0000
  H   H166      1.0  0.17145  0.54850  0.60267  1.0000
  C   C170      1.0  0.10088  0.51109  0.56230  1.0000
  N   N14       1.0  0.10208  0.53109  0.55404  1.0000
  C   C171      1.0  0.15217  0.53775  0.59117  1.0000
  H   H167      1.0  0.11584  0.48187  0.81956  1.0000
  H   H168      1.0  0.12317  0.48819  0.59222  1.0000
  C   C172      1.0  0.07950  0.43054  0.78892  1.0000
  C   C173      1.0  0.10636  0.46733  0.81085  1.0000
  C   C174      1.0  0.10004  0.43095  0.81560  1.0000
  H   H169      1.0  0.16941  0.51223  0.61810  1.0000
  H   H170      1.0  0.05087  0.46203  0.73412  1.0000
  C   C175      1.0  0.07431  0.53859  0.53125  1.0000
  H   H171      1.0  0.12881  0.45002  0.84759  1.0000
  C   C176      1.0  0.01933  0.48158  0.99622  1.0000
  H   H172      1.0  0.46878  0.64586  0.60448  1.0000
  H   H173      1.0  0.01554  0.49965  0.81259  1.0000
  C   C177      1.0  0.00474  0.51638  0.74203  1.0000
  Fe  Fe27      1.0  0.01146  0.54712  0.67188  1.0000
  H   H174      1.0  0.01643  0.47304  0.54568  1.0000
  S   S54       1.0  0.01159  0.57081  0.59335  1.0000
  H   H175      1.0  0.03089  0.52939  0.78077  1.0000
  S   S55       1.0  0.01704  0.53812  0.72026  1.0000
  S   S56       1.0  0.02240  0.58049  0.66304  1.0000
  S   S57       1.0  0.00671  0.42555  0.92431  1.0000
  H   H176      1.0  0.46076  0.34498  0.83872  1.0000
  C   C178      1.0  0.40961  0.32693  0.82433  1.0000
  H   H177      1.0  0.08033  0.50061  0.55151  1.0000
  H   H178      1.0  0.08784  0.55167  0.51931  1.0000
  S   S58       1.0  0.00713  0.41736  0.85367  1.0000
  H   H179      1.0  0.02155  0.57638  0.00407  1.0000
  C   C179      1.0  0.35130  0.75396  0.24960  1.0000
  S   S59       1.0  0.46217  0.96140  0.35797  1.0000
  C   C180      1.0  0.25771  0.73371  0.02245  1.0000
  H   H180      1.0  0.27065  0.81351  0.44703  1.0000
  Fe  Fe28      1.0  0.45165  0.92773  0.36462  1.0000
  S   S60       1.0  0.38631  0.91580  0.35776  1.0000
  Fe  Fe29      1.0  0.26884  0.67723  0.14036  1.0000
  S   S61       1.0  0.22416  0.70121  0.12615  1.0000
  Fe  Fe30      1.0  0.34283  0.70656  0.13655  1.0000
  S   S62       1.0  0.30180  0.73233  0.12142  1.0000
  S   S63       1.0  0.40830  0.71808  0.14461  1.0000
  Fe  Fe31      1.0  0.25865  0.72177  0.15634  1.0000
  S   S64       1.0  0.22466  0.74439  0.18463  1.0000
  Fe  Fe32      1.0  0.27150  0.70947  0.09260  1.0000
  S   S65       1.0  0.24932  0.71265  0.04579  1.0000
  S   S66       1.0  0.30057  0.69739  0.17312  1.0000
  S   S67       1.0  0.31507  0.68413  0.10512  1.0000
  Fe  Fe33      1.0  0.24871  0.81331  0.38427  1.0000
  S   S68       1.0  0.25907  0.77983  0.39201  1.0000
  S   S69       1.0  0.30708  0.83083  0.39634  1.0000
  Fe  Fe34      1.0  0.15658  0.80574  0.37102  1.0000
  S   S70       1.0  0.16197  0.77198  0.37751  1.0000
  S   S71       1.0  0.09499  0.82213  0.36508  1.0000
  Fe  Fe35      1.0  0.20017  0.77973  0.41669  1.0000
  S   S72       1.0  0.18490  0.76691  0.46138  1.0000
  Fe  Fe36      1.0  0.22068  0.77500  0.35187  1.0000
  S   S73       1.0  0.24702  0.75097  0.32162  1.0000
  S   S74       1.0  0.19172  0.81342  0.41175  1.0000
  S   S75       1.0  0.21337  0.80850  0.34255  1.0000
  C   C181      1.0  0.07584  0.76866  0.43834  1.0000
  C   C182      1.0  0.34749  0.74782  0.19703  1.0000
  C   C183      1.0  0.26050  0.74966  0.47486  1.0000
  C   C184      1.0  0.22077  0.75425  0.48420  1.0000
  H   H181      1.0  0.01419  0.83984  0.36593  1.0000
  C   C185      1.0  0.27432  0.75194  0.03256  1.0000
  H   H182      1.0  0.35576  0.81484  0.44655  1.0000
  H   H183      1.0  0.26950  0.75324  0.45282  1.0000
  H   H184      1.0  0.11904  0.79328  0.43655  1.0000
  H   H185      1.0  0.28457  0.75301  0.05487  1.0000
  C   C186      1.0  0.22882  0.74513  0.22298  1.0000
  C   C187      1.0  0.20753  0.76023  0.23833  1.0000
  C   C188      1.0  0.21190  0.76198  0.26870  1.0000
  C   C189      1.0  0.23741  0.74849  0.28394  1.0000
  C   C190      1.0  0.25789  0.73308  0.26865  1.0000
  C   C191      1.0  0.25385  0.73146  0.23830  1.0000
  H   H186      1.0  0.18806  0.77087  0.22667  1.0000
  H   H187      1.0  0.19596  0.77389  0.28024  1.0000
  H   H188      1.0  0.27772  0.72262  0.28033  1.0000
  H   H189      1.0  0.27065  0.71985  0.22682  1.0000
  C   C192      1.0  0.40823  0.96931  0.45062  1.0000
  C   C193      1.0  0.04529  0.81091  0.36388  1.0000
  C   C194      1.0  0.03977  0.78985  0.36276  1.0000
  H   H190      1.0  0.02585  0.74749  0.43870  1.0000
  H   H191      1.0  0.06626  0.77994  0.36175  1.0000
  H   H192      1.0  0.35052  0.75987  0.29583  1.0000
  C   C195      1.0  0.45740  0.70611  0.14462  1.0000
  C   C196      1.0  0.46236  0.68509  0.14159  1.0000
  C   C197      1.0  0.41286  0.95178  0.46769  1.0000
  H   H193      1.0  0.28894  0.78310  0.02204  1.0000
  C   C198      1.0  0.36559  0.89168  0.36760  1.0000
  C   C199      1.0  0.32569  0.88663  0.35835  1.0000
  C   C200      1.0  0.30748  0.86797  0.36644  1.0000
  C   C201      1.0  0.32884  0.85422  0.38423  1.0000
  C   C202      1.0  0.36869  0.85933  0.39358  1.0000
  C   C203      1.0  0.38707  0.87787  0.38522  1.0000
  H   H194      1.0  0.30872  0.89721  0.34478  1.0000
  H   H195      1.0  0.27679  0.86435  0.35914  1.0000
  H   H196      1.0  0.38559  0.84883  0.40729  1.0000
  H   H197      1.0  0.41777  0.88150  0.39250  1.0000
  N   N15       1.0  0.39182  0.96823  0.42329  1.0000
  C   C204      1.0  0.37777  0.95012  0.41283  1.0000
  C   C205      1.0  0.30924  0.77536  0.22023  1.0000
  H   H198      1.0  0.46993  0.69332  0.07805  1.0000
  H   H199      1.0  0.37217  0.74118  0.25181  1.0000
  H   H200      1.0  0.48924  0.73454  0.14999  1.0000
  C   C206      1.0  0.16486  0.74641  0.04063  1.0000
  C   C207      1.0  0.39969  0.93313  0.45685  1.0000
  C   C208      1.0  0.32344  0.78864  0.49907  1.0000
  H   H201      1.0  0.29622  0.77930  0.19919  1.0000
  H   H202      1.0  0.35302  0.78158  0.50310  1.0000
  C   C209      1.0  0.31229  0.78086  0.27199  1.0000
  H   H203      1.0  0.14022  0.71893  0.02256  1.0000
  H   H204      1.0  0.43562  0.67549  0.13959  1.0000
  H   H205      1.0  0.15070  0.71736  0.17779  1.0000
  C   C210      1.0  0.34628  0.79879  0.45014  1.0000
  H   H206      1.0  0.17276  0.73937  0.06132  1.0000
  H   H207      1.0  0.33361  0.79300  0.42931  1.0000
  C   C211      1.0  0.27730  0.80628  0.46777  1.0000
  H   H208      1.0  0.19002  0.77557  0.05183  1.0000
  H   H209      1.0  0.37385  0.78956  0.45557  1.0000
  H   H210      1.0  0.36404  0.94928  0.39137  1.0000
  H   H211      1.0  0.42708  0.95268  0.48899  1.0000
  C   C212      1.0  0.18260  0.69243  0.19862  1.0000
  H   H212      1.0  0.31941  0.73700  0.48678  1.0000
  C   C213      1.0  0.15244  0.65979  0.19428  1.0000
  N   N16       1.0  0.31498  0.79778  0.47290  1.0000
  H   H213      1.0  0.24706  0.66984  0.21404  1.0000
  C   C214      1.0  0.29717  0.78640  0.24467  1.0000
  H   H214      1.0  0.21623  0.81144  0.48422  1.0000
  H   H215      1.0  0.35899  0.73233  0.20255  1.0000
  H   H216      1.0  0.40363  0.91933  0.46958  1.0000
  C   C215      1.0  0.27666  0.76897  0.01392  1.0000
  C   C216      1.0  0.08694  0.78906  0.43636  1.0000
  C   C217      1.0  0.28872  0.74046  0.49416  1.0000
  C   C218      1.0  0.15072  0.70114  0.18234  1.0000
  C   C219      1.0  0.49266  0.71828  0.14747  1.0000
  H   H217      1.0  0.09948  0.75704  0.44029  1.0000
  H   H218      1.0  0.48572  0.73007  0.08117  1.0000
  H   H219      1.0  0.30178  0.78870  0.29131  1.0000
  C   C220      1.0  0.24661  0.80545  0.48890  1.0000
  C   C221      1.0  0.17472  0.76670  0.03524  1.0000
  S   S76       1.0  0.48825  0.92683  0.40614  1.0000
  H   H220      1.0  0.27503  0.79868  0.24262  1.0000
  H   H221      1.0  0.20690  0.70213  0.20660  1.0000
  C   C222      1.0  0.14677  0.73489  0.01875  1.0000
  C   C223      1.0  0.05664  0.80395  0.43362  1.0000
  H   H222      1.0  0.37203  0.75599  0.18501  1.0000
  Fe  Fe37      1.0  0.50316  0.95982  0.39771  1.0000
  C   C224      1.0  0.12025  0.66793  0.17769  1.0000
  C   C225      1.0  0.38164  0.93229  0.42937  1.0000
  N   N17       1.0  0.33559  0.75922  0.22297  1.0000
  H   H223      1.0  0.21262  0.66644  0.24460  1.0000
  C   C226      1.0  0.50106  0.69861  0.07452  1.0000
  H   H224      1.0  0.37137  0.91788  0.42059  1.0000
  C   C227      1.0  0.33962  0.76459  0.27453  1.0000
  H   H225      1.0  0.32069  0.74581  0.18236  1.0000
  H   H226      1.0  0.09505  0.69522  0.15847  1.0000
  H   H227      1.0  0.41871  0.98375  0.45909  1.0000
  C   C228      1.0  0.50209  0.67645  0.14128  1.0000
  H   H228      1.0  0.38442  0.98325  0.38223  1.0000
  H   H229      1.0  0.18231  0.65952  0.11380  1.0000
  C   C229      1.0  0.21729  0.66329  0.22118  1.0000
  S   S77       1.0  0.49905  0.98784  0.42776  1.0000
  C   C230      1.0  0.11956  0.68874  0.17159  1.0000
  H   H230      1.0  0.06520  0.81978  0.43084  1.0000
  C   C231      1.0  0.01032  0.82352  0.36511  1.0000
  C   C232      1.0  0.38790  0.98679  0.40570  1.0000
  C   C233      1.0  0.03428  0.76340  0.43746  1.0000
  N   N18       1.0  0.18349  0.67197  0.20401  1.0000
  C   C234      1.0  0.01536  0.79818  0.43292  1.0000
  S   S78       1.0  0.50439  0.91891  0.33592  1.0000
  C   C235      1.0  0.27762  0.73591  0.52298  1.0000
  S   S79       1.0  0.45344  0.94849  0.86999  1.0000
  H   H231      1.0  0.27354  0.83897  0.76600  1.0000
  H   H232      1.0  0.18493  0.73230  0.69005  1.0000
  Fe  Fe38      1.0  0.47082  0.91581  0.87943  1.0000
  S   S80       1.0  0.43621  0.88549  0.88075  1.0000
  Fe  Fe39      1.0  0.26071  0.68734  0.63781  1.0000
  S   S81       1.0  0.24662  0.71898  0.62138  1.0000
  Fe  Fe40      1.0  0.35362  0.69718  0.64254  1.0000
  S   S82       1.0  0.34461  0.72950  0.62790  1.0000
  S   S83       1.0  0.41533  0.68264  0.65437  1.0000
  Fe  Fe41      1.0  0.28900  0.72946  0.65692  1.0000
  S   S84       1.0  0.26464  0.75553  0.68425  1.0000
  Fe  Fe42      1.0  0.30297  0.71610  0.59385  1.0000
  S   S85       1.0  0.31517  0.72578  0.54698  1.0000
  S   S86       1.0  0.30114  0.69819  0.67439  1.0000
  S   S87       1.0  0.31435  0.68347  0.60733  1.0000
  Fe  Fe43      1.0  0.23199  0.82329  0.86953  1.0000
  S   S88       1.0  0.27875  0.79941  0.87980  1.0000
  S   S89       1.0  0.25270  0.85554  0.85883  1.0000
  Fe  Fe44      1.0  0.15922  0.79421  0.88027  1.0000
  S   S90       1.0  0.20263  0.76839  0.89111  1.0000
  S   S91       1.0  0.09314  0.78379  0.88832  1.0000
  Fe  Fe45      1.0  0.23788  0.79111  0.91714  1.0000
  S   S92       1.0  0.26270  0.79015  0.96326  1.0000
  Fe  Fe46      1.0  0.23912  0.77907  0.85251  1.0000
  S   S93       1.0  0.27093  0.75672  0.82247  1.0000
  S   S94       1.0  0.19300  0.81640  0.90864  1.0000
  S   S95       1.0  0.19401  0.80343  0.83972  1.0000
  H   H233      1.0  0.22804  0.68226  0.70979  1.0000
  C   C236      1.0  0.13885  0.74386  0.99164  1.0000
  C   C237      1.0  0.24675  0.74957  0.97479  1.0000
  C   C238      1.0  0.26249  0.76791  0.98509  1.0000
  H   H234      1.0  0.40718  0.71038  0.54226  1.0000
  C   C239      1.0  0.23777  0.74032  0.53223  1.0000
  C   C240      1.0  0.22226  0.69263  0.72758  1.0000
  H   H235      1.0  0.23595  0.74853  0.95261  1.0000
  H   H236      1.0  0.23162  0.71849  0.98545  1.0000
  H   H237      1.0  0.22883  0.73686  0.55433  1.0000
  C   C241      1.0  0.26772  0.75601  0.72261  1.0000
  C   C242      1.0  0.24428  0.77037  0.73789  1.0000
  C   C243      1.0  0.24503  0.77088  0.76847  1.0000
  C   C244      1.0  0.26994  0.75727  0.78402  1.0000
  C   C245      1.0  0.29375  0.74309  0.76872  1.0000
  C   C246      1.0  0.29240  0.74233  0.73817  1.0000
  H   H238      1.0  0.22503  0.78096  0.72596  1.0000
  H   H239      1.0  0.22600  0.78164  0.77995  1.0000
  H   H240      1.0  0.31299  0.73245  0.78057  1.0000
  H   H241      1.0  0.31065  0.73124  0.72666  1.0000
  H   H242      1.0  0.48049  0.71013  0.54916  1.0000
  C   C247      1.0  0.04380  0.79450  0.88140  1.0000
  C   C248      1.0  0.03837  0.81316  0.86713  1.0000
  C   C249      1.0  0.18727  0.71558  0.69342  1.0000
  H   H243      1.0  0.06489  0.82186  0.86049  1.0000
  H   H244      1.0  0.29976  0.77966  0.54106  1.0000
  C   C250      1.0  0.46475  0.69266  0.64663  1.0000
  C   C251      1.0  0.46980  0.71092  0.63137  1.0000
  S   S96       1.0  0.20506  0.66893  0.65304  1.0000
  H   H245      1.0  0.44318  0.71983  0.62525  1.0000
  C   C252      1.0  0.38511  0.87788  0.87344  1.0000
  C   C253      1.0  0.37502  0.85733  0.87767  1.0000
  C   C254      1.0  0.33467  0.85039  0.87352  1.0000
  C   C255      1.0  0.30391  0.86384  0.86440  1.0000
  C   C256      1.0  0.31403  0.88438  0.85967  1.0000
  C   C257      1.0  0.35441  0.89142  0.86434  1.0000
  H   H246      1.0  0.39853  0.84673  0.88474  1.0000
  H   H247      1.0  0.32764  0.83461  0.87729  1.0000
  H   H248      1.0  0.29050  0.89495  0.85257  1.0000
  H   H249      1.0  0.36178  0.90730  0.86095  1.0000
  H   H250      1.0  0.23081  0.79459  0.53169  1.0000
  H   H251      1.0  0.01258  0.76912  0.90122  1.0000
  N   N19       1.0  0.43992  0.68833  0.56795  1.0000
  H   H252      1.0  0.25933  0.88468  0.91391  1.0000
  H   H253      1.0  0.17740  0.73755  0.74144  1.0000
  C   C258      1.0  0.43656  0.67063  0.58349  1.0000
  H   H254      1.0  0.17875  0.75282  0.52026  1.0000
  C   C259      1.0  0.25482  0.79602  0.51553  1.0000
  C   C260      1.0  0.19347  0.72332  0.74529  1.0000
  C   C261      1.0  0.20678  0.71859  0.77348  1.0000
  H   H255      1.0  0.33602  0.81804  0.95828  1.0000
  C   C262      1.0  0.24441  0.73256  0.99342  1.0000
  N   N20       1.0  0.20183  0.71054  0.72273  1.0000
  H   H256      1.0  0.24053  0.69726  0.80004  1.0000
  H   H257      1.0  0.20920  0.70999  0.67690  1.0000
  Fe  Fe47      1.0  0.49326  0.95612  0.90918  1.0000
  C   C263      1.0  0.23658  0.68757  0.75539  1.0000
  C   C264      1.0  0.20946  0.74937  0.51286  1.0000
  C   C265      1.0  0.25565  0.87276  0.93094  1.0000
  H   H258      1.0  0.15714  0.70830  0.68929  1.0000
  H   H259      1.0  0.13773  0.76130  0.94061  1.0000
  H   H260      1.0  0.27575  0.85719  0.79538  1.0000
  C   C266      1.0  0.14124  0.77293  0.95786  1.0000
  S   S97       1.0  0.46883  0.97945  0.94209  1.0000
  H   H261      1.0  0.20125  0.72907  0.79120  1.0000
  H   H262      1.0  0.39488  0.70979  0.58042  1.0000
  H   H263      1.0  0.24188  0.87960  0.95062  1.0000
  N   N21       1.0  0.29529  0.86340  0.93820  1.0000
  C   C267      1.0  0.32992  0.87512  0.93876  1.0000
  C   C268      1.0  0.29722  0.84321  0.94548  1.0000
  C   C269      1.0  0.36795  0.86655  0.94606  1.0000
  C   C270      1.0  0.33472  0.83413  0.95286  1.0000
  C   C271      1.0  0.37030  0.84590  0.95304  1.0000
  C   C272      1.0  0.29352  0.78764  0.52077  1.0000
  H   H264      1.0  0.32855  0.89109  0.93275  1.0000
  H   H265      1.0  0.26977  0.83391  0.94539  1.0000
  H   H266      1.0  0.39558  0.87577  0.94538  1.0000
  C   C273      1.0  0.22895  0.70074  0.77843  1.0000
  H   H267      1.0  0.39971  0.83903  0.95832  1.0000
  H   H268      1.0  0.37648  0.69025  0.55642  1.0000
  N   N22       1.0  0.14934  0.76368  0.98638  1.0000
  H   H269      1.0  0.23401  0.86140  0.92179  1.0000
  N   N23       1.0  0.31231  0.83042  0.80112  1.0000
  C   C274      1.0  0.34784  0.84111  0.80510  1.0000
  C   C275      1.0  0.31134  0.80993  0.80627  1.0000
  C   C276      1.0  0.38336  0.83134  0.81521  1.0000
  C   C277      1.0  0.34628  0.79965  0.81631  1.0000
  C   C278      1.0  0.38245  0.81048  0.82092  1.0000
  C   C279      1.0  0.27553  0.84074  0.78994  1.0000
  H   H270      1.0  0.34862  0.85740  0.80123  1.0000
  H   H271      1.0  0.28335  0.80140  0.80293  1.0000
  H   H272      1.0  0.41112  0.84001  0.81913  1.0000
  H   H273      1.0  0.34504  0.78340  0.82062  1.0000
  H   H274      1.0  0.40964  0.80272  0.82901  1.0000
  H   H275      1.0  0.24742  0.83437  0.80013  1.0000
  H   H276      1.0  0.40679  0.66544  0.59099  1.0000
  H   H277      1.0  0.49625  0.66725  0.66651  1.0000
  C   C280      1.0  0.40298  0.70027  0.56145  1.0000
  H   H278      1.0  0.25372  0.67361  0.75892  1.0000
  H   H279      1.0  0.11265  0.78216  0.95846  1.0000
  H   H280      1.0  0.16719  0.78284  0.95127  1.0000
  H   H281      1.0  0.12518  0.73474  0.97464  1.0000
  H   H282      1.0  0.00703  0.79519  0.81116  1.0000
  C   C281      1.0  0.47769  0.69564  0.56033  1.0000
  C   C282      1.0  0.48810  0.98817  0.97622  1.0000
  C   C283      1.0  0.49986  0.68139  0.65466  1.0000
  H   H283      1.0  0.17571  0.79074  0.00347  1.0000
  H   H284      1.0  0.45829  0.99066  0.79768  1.0000
  C   C284      1.0  0.16667  0.77516  0.00783  1.0000
  C   C285      1.0  0.00882  0.78351  0.89001  1.0000
  C   C286      1.0  0.47158  0.65948  0.59124  1.0000
  Fe  Fe48      1.0  0.84565  0.20670  0.12018  1.0000
  S   S98       1.0  0.80562  0.23219  0.13660  1.0000
  S   S99       1.0  0.91129  0.21878  0.11655  1.0000
  Fe  Fe49      1.0  0.77041  0.17820  0.11482  1.0000
  S   S100      1.0  0.72687  0.20190  0.13102  1.0000
  S   S101      1.0  0.74458  0.14839  0.09745  1.0000
  Fe  Fe50      1.0  0.76142  0.22313  0.10143  1.0000
  S   S102      1.0  0.72760  0.24632  0.07334  1.0000
  Fe  Fe51      1.0  0.77544  0.20865  0.16448  1.0000
  S   S103      1.0  0.76292  0.20999  0.21309  1.0000
  S   S104      1.0  0.80277  0.19926  0.08324  1.0000
  S   S105      1.0  0.81753  0.18337  0.15013  1.0000
  Fe  Fe52      1.0  0.72977  0.28893  0.34224  1.0000
  S   S106      1.0  0.68448  0.31400  0.35109  1.0000
  S   S107      1.0  0.75300  0.28752  0.29557  1.0000
  Fe  Fe53      1.0  0.73774  0.27893  0.40771  1.0000
  H   H285      1.0  0.68829  0.19232  0.02558  1.0000
  S   S108      1.0  0.76678  0.25508  0.43740  1.0000
  Fe  Fe54      1.0  0.65489  0.29295  0.38345  1.0000
  S   S109      1.0  0.58844  0.28166  0.38647  1.0000
  H   H286      1.0  0.69416  0.27438  0.03133  1.0000
  S   S110      1.0  0.69738  0.26709  0.37185  1.0000
  S   S111      1.0  0.77420  0.29860  0.37697  1.0000
  H   H287      1.0  0.60499  0.00096  0.28103  1.0000
  S   S112      1.0  0.55095  0.04388  0.13500  1.0000
  C   C287      1.0  0.65054  0.16696  0.07116  1.0000
  H   H288      1.0  0.94685  0.15763  0.19368  1.0000
  Fe  Fe55      1.0  0.54505  0.07787  0.12959  1.0000
  S   S113      1.0  0.58938  0.10106  0.14908  1.0000
  C   C288      1.0  0.82320  0.27199  0.02587  1.0000
  N   N24       1.0  0.64237  0.25806  0.46858  1.0000
  C   C289      1.0  0.60098  0.17910  0.10583  1.0000
  H   H289      1.0  0.59706  0.27725  0.48737  1.0000
  C   C290      1.0  0.93273  0.17253  0.19542  1.0000
  C   C291      1.0  0.69992  0.18986  0.04803  1.0000
  C   C292      1.0  0.56664  0.02714  0.27302  1.0000
  C   C293      1.0  0.53939  0.29344  0.38947  1.0000
  C   C294      1.0  0.53442  0.31443  0.39272  1.0000
  S   S114      1.0  0.69415  0.30376  0.42080  1.0000
  H   H290      1.0  0.98295  0.18816  0.17458  1.0000
  C   C295      1.0  0.95302  0.18964  0.18473  1.0000
  C   C296      1.0  0.70197  0.13512  0.11244  1.0000
  C   C297      1.0  0.68373  0.14102  0.13855  1.0000
  C   C298      1.0  0.64942  0.13037  0.14937  1.0000
  C   C299      1.0  0.63246  0.11392  0.13407  1.0000
  C   C300      1.0  0.65036  0.10819  0.10776  1.0000
  C   C301      1.0  0.68511  0.11864  0.09716  1.0000
  H   H291      1.0  0.69624  0.15367  0.15055  1.0000
  H   H292      1.0  0.63594  0.13492  0.16977  1.0000
  H   H293      1.0  0.63787  0.09550  0.09582  1.0000
  H   H294      1.0  0.69899  0.11391  0.07697  1.0000
  C   C302      1.0  0.96054  0.20703  0.11474  1.0000
  C   C303      1.0  0.54438  0.29314  0.31641  1.0000
  C   C304      1.0  0.96572  0.18609  0.11099  1.0000
  Fe  Fe56      1.0  0.72795  0.32271  0.38718  1.0000
  H   H295      1.0  0.93913  0.17642  0.10878  1.0000
  C   C305      1.0  0.76656  0.25479  0.47594  1.0000
  H   H296      1.0  0.64122  0.25660  0.42227  1.0000
  H   H297      1.0  0.55821  0.30539  0.32976  1.0000
  C   C306      1.0  0.73320  0.24796  0.03508  1.0000
  H   H298      1.0  0.79573  0.22538  0.47824  1.0000
  H   H299      1.0  0.53238  0.00240  0.19416  1.0000
  C   C307      1.0  0.55717  0.04289  0.25352  1.0000
  C   C308      1.0  0.61807  0.16310  0.09021  1.0000
  H   H300      1.0  0.53775  0.05915  0.19894  1.0000
  H   H301      1.0  0.73752  0.28393  0.48116  1.0000
  C   C309      1.0  0.75437  0.26582  0.27283  1.0000
  C   C310      1.0  0.74572  0.24632  0.28335  1.0000
  C   C311      1.0  0.74827  0.22944  0.26470  1.0000
  C   C312      1.0  0.75906  0.23187  0.23531  1.0000
  C   C313      1.0  0.76742  0.25140  0.22471  1.0000
  C   C314      1.0  0.76527  0.26825  0.24345  1.0000
  H   H302      1.0  0.73742  0.24420  0.30590  1.0000
  H   H303      1.0  0.74179  0.21440  0.27311  1.0000
  H   H304      1.0  0.77554  0.25354  0.20214  1.0000
  H   H305      1.0  0.77192  0.28329  0.23509  1.0000
  C   C315      1.0  0.87733  0.24196  0.04445  1.0000
  H   H306      1.0  0.94954  0.22182  0.17730  1.0000
  C   C316      1.0  0.87621  0.23068  0.19930  1.0000
  C   C317      1.0  0.87610  0.19400  0.20956  1.0000
  H   H307      1.0  0.84593  0.19553  0.21928  1.0000
  S   S115      1.0  0.54291  0.02023  0.05675  1.0000
  N   N25       1.0  0.57935  0.04544  0.22858  1.0000
  H   H308      1.0  0.85492  0.24782  0.08751  1.0000
  C   C318      1.0  0.61050  0.03227  0.22198  1.0000
  H   H309      1.0  0.68212  0.22502  0.42012  1.0000
  C   C319      1.0  0.62065  0.01627  0.24093  1.0000
  C   C320      1.0  0.75796  0.23432  0.01982  1.0000
  C   C321      1.0  0.59863  0.01378  0.26665  1.0000
  H   H310      1.0  0.62733  0.03390  0.20180  1.0000
  H   H311      1.0  0.88250  0.23945  0.17905  1.0000
  H   H312      1.0  0.70656  0.20864  0.46584  1.0000
  H   H313      1.0  0.60704  0.14769  0.09342  1.0000
  H   H314      1.0  0.84229  0.22943  0.20116  1.0000
  H   H315      1.0  0.88787  0.23919  0.21834  1.0000
  H   H316      1.0  0.60292  0.21137  0.11383  1.0000
  C   C322      1.0  0.61585  0.19879  0.10176  1.0000
  N   N26       1.0  0.66566  0.18621  0.06790  1.0000
  N   N27       1.0  0.89565  0.21058  0.19811  1.0000
  H   H317      1.0  0.54821  0.02468  0.29233  1.0000
  H   H318      1.0  0.77391  0.22228  0.03125  1.0000
  C   C323      1.0  0.65608  0.24926  0.49384  1.0000
  H   H319      1.0  0.87792  0.16151  0.21642  1.0000
  C   C324      1.0  0.64812  0.20213  0.08233  1.0000
  C   C325      1.0  0.56844  0.06203  0.20855  1.0000
  C   C326      1.0  0.78265  0.23771  0.49061  1.0000
  H   H320      1.0  0.66449  0.15435  0.05971  1.0000
  C   C327      1.0  0.62019  0.27745  0.46970  1.0000
  H   H321      1.0  0.80519  0.27423  0.07091  1.0000
  C   C328      1.0  0.74982  0.27068  0.49217  1.0000
  H   H322      1.0  0.82116  0.30991  0.32141  1.0000
  H   H323      1.0  0.59081  0.06367  0.19047  1.0000
  H   H324      1.0  0.89478  0.30981  0.33452  1.0000
  H   H325      1.0  0.65974  0.21747  0.07941  1.0000
  H   H326      1.0  0.64222  0.29003  0.47349  1.0000
  C   C329      1.0  0.65116  0.24941  0.44236  1.0000
  C   C330      1.0  0.85282  0.25190  0.06469  1.0000
  H   H327      1.0  0.99209  0.23552  0.12051  1.0000
  C   C331      1.0  0.68760  0.22220  0.46666  1.0000
  C   C332      1.0  0.87414  0.24730  0.01503  1.0000
  C   C333      1.0  0.87885  0.32412  0.33102  1.0000
  H   H328      1.0  0.57647  0.17616  0.12119  1.0000
  H   H329      1.0  0.55506  0.27854  0.32622  1.0000
  C   C334      1.0  0.93397  0.20867  0.18636  1.0000
  Fe  Fe57      1.0  0.51781  0.04194  0.09152  1.0000
  C   C335      1.0  0.89413  0.17470  0.20812  1.0000
  C   C336      1.0  0.82543  0.26693  0.05542  1.0000
  H   H330      1.0  0.60339  0.28065  0.44907  1.0000
  C   C337      1.0  0.71335  0.26373  0.01974  1.0000
  H   H331      1.0  0.55022  0.05922  0.02213  1.0000
  H   H332      1.0  0.71764  0.20344  0.05469  1.0000
  H   H333      1.0  0.89848  0.23014  0.05165  1.0000
  H   H334      1.0  0.56770  0.07679  0.22012  1.0000
  C   C338      1.0  0.67386  0.23137  0.44100  1.0000
  H   H335      1.0  0.72177  0.17682  0.04834  1.0000
  C   C339      1.0  0.54345  0.99303  0.01130  1.0000
  C   C340      1.0  0.67853  0.23112  0.49331  1.0000
  C   C341      1.0  0.99562  0.21930  0.11757  1.0000
  H   H336      1.0  0.53127  0.05275  0.25806  1.0000
  S   S116      1.0  0.51668  0.07605  0.08497  1.0000
  H   H337      1.0  0.64473  0.00557  0.23541  1.0000
  C   C342      1.0  0.51949  0.00677  0.02745  1.0000
  H   H338      1.0  0.80111  0.28337  0.01880  1.0000
  H   H339      1.0  0.56114  0.32410  0.39410  1.0000
  C   C343      1.0  0.51785  0.00056  0.21510  1.0000
  H   H340      1.0  0.50759  0.26490  0.38514  1.0000
  H   H341      1.0  0.55624  0.29440  0.29389  1.0000
  C   C344      1.0  0.83709  0.32428  0.32386  1.0000
  Fe  Fe58      1.0  0.84561  0.19400  0.62813  1.0000
  S   S117      1.0  0.82159  0.22451  0.64237  1.0000
  S   S118      1.0  0.91104  0.18260  0.63719  1.0000
  Fe  Fe59      1.0  0.75889  0.17843  0.61168  1.0000
  S   S119      1.0  0.72977  0.20779  0.62501  1.0000
  S   S120      1.0  0.71764  0.15522  0.58914  1.0000
  Fe  Fe60      1.0  0.78196  0.22303  0.60193  1.0000
  S   S121      1.0  0.76369  0.25127  0.57597  1.0000
  Fe  Fe61      1.0  0.77129  0.20679  0.66401  1.0000
  S   S122      1.0  0.74285  0.21092  0.70866  1.0000
  S   S123      1.0  0.80949  0.19372  0.58607  1.0000
  S   S124      1.0  0.79704  0.17616  0.65226  1.0000
  Fe  Fe62      1.0  0.72838  0.28812  0.83972  1.0000
  H   H342      1.0  0.68158  0.04721  0.62454  1.0000
  S   S125      1.0  0.76002  0.28523  0.79571  1.0000
  Fe  Fe63      1.0  0.72471  0.27822  0.90535  1.0000
  S   S126      1.0  0.68036  0.30372  0.91461  1.0000
  S   S127      1.0  0.75435  0.25555  0.93685  1.0000
  Fe  Fe64      1.0  0.64738  0.29349  0.87385  1.0000
  C   C345      1.0  0.60103  0.01463  0.55943  1.0000
  H   H343      1.0  0.77946  0.12359  0.60678  1.0000
  S   S128      1.0  0.68994  0.26681  0.86632  1.0000
  S   S129      1.0  0.76704  0.29739  0.87794  1.0000
  C   C346      1.0  0.74932  0.26944  0.52279  1.0000
  S   S130      1.0  0.54308  0.03298  0.63400  1.0000
  H   H344      1.0  0.73669  0.28187  0.53520  1.0000
  H   H345      1.0  0.83875  0.12506  0.64088  1.0000
  Fe  Fe65      1.0  0.55691  0.06653  0.62976  1.0000
  S   S131      1.0  0.62051  0.07900  0.64081  1.0000
  N   N28       1.0  0.84732  0.26214  0.00611  1.0000
  H   H346      1.0  0.62506  0.00174  0.59887  1.0000
  H   H347      1.0  0.92983  0.15149  0.55086  1.0000
  H   H348      1.0  0.59017  0.03769  0.99393  1.0000
  H   H349      1.0  0.75220  0.25218  0.65621  1.0000
  H   H350      1.0  0.64723  0.06497  0.58650  1.0000
  C   C347      1.0  0.00295  0.21179  0.59342  1.0000
  C   C348      1.0  0.53142  0.29393  0.87775  1.0000
  C   C349      1.0  0.52006  0.99928  0.72641  1.0000
  H   H351      1.0  0.90411  0.14023  0.62463  1.0000
  H   H352      1.0  0.89309  0.23942  0.99936  1.0000
  C   C350      1.0  0.99528  0.18129  0.63527  1.0000
  C   C351      1.0  0.68809  0.13549  0.60536  1.0000
  C   C352      1.0  0.65604  0.12664  0.58927  1.0000
  C   C353      1.0  0.63365  0.11000  0.60042  1.0000
  C   C354      1.0  0.64389  0.10163  0.62752  1.0000
  C   C355      1.0  0.67597  0.11046  0.64359  1.0000
  C   C356      1.0  0.69752  0.12749  0.63283  1.0000
  H   H353      1.0  0.64851  0.13268  0.56799  1.0000
  H   H354      1.0  0.60913  0.10340  0.58776  1.0000
  H   H355      1.0  0.68419  0.10409  0.66456  1.0000
  H   H356      1.0  0.72200  0.13411  0.64553  1.0000
  C   C357      1.0  0.95965  0.19084  0.62437  1.0000
  C   C358      1.0  0.52631  0.31252  0.89190  1.0000
  C   C359      1.0  0.96368  0.20615  0.60340  1.0000
  C   C360      1.0  0.52361  0.05988  0.00695  1.0000
  H   H357      1.0  0.93659  0.21359  0.59472  1.0000
  C   C361      1.0  0.74355  0.25245  0.97431  1.0000
  C   C362      1.0  0.84521  0.26761  0.97519  1.0000
  C   C363      1.0  0.67366  0.24364  0.68440  1.0000
  C   C364      1.0  0.76524  0.25229  0.53744  1.0000
  S   S132      1.0  0.57986  0.28536  0.86482  1.0000
  H   H358      1.0  0.55288  0.32173  0.89679  1.0000
  H   H359      1.0  0.78228  0.22595  0.97803  1.0000
  H   H360      1.0  0.53735  0.00153  0.70665  1.0000
  C   C365      1.0  0.71859  0.26603  0.98949  1.0000
  H   H361      1.0  0.70362  0.27840  0.97798  1.0000
  C   C366      1.0  0.75774  0.26362  0.77298  1.0000
  C   C367      1.0  0.73335  0.24684  0.77983  1.0000
  C   C368      1.0  0.73027  0.23053  0.76026  1.0000
  C   C369      1.0  0.75137  0.23085  0.73366  1.0000
  C   C370      1.0  0.77654  0.24743  0.72708  1.0000
  C   C371      1.0  0.77963  0.26375  0.74667  1.0000
  H   H362      1.0  0.71650  0.24650  0.80005  1.0000
  H   H363      1.0  0.71090  0.21771  0.76559  1.0000
  H   H364      1.0  0.79320  0.24778  0.70681  1.0000
  H   H365      1.0  0.79877  0.27664  0.74128  1.0000
  N   N29       1.0  0.88222  0.14705  0.58186  1.0000
  C   C372      1.0  0.84960  0.14651  0.56311  1.0000
  C   C373      1.0  0.87870  0.13928  0.60941  1.0000
  C   C374      1.0  0.81242  0.13779  0.57166  1.0000
  C   C375      1.0  0.84182  0.13064  0.61877  1.0000
  C   C376      1.0  0.80857  0.12986  0.59969  1.0000
  C   C377      1.0  0.92026  0.15697  0.57257  1.0000
  H   H366      1.0  0.84033  0.25379  0.96180  1.0000
  C   C378      1.0  0.62263  0.01541  0.58568  1.0000
  H   H367      1.0  0.83223  0.30594  0.82380  1.0000
  H   H368      1.0  0.70680  0.25307  0.63378  1.0000
  H   H369      1.0  0.68489  0.28612  0.74122  1.0000
  H   H370      1.0  0.73017  0.27622  0.64518  1.0000
  H   H371      1.0  0.79426  0.22316  0.53212  1.0000
  C   C379      1.0  0.72297  0.26045  0.65221  1.0000
  H   H372      1.0  0.72273  0.28783  0.69477  1.0000
  H   H373      1.0  0.81896  0.27795  0.97030  1.0000
  C   C380      1.0  0.70184  0.27531  0.69860  1.0000
  N   N30       1.0  0.69803  0.26007  0.67867  1.0000
  S   S133      1.0  0.51880  0.07070  0.58929  1.0000
  C   C381      1.0  0.66118  0.03373  0.62291  1.0000
  C   C382      1.0  0.68040  0.27448  0.72489  1.0000
  H   H374      1.0  0.67256  0.23096  0.66945  1.0000
  C   C383      1.0  0.63461  0.05071  0.57894  1.0000
  C   C384      1.0  0.65185  0.24229  0.71048  1.0000
  C   C385      1.0  0.65529  0.25784  0.73081  1.0000
  H   H375      1.0  0.87394  0.27523  0.96832  1.0000
  H   H376      1.0  0.63416  0.22877  0.71546  1.0000
  N   N31       1.0  0.52946  0.04665  0.98176  1.0000
  H   H377      1.0  0.99250  0.16935  0.65141  1.0000
  N   N32       1.0  0.63961  0.03324  0.59492  1.0000
  H   H378      1.0  0.68040  0.01993  0.62607  1.0000
  C   C386      1.0  0.76287  0.23651  0.98960  1.0000
  C   C387      1.0  0.53901  0.02094  0.93450  1.0000
  H   H379      1.0  0.91551  0.17371  0.57165  1.0000
  H   H380      1.0  0.85192  0.15323  0.54161  1.0000
  S   S134      1.0  0.68418  0.31412  0.84462  1.0000
  H   H381      1.0  0.63847  0.03473  0.64084  1.0000
  H   H382      1.0  0.94594  0.15396  0.58801  1.0000
  H   H383      1.0  0.64005  0.25656  0.75168  1.0000
  C   C388      1.0  0.61245  0.05055  0.55287  1.0000
  H   H384      1.0  0.58695  0.00055  0.55238  1.0000
  H   H385      1.0  0.78621  0.13777  0.55703  1.0000
  C   C389      1.0  0.78178  0.23639  0.52117  1.0000
  C   C390      1.0  0.83331  0.32245  0.82409  1.0000
  C   C391      1.0  0.59567  0.03236  0.54307  1.0000
  H   H386      1.0  0.60770  0.06453  0.54066  1.0000
  C   C392      1.0  0.57113  0.02356  0.95423  1.0000
  H   H387      1.0  0.54184  0.01013  0.91688  1.0000
  H   H388      1.0  0.59927  0.01490  0.95190  1.0000
  Fe  Fe66      1.0  0.72101  0.32220  0.88445  1.0000
  C   C393      1.0  0.56576  0.03650  0.97795  1.0000
  H   H389      1.0  0.98080  0.22226  0.67223  1.0000
  H   H390      1.0  0.51286  0.31965  0.82303  1.0000
  H   H391      1.0  0.57768  0.03202  0.52319  1.0000
  H   H392      1.0  0.51912  0.07587  0.99980  1.0000
  H   H393      1.0  0.65060  0.25652  0.51457  1.0000
  S   S135      1.0  0.50624  0.07487  0.66010  1.0000
  H   H394      1.0  0.89860  0.32400  0.83127  1.0000
  H   H395      1.0  0.69037  0.22450  0.51333  1.0000
  H   H396      1.0  0.76842  0.32574  0.81784  1.0000
  S   S136      1.0  0.94273  0.44875  0.38100  1.0000
  N   N33       1.0  0.87784  0.40999  0.45937  1.0000
  H   H397      1.0  0.89931  0.37946  0.45993  1.0000
  Fe  Fe67      1.0  0.96514  0.41705  0.39084  1.0000
  S   S137      1.0  0.93138  0.38722  0.40002  1.0000
  C   C394      1.0  0.85234  0.44170  0.44018  1.0000
  S   S138      1.0  0.99148  0.57050  0.09294  1.0000
  S   S139      1.0  0.95744  0.53547  0.13834  1.0000
  H   H398      1.0  0.92530  0.53704  0.21349  1.0000
  C   C395      1.0  0.87185  0.38842  0.46640  1.0000
  Fe  Fe68      1.0  0.94459  0.56873  0.12868  1.0000
  S   S140      1.0  0.87867  0.57977  0.12150  1.0000
  S   S141      1.0  0.74672  0.35613  0.38884  1.0000
  C   C396      1.0  0.89967  0.34252  0.33387  1.0000
  C   C397      1.0  0.85859  0.60443  0.12899  1.0000
  C   C398      1.0  0.88096  0.61886  0.14458  1.0000
  C   C399      1.0  0.86283  0.63766  0.15187  1.0000
  C   C400      1.0  0.82243  0.64249  0.14322  1.0000
  C   C401      1.0  0.80029  0.62818  0.12724  1.0000
  C   C402      1.0  0.81818  0.60921  0.12041  1.0000
  H   H399      1.0  0.91207  0.61545  0.15131  1.0000
  S   S142      1.0  0.98743  0.57987  0.16323  1.0000
  H   H400      1.0  0.83453  0.57650  0.17713  1.0000
  H   H401      1.0  0.80051  0.59818  0.10838  1.0000
  C   C403      1.0  0.87996  0.37903  0.39555  1.0000
  C   C404      1.0  0.87057  0.35860  0.40174  1.0000
  C   C405      1.0  0.83012  0.35132  0.39932  1.0000
  C   C406      1.0  0.79833  0.36451  0.39121  1.0000
  C   C407      1.0  0.80764  0.38498  0.38512  1.0000
  C   C408      1.0  0.84833  0.39218  0.38692  1.0000
  H   H402      1.0  0.89479  0.34830  0.40850  1.0000
  C   C409      1.0  0.84718  0.42097  0.44619  1.0000
  H   H403      1.0  0.78322  0.39530  0.37879  1.0000
  H   H404      1.0  0.85514  0.40792  0.38198  1.0000
  H   H405      1.0  0.88031  0.64859  0.16421  1.0000
  C   C410      1.0  0.91116  0.55195  0.21165  1.0000
  C   C411      1.0  0.83682  0.36037  0.32252  1.0000
  C   C412      1.0  0.91054  0.58737  0.22499  1.0000
  C   C413      1.0  0.97234  0.51178  0.49029  1.0000
  C   C414      1.0  0.88878  0.45124  0.44827  1.0000
  H   H406      1.0  0.76916  0.63158  0.12053  1.0000
  H   H407      1.0  0.75640  0.35496  0.32394  1.0000
  H   H408      1.0  0.96049  0.52617  0.03273  1.0000
  H   H409      1.0  0.85823  0.54287  0.15352  1.0000
  H   H410      1.0  0.92377  0.60003  0.23670  1.0000
  H   H411      1.0  0.93187  0.34270  0.33999  1.0000
  C   C415      1.0  0.86048  0.57396  0.19157  1.0000
  H   H412      1.0  0.93823  0.41049  0.47736  1.0000
  H   H413      1.0  0.82046  0.37464  0.31973  1.0000
  H   H414      1.0  0.89343  0.46730  0.44371  1.0000
  C   C416      1.0  0.77270  0.34225  0.31304  1.0000
  H   H415      1.0  0.96462  0.46724  0.23896  1.0000
  H   H416      1.0  0.84526  0.38192  0.45446  1.0000
  H   H417      1.0  0.95086  0.45469  0.01354  1.0000
  S   S143      1.0  0.97529  0.48594  0.44323  1.0000
  C   C417      1.0  0.87872  0.36077  0.32922  1.0000
  H   H418      1.0  0.95455  0.56547  0.24127  1.0000
  N   N34       1.0  0.87821  0.55513  0.19367  1.0000
  H   H419      1.0  0.75780  0.32803  0.32063  1.0000
  C   C418      1.0  0.87650  0.59038  0.20700  1.0000
  H   H420      1.0  0.89457  0.37516  0.33177  1.0000
  H   H421      1.0  0.95956  0.52262  0.47494  1.0000
  H   H422      1.0  0.76852  0.34339  0.28915  1.0000
  C   C419      1.0  0.92782  0.56801  0.22755  1.0000
  C   C420      1.0  0.86104  0.53833  0.17679  1.0000
  H   H423      1.0  0.86303  0.60540  0.20446  1.0000
  C   C421      1.0  0.97701  0.51375  0.02278  1.0000
  H   H424      1.0  0.83023  0.53427  0.18518  1.0000
  H   H425      1.0  0.81871  0.41368  0.43991  1.0000
  C   C422      1.0  0.91374  0.41921  0.46720  1.0000
  N   N35       1.0  0.81646  0.34228  0.32038  1.0000
  H   H426      1.0  0.88097  0.52460  0.17767  1.0000
  H   H427      1.0  0.82344  0.33557  0.40424  1.0000
  H   H428      1.0  0.82835  0.45031  0.42926  1.0000
  C   C423      1.0  0.98360  0.49228  0.48055  1.0000
  H   H429      1.0  0.97742  0.49701  0.20665  1.0000
  Fe  Fe69      1.0  0.99124  0.45924  0.41303  1.0000
  H   H430      1.0  0.86662  0.38648  0.49006  1.0000
  C   C424      1.0  0.98610  0.49760  0.22933  1.0000
  C   C425      1.0  0.91960  0.43997  0.46198  1.0000
  C   C426      1.0  0.97894  0.48068  0.24775  1.0000
  C   C427      1.0  0.99014  0.48097  0.27737  1.0000
  Fe  Fe70      1.0  0.99293  0.45016  0.34721  1.0000
  C   C428      1.0  0.99994  0.47845  0.50077  1.0000
  H   H431      1.0  0.94807  0.44728  0.46819  1.0000
  S   S144      1.0  0.98061  0.45896  0.29939  1.0000
  C   C429      1.0  0.00468  0.51513  0.24027  1.0000
  Fe  Fe71      1.0  0.00424  0.54677  0.17052  1.0000
  S   S145      1.0  0.93968  0.44849  0.88146  1.0000
  N   N36       1.0  0.94052  0.60060  0.71035  1.0000
  Fe  Fe72      1.0  0.98943  0.45033  0.84735  1.0000
  Fe  Fe73      1.0  0.96084  0.41639  0.88984  1.0000
  S   S146      1.0  0.92641  0.38634  0.89664  1.0000
  H   H432      1.0  0.96002  0.46956  0.74001  1.0000
  C   C430      1.0  0.92269  0.56598  0.72141  1.0000
  S   S147      1.0  0.95611  0.54588  0.64226  1.0000
  H   H433      1.0  0.74246  0.64372  0.57762  1.0000
  H   H434      1.0  0.85920  0.55805  0.71519  1.0000
  Fe  Fe74      1.0  0.97018  0.57873  0.63103  1.0000
  S   S148      1.0  0.93420  0.60875  0.62981  1.0000
  S   S149      1.0  0.74087  0.35537  0.88926  1.0000
  S   S150      1.0  0.75182  0.64322  0.64193  1.0000
  C   C431      1.0  0.88313  0.61756  0.63429  1.0000
  C   C432      1.0  0.87652  0.63863  0.63657  1.0000
  C   C433      1.0  0.83662  0.64667  0.63914  1.0000
  C   C434      1.0  0.80276  0.63369  0.63986  1.0000
  C   C435      1.0  0.80939  0.61256  0.63828  1.0000
  C   C436      1.0  0.84937  0.60451  0.63535  1.0000
  H   H435      1.0  0.75583  0.37042  0.79439  1.0000
  C   C437      1.0  0.97130  0.61668  0.70722  1.0000
  H   H436      1.0  0.78337  0.60238  0.63892  1.0000
  H   H437      1.0  0.85400  0.58826  0.63368  1.0000
  C   C438      1.0  0.87434  0.37842  0.89513  1.0000
  C   C439      1.0  0.86556  0.35765  0.89902  1.0000
  C   C440      1.0  0.82497  0.35037  0.89735  1.0000
  C   C441      1.0  0.79245  0.36388  0.89239  1.0000
  C   C442      1.0  0.80112  0.38473  0.88911  1.0000
  C   C443      1.0  0.84186  0.39197  0.89016  1.0000
  H   H438      1.0  0.89041  0.34704  0.90295  1.0000
  H   H439      1.0  0.98345  0.57812  0.72496  1.0000
  H   H440      1.0  0.77616  0.39533  0.88543  1.0000
  H   H441      1.0  0.84805  0.40799  0.88710  1.0000
  S   S151      1.0  0.97120  0.48324  0.94560  1.0000
  C   C444      1.0  0.88004  0.64305  0.56711  1.0000
  H   H442      1.0  0.90244  0.64887  0.63591  1.0000
  C   C445      1.0  0.89917  0.42166  0.95503  1.0000
  H   H443      1.0  0.94100  0.51453  0.98326  1.0000
  C   C446      1.0  0.97726  0.51744  0.51970  1.0000
  H   H444      1.0  0.94728  0.38482  0.99182  1.0000
  C   C447      1.0  0.97562  0.48258  0.74902  1.0000
  C   C448      1.0  0.99309  0.50352  0.53998  1.0000
  C   C449      1.0  0.83435  0.36458  0.82470  1.0000
  C   C450      1.0  0.79717  0.33373  0.82072  1.0000
  H   H445      1.0  0.86675  0.44899  0.94213  1.0000
  H   H446      1.0  0.75734  0.63052  0.54491  1.0000
  Fe  Fe75      1.0  0.98910  0.45791  0.91358  1.0000
  H   H447      1.0  0.90815  0.63415  0.56819  1.0000
  H   H448      1.0  0.73278  0.35707  0.82476  1.0000
  H   H449      1.0  0.91333  0.38270  0.96127  1.0000
  H   H450      1.0  0.97586  0.49917  0.70812  1.0000
  H   H451      1.0  0.96954  0.41837  0.00838  1.0000
  H   H452      1.0  0.00188  0.61184  0.71555  1.0000
  H   H453      1.0  0.75996  0.37995  0.83124  1.0000
  H   H454      1.0  0.88537  0.41264  0.93800  1.0000
  H   H455      1.0  0.89967  0.36184  0.83202  1.0000
  H   H456      1.0  0.89176  0.61983  0.69581  1.0000
  H   H457      1.0  0.83912  0.59295  0.69902  1.0000
  H   H458      1.0  0.96170  0.63045  0.71929  1.0000
  H   H459      1.0  0.76801  0.61991  0.58071  1.0000
  C   C451      1.0  0.88192  0.57005  0.71406  1.0000
  C   C452      1.0  0.87045  0.33257  0.82809  1.0000
  C   C453      1.0  0.93895  0.39176  0.97055  1.0000
  H   H460      1.0  0.96550  0.39052  0.95555  1.0000
  C   C454      1.0  0.98694  0.48238  0.77862  1.0000
  H   H461      1.0  0.83499  0.38105  0.82545  1.0000
  C   C455      1.0  0.84186  0.63336  0.56752  1.0000
  H   H462      1.0  0.93197  0.55081  0.72829  1.0000
  C   C456      1.0  0.98712  0.49102  0.98107  1.0000
  C   C457      1.0  0.95176  0.58153  0.71946  1.0000
  Fe  Fe76      1.0  0.00170  0.53813  0.60649  1.0000
  C   C458      1.0  0.90633  0.45397  0.97893  1.0000
  C   C459      1.0  0.90055  0.60477  0.70334  1.0000
  H   H463      1.0  0.96824  0.53246  0.52669  1.0000
  N   N37       1.0  0.79794  0.35451  0.82146  1.0000
  C   C460      1.0  0.96603  0.50710  0.99465  1.0000
  H   H464      1.0  0.84089  0.61690  0.56865  1.0000
  S   S152      1.0  0.97796  0.45989  0.79969  1.0000
  C   C461      1.0  0.87066  0.58959  0.70507  1.0000
  C   C462      1.0  0.75980  0.36609  0.81755  1.0000
  C   C463      1.0  0.88831  0.44217  0.95735  1.0000
  N   N38       1.0  0.92720  0.41317  0.97373  1.0000
  N   N39       1.0  0.80633  0.64450  0.56756  1.0000
  C   C464      1.0  0.87110  0.35378  0.82827  1.0000
  H   H465      1.0  0.81885  0.33433  0.90003  1.0000
  C   C465      1.0  0.98460  0.49937  0.73081  1.0000
  C   C466      1.0  0.76660  0.63411  0.56751  1.0000
  H   H466      1.0  0.97486  0.62070  0.68383  1.0000
  H   H467      1.0  0.89902  0.47005  0.98050  1.0000
  C   C467      1.0  0.94601  0.42483  0.99436  1.0000
  H   H468      1.0  0.53771  0.65866  0.59015  1.0000
  C   C468      1.0  0.93559  0.44534  0.99745  1.0000
  S   S153      1.0  0.00039  0.50961  0.57750  1.0000
  C   C469      1.0  0.00423  0.48399  0.53026  1.0000
  Fe  Fe77      1.0  0.54233  0.91954  0.37690  1.0000
  S   S154      1.0  0.58122  0.89209  0.39170  1.0000
  H   H469      1.0  0.80305  0.72197  0.48973  1.0000
  H   H470      1.0  0.61077  0.66765  0.08156  1.0000
  S   S155      1.0  0.55967  0.95259  0.37123  1.0000
  C   C470      1.0  0.79076  0.70012  0.22095  1.0000
  Fe  Fe78      1.0  0.74347  0.68371  0.13923  1.0000
  S   S156      1.0  0.75694  0.71530  0.12259  1.0000
  Fe  Fe79      1.0  0.64951  0.69244  0.13856  1.0000
  S   S157      1.0  0.65789  0.72460  0.12326  1.0000
  S   S158      1.0  0.58669  0.67705  0.14164  1.0000
  Fe  Fe80      1.0  0.70373  0.71146  0.09203  1.0000
  S   S159      1.0  0.69488  0.71801  0.04366  1.0000
  Fe  Fe81      1.0  0.71033  0.72559  0.15538  1.0000
  S   S160      1.0  0.72887  0.75298  0.18238  1.0000
  S   S161      1.0  0.69355  0.67898  0.10607  1.0000
  S   S162      1.0  0.69864  0.69434  0.17332  1.0000
  Fe  Fe82      1.0  0.77262  0.82072  0.36186  1.0000
  S   S163      1.0  0.72901  0.79659  0.37622  1.0000
  S   S164      1.0  0.74784  0.85176  0.34773  1.0000
  Fe  Fe83      1.0  0.84831  0.79269  0.36942  1.0000
  S   S165      1.0  0.80826  0.76671  0.38471  1.0000
  S   S166      1.0  0.91568  0.78248  0.36655  1.0000
  Fe  Fe84      1.0  0.76616  0.77576  0.34800  1.0000
  S   S167      1.0  0.73342  0.75222  0.32045  1.0000
  Fe  Fe85      1.0  0.77505  0.78984  0.41148  1.0000
  S   S168      1.0  0.75006  0.78888  0.45765  1.0000
  S   S169      1.0  0.80737  0.80030  0.33105  1.0000
  S   S170      1.0  0.81737  0.81543  0.39876  1.0000
  C   C471      1.0  0.96491  0.79414  0.36448  1.0000
  C   C472      1.0  0.97036  0.81521  0.36555  1.0000
  H   H471      1.0  0.74046  0.89297  0.40868  1.0000
  H   H472      1.0  0.94387  0.82511  0.36671  1.0000
  H   H473      1.0  0.99610  0.76525  0.36199  1.0000
  C   C473      1.0  0.53736  0.68868  0.14360  1.0000
  C   C474      1.0  0.53238  0.70968  0.14676  1.0000
  S   S171      1.0  0.53885  0.96657  0.28838  1.0000
  H   H474      1.0  0.55912  0.71928  0.14872  1.0000
  C   C475      1.0  0.71341  0.82305  0.25042  1.0000
  C   C476      1.0  0.72666  0.73397  0.02219  1.0000
  C   C477      1.0  0.53282  0.98588  0.23508  1.0000
  H   H475      1.0  0.94083  0.78511  0.42856  1.0000
  C   C478      1.0  0.75600  0.76804  0.48204  1.0000
  C   C479      1.0  0.77983  0.75105  0.47508  1.0000
  H   H476      1.0  0.99209  0.80982  0.42988  1.0000
  H   H477      1.0  0.76278  0.74528  0.05774  1.0000
  C   C480      1.0  0.78439  0.73499  0.49528  1.0000
  H   H478      1.0  0.79492  0.75032  0.45421  1.0000
  C   C481      1.0  0.77801  0.69626  0.24945  1.0000
  C   C482      1.0  0.73085  0.75214  0.22071  1.0000
  C   C483      1.0  0.70857  0.73780  0.23665  1.0000
  C   C484      1.0  0.70937  0.73818  0.26721  1.0000
  C   C485      1.0  0.73290  0.75266  0.28208  1.0000
  C   C486      1.0  0.75549  0.76690  0.26615  1.0000
  C   C487      1.0  0.75430  0.76667  0.23557  1.0000
  H   H479      1.0  0.69020  0.72662  0.22544  1.0000
  H   H480      1.0  0.69182  0.72710  0.27939  1.0000
  H   H481      1.0  0.77375  0.77812  0.27734  1.0000
  H   H482      1.0  0.77157  0.77783  0.22336  1.0000
  C   C488      1.0  0.62423  0.88027  0.37498  1.0000
  C   C489      1.0  0.65196  0.89115  0.35775  1.0000
  C   C490      1.0  0.68902  0.88198  0.34876  1.0000
  C   C491      1.0  0.69882  0.86187  0.35686  1.0000
  C   C492      1.0  0.67032  0.85072  0.37308  1.0000
  C   C493      1.0  0.63333  0.85989  0.38207  1.0000
  H   H483      1.0  0.64552  0.90685  0.35220  1.0000
  H   H484      1.0  0.71069  0.89073  0.33610  1.0000
  H   H485      1.0  0.67725  0.83527  0.37949  1.0000
  H   H486      1.0  0.61210  0.85134  0.39537  1.0000
  H   H487      1.0  0.85906  0.72675  0.18355  1.0000
  C   C494      1.0  0.71334  0.82773  0.27994  1.0000
  H   H488      1.0  0.65630  0.78009  0.25304  1.0000
  N   N40       1.0  0.57230  0.69131  0.06602  1.0000
  H   H489      1.0  0.50554  0.66018  0.13903  1.0000
  H   H490      1.0  0.82491  0.73605  0.28231  1.0000
  H   H491      1.0  0.72981  0.83266  0.23515  1.0000
  C   C495      1.0  0.67712  0.82806  0.46171  1.0000
  C   C496      1.0  0.99987  0.78156  0.36293  1.0000
  H   H492      1.0  0.55904  0.97664  0.22930  1.0000
  C   C497      1.0  0.82775  0.72917  0.23644  1.0000
  C   C498      1.0  0.81595  0.72562  0.26524  1.0000
  C   C499      1.0  0.79081  0.70909  0.27172  1.0000
  H   H493      1.0  0.64596  0.83085  0.47055  1.0000
  N   N41       1.0  0.69477  0.84629  0.44825  1.0000
  C   C500      1.0  0.67258  0.86397  0.44640  1.0000
  C   C501      1.0  0.73341  0.84523  0.43685  1.0000
  H   H494      1.0  0.78025  0.70668  0.29383  1.0000
  C   C502      1.0  0.75064  0.86207  0.42280  1.0000
  C   C503      1.0  0.72817  0.88010  0.42064  1.0000
  N   N42       1.0  0.67266  0.79807  0.28975  1.0000
  H   H495      1.0  0.63417  0.68373  0.05442  1.0000
  H   H496      1.0  0.75072  0.83114  0.43810  1.0000
  C   C504      1.0  0.68898  0.88114  0.43266  1.0000
  H   H497      1.0  0.78057  0.86090  0.41265  1.0000
  C   C505      1.0  0.82738  0.72065  0.18470  1.0000
  C   C506      1.0  0.67186  0.79359  0.26075  1.0000
  H   H498      1.0  0.64835  0.76923  0.30252  1.0000
  H   H499      1.0  0.67051  0.89481  0.43002  1.0000
  H   H500      1.0  0.82661  0.70669  0.17119  1.0000
  H   H501      1.0  0.61276  0.71675  0.06556  1.0000
  H   H502      1.0  0.78041  0.69017  0.20374  1.0000
  Fe  Fe86      1.0  0.51749  0.95258  0.33195  1.0000
  H   H503      1.0  0.80457  0.76824  0.02669  1.0000
  C   C507      1.0  0.58138  0.71155  0.06785  1.0000
  H   H504      1.0  0.69245  0.81892  0.32230  1.0000
  H   H505      1.0  0.64142  0.86474  0.45455  1.0000
  S   S172      1.0  0.80069  0.66607  0.15443  1.0000
  C   C508      1.0  0.55042  0.72583  0.07309  1.0000
  H   H506      1.0  0.67498  0.81569  0.44540  1.0000
  H   H507      1.0  0.52601  0.66860  0.06953  1.0000
  H   H508      1.0  0.72941  0.84107  0.28782  1.0000
  H   H509      1.0  0.75773  0.68360  0.25408  1.0000
  H   H510      1.0  0.84605  0.74247  0.23142  1.0000
  H   H511      1.0  0.80584  0.73196  0.17506  1.0000
  H   H512      1.0  0.69267  0.80194  0.21781  1.0000
  N   N43       1.0  0.81560  0.71631  0.21481  1.0000
  C   C509      1.0  0.65048  0.78514  0.31043  1.0000
  C   C510      1.0  0.75737  0.74596  0.03455  1.0000
  H   H513      1.0  0.66706  0.78424  0.33154  1.0000
  N   N44       1.0  0.00468  0.77810  0.43471  1.0000
  H   H514      1.0  0.61917  0.79129  0.31403  1.0000
  C   C511      1.0  0.69247  0.81507  0.29941  1.0000
  C   C512      1.0  0.60496  0.67636  0.06117  1.0000
  H   H515      1.0  0.69717  0.82260  0.47976  1.0000
  C   C513      1.0  0.69239  0.80594  0.24068  1.0000
  C   C514      1.0  0.53287  0.68472  0.06967  1.0000
  C   C515      1.0  0.51486  0.98332  0.26270  1.0000
  H   H516      1.0  0.50909  0.96310  0.48117  1.0000
  H   H517      1.0  0.55792  0.74181  0.07513  1.0000
  H   H518      1.0  0.57464  0.98987  0.01810  1.0000
  H   H519      1.0  0.95200  0.76565  0.45520  1.0000
  H   H520      1.0  0.59610  0.66564  0.04374  1.0000
  C   C516      1.0  0.96140  0.77208  0.43390  1.0000
  C   C517      1.0  0.78103  0.75895  0.01688  1.0000
  C   C518      1.0  0.50998  0.71928  0.07632  1.0000
  C   C519      1.0  0.50553  0.97886  0.48730  1.0000
  H   H521      1.0  0.95636  0.76060  0.41661  1.0000
  Fe  Fe87      1.0  0.56106  0.92643  0.89039  1.0000
  S   S173      1.0  0.62543  0.91510  0.90195  1.0000
  H   H522      1.0  0.84590  0.69197  0.56532  1.0000
  H   H523      1.0  0.67366  0.96200  0.85397  1.0000
  S   S174      1.0  0.55053  0.95993  0.88236  1.0000
  C   C520      1.0  0.88074  0.76637  0.81018  1.0000
  Fe  Fe88      1.0  0.73424  0.67666  0.63579  1.0000
  S   S175      1.0  0.78022  0.70160  0.62940  1.0000
  Fe  Fe89      1.0  0.66015  0.70511  0.62523  1.0000
  S   S176      1.0  0.70203  0.73183  0.61764  1.0000
  S   S177      1.0  0.59294  0.71435  0.61806  1.0000
  Fe  Fe90      1.0  0.74108  0.71099  0.59114  1.0000
  S   S178      1.0  0.77240  0.71513  0.54728  1.0000
  Fe  Fe91      1.0  0.73724  0.72040  0.65666  1.0000
  S   S179      1.0  0.75654  0.74568  0.68741  1.0000
  S   S180      1.0  0.69723  0.68488  0.59592  1.0000
  S   S181      1.0  0.69324  0.69485  0.66592  1.0000
  Fe  Fe92      1.0  0.75858  0.81182  0.87201  1.0000
  S   S182      1.0  0.74582  0.77980  0.88717  1.0000
  S   S183      1.0  0.70030  0.83008  0.86184  1.0000
  Fe  Fe93      1.0  0.85237  0.80377  0.87038  1.0000
  S   S184      1.0  0.84521  0.77144  0.88520  1.0000
  S   S185      1.0  0.91404  0.81806  0.85821  1.0000
  Fe  Fe94      1.0  0.79210  0.77037  0.85358  1.0000
  S   S186      1.0  0.78182  0.74268  0.82486  1.0000
  Fe  Fe95      1.0  0.79949  0.78381  0.91722  1.0000
  S   S187      1.0  0.80333  0.77771  0.96595  1.0000
  S   S188      1.0  0.80195  0.80197  0.83661  1.0000
  S   S189      1.0  0.80964  0.81658  0.90423  1.0000
  C   C521      1.0  0.96346  0.80932  0.86931  1.0000
  C   C522      1.0  0.96893  0.79086  0.88410  1.0000
  C   C523      1.0  0.62867  0.94825  0.82600  1.0000
  H   H524      1.0  0.94242  0.78209  0.89058  1.0000
  C   C524      1.0  0.70984  0.81906  0.94064  1.0000
  C   C525      1.0  0.54442  0.70599  0.63087  1.0000
  C   C526      1.0  0.53953  0.68799  0.64682  1.0000
  H   H525      1.0  0.99459  0.83487  0.84989  1.0000
  C   C527      1.0  0.76501  0.73565  0.52253  1.0000
  H   H526      1.0  0.91101  0.67197  0.56656  1.0000
  H   H527      1.0  0.56612  0.67892  0.65254  1.0000
  C   C528      1.0  0.84524  0.67546  0.56597  1.0000
  S   S190      1.0  0.50665  0.92335  0.91999  1.0000
  C   C529      1.0  0.77444  0.76004  0.98670  1.0000
  C   C530      1.0  0.74391  0.74795  0.97427  1.0000
  H   H528      1.0  0.59378  0.71275  0.68439  1.0000
  H   H529      1.0  0.72593  0.75330  0.55031  1.0000
  H   H530      1.0  0.77953  0.67410  0.56590  1.0000
  H   H531      1.0  0.73851  0.74866  0.95108  1.0000
  H   H532      1.0  0.73344  0.79948  0.00617  1.0000
  C   C531      1.0  0.76384  0.74423  0.72553  1.0000
  C   C532      1.0  0.76106  0.72592  0.74099  1.0000
  C   C533      1.0  0.76636  0.72570  0.77142  1.0000
  C   C534      1.0  0.77388  0.74378  0.78670  1.0000
  C   C535      1.0  0.77570  0.76213  0.77125  1.0000
  C   C536      1.0  0.77115  0.76230  0.74082  1.0000
  H   H533      1.0  0.75523  0.71192  0.72950  1.0000
  H   H534      1.0  0.76483  0.71143  0.78319  1.0000
  H   H535      1.0  0.78082  0.77620  0.78268  1.0000
  H   H536      1.0  0.77305  0.77657  0.72907  1.0000
  C   C537      1.0  0.64491  0.89079  0.89261  1.0000
  C   C538      1.0  0.62161  0.87697  0.87664  1.0000
  C   C539      1.0  0.63910  0.85844  0.86766  1.0000
  C   C540      1.0  0.67992  0.85340  0.87473  1.0000
  C   C541      1.0  0.70317  0.86712  0.89099  1.0000
  C   C542      1.0  0.68570  0.88573  0.89985  1.0000
  H   H537      1.0  0.59016  0.88062  0.87106  1.0000
  H   H538      1.0  0.62082  0.84792  0.85516  1.0000
  H   H539      1.0  0.73477  0.86360  0.89627  1.0000
  H   H540      1.0  0.70403  0.89639  0.91207  1.0000
  H   H541      1.0  0.98310  0.79411  0.77572  1.0000
  C   C543      1.0  0.52788  0.98372  0.98596  1.0000
  C   C544      1.0  0.89464  0.74984  0.82656  1.0000
  N   N45       1.0  0.63760  0.91258  0.81703  1.0000
  H   H542      1.0  0.94691  0.73606  0.84771  1.0000
  C   C545      1.0  0.61576  0.93017  0.81310  1.0000
  C   C546      1.0  0.68669  0.93033  0.84645  1.0000
  C   C547      1.0  0.97727  0.79590  0.79930  1.0000
  C   C548      1.0  0.66415  0.94825  0.84301  1.0000
  H   H543      1.0  0.58761  0.93021  0.80044  1.0000
  H   H544      1.0  0.71356  0.92998  0.86039  1.0000
  C   C549      1.0  0.68508  0.78865  0.97862  1.0000
  H   H545      1.0  0.54339  0.69112  0.56270  1.0000
  H   H546      1.0  0.64130  0.78037  0.94560  1.0000
  C   C550      1.0  0.76376  0.82985  0.97461  1.0000
  N   N46       1.0  0.94882  0.78018  0.80944  1.0000
  C   C551      1.0  0.96290  0.76396  0.82541  1.0000
  C   C552      1.0  0.90829  0.78155  0.80189  1.0000
  C   C553      1.0  0.93595  0.74864  0.83444  1.0000
  H   H547      1.0  0.96408  0.81126  0.80329  1.0000
  C   C554      1.0  0.62189  0.89367  0.80459  1.0000
  H   H548      1.0  0.79289  0.82130  0.97147  1.0000
  H   H549      1.0  0.84865  0.76755  0.80430  1.0000
  H   H550      1.0  0.89694  0.79460  0.78974  1.0000
  H   H551      1.0  0.67670  0.77639  0.99334  1.0000
  H   H552      1.0  0.61682  0.89555  0.78085  1.0000
  H   H553      1.0  0.61062  0.96204  0.82335  1.0000
  H   H554      1.0  0.59232  0.88965  0.81513  1.0000
  N   N47       1.0  0.72891  0.81686  0.96701  1.0000
  S   S191      1.0  0.52657  0.91709  0.85063  1.0000
  N   N48       1.0  0.65301  0.75406  0.69603  1.0000
  C   C555      1.0  0.62758  0.74087  0.68191  1.0000
  C   C556      1.0  0.66406  0.75053  0.72433  1.0000
  C   C557      1.0  0.61345  0.72330  0.69589  1.0000
  C   C558      1.0  0.65114  0.73293  0.73881  1.0000
  C   C559      1.0  0.62570  0.71923  0.72442  1.0000
  C   C560      1.0  0.66747  0.77229  0.68075  1.0000
  H   H555      1.0  0.61850  0.74377  0.65956  1.0000
  H   H556      1.0  0.68395  0.76104  0.73565  1.0000
  S   S192      1.0  0.52925  0.96252  0.79834  1.0000
  H   H557      1.0  0.66136  0.72986  0.76089  1.0000
  H   H558      1.0  0.76471  0.84382  0.96092  1.0000
  H   H559      1.0  0.67869  0.76821  0.65873  1.0000
  H   H560      1.0  0.64230  0.78360  0.67881  1.0000
  H   H561      1.0  0.69402  0.77929  0.69214  1.0000
  H   H562      1.0  0.66318  0.80785  0.91155  1.0000
  Fe  Fe96      1.0  0.51211  0.95044  0.84389  1.0000
  H   H563      1.0  0.71979  0.83060  0.92533  1.0000
  H   H564      1.0  0.69643  0.72578  0.98222  1.0000
  C   C561      1.0  0.74094  0.75258  0.52942  1.0000
  H   H565      1.0  0.68986  0.89851  0.83688  1.0000
  C   C562      1.0  0.67770  0.80617  0.93271  1.0000
  H   H566      1.0  0.64340  0.88071  0.80808  1.0000
  H   H567      1.0  0.87312  0.73819  0.83350  1.0000
  C   C563      1.0  0.67294  0.91252  0.83316  1.0000
  H   H568      1.0  0.54708  0.97358  0.97350  1.0000
  C   C564      1.0  0.72004  0.73505  0.99199  1.0000
  H   H569      1.0  0.83209  0.66293  0.64048  1.0000
  H   H570      1.0  0.61568  0.70542  0.73526  1.0000
  C   C565      1.0  0.66544  0.79081  0.95180  1.0000
  C   C566      1.0  0.71706  0.80184  0.98586  1.0000
  C   C567      1.0  0.50940  0.71752  0.62357  1.0000
  H   H571      1.0  0.56053  0.97588  0.74315  1.0000
  C   C568      1.0  0.80765  0.66527  0.56637  1.0000
  C   C569      1.0  0.51111  0.98140  0.77315  1.0000
  H   H572      1.0  0.76186  0.83463  0.99767  1.0000
  C   C570      1.0  0.51338  0.68491  0.56777  1.0000
  H   H573      1.0  0.51286  0.73151  0.61136  1.0000
  C   C571      1.0  0.51020  0.66670  0.58329  1.0000
  H   H574      1.0  0.99491  0.76303  0.83185  1.0000
  C   C572      1.0  0.88164  0.66424  0.56647  1.0000
  H   H575      1.0  0.50827  0.97260  0.53345  1.0000
  H   H576      1.0  0.71815  0.78178  0.51490  1.0000
  C   C573      1.0  0.99842  0.82053  0.86122  1.0000
  C   C574      1.0  0.53314  0.98470  0.74723  1.0000
  C   C575      1.0  0.73660  0.76871  0.50929  1.0000
  C   C576      1.0  0.50506  0.98432  0.51699  1.0000
