data_image0
_chemical_formula_structural       H2FeH2CH2CFeS3HC2HCHSFeS2FeSFeSC6H2CNHC6H4C6H3SHC3HCNH2FeC3HFeHSNFeH2CHC2FeSH2CSCH4SHSHNC2HS2C2HFeSCH5SH2CSC3HSNFeCHC4HNCH2CHC2HCH4CHSCFeSFeC2HCHFeS2FeS2FeSFeS3HCHC3SHFeS2FeS2FeSFeS3C2HC5H3CHCHC4H2CH2CHCH2C6H4C4HC3HC2H2C8H5CHC2HNC6H9FeCHSHC2HNCH3CNHCSH3CHFeCH5NHCSC2SCH3SCHCH2CSCH4CSHCFe2SFeS3HCSCSH2FeS2FeSFeSHCHCFeHCHC4H5C6H4C6H4C5H3CH3SH4CHCNCHNHSCSCSC3SH3CH7CHC2HN2HCSNCHC2FeH2FeCH2C2HC4HC2SCH3CH2FeCSCHCHC3HC3HCFeS2FeS2FeSFeS3C2S3HSC6H4C2HC4H2CHC4H4CHC4NH2CH3NC3H5SFeH2CHFeHCHC2H7C2HSH2CH2CHCHCSHSCH2SHCH2SC2NCH2SCNHFeHCFeHC2FeNH3CHCH3CH2SH2CHCFeCHC2FeS2FeS2FeSFeS3HCHC2H3FeS2FeS2FeSFeS3H4CHNHC2HCHSCHC2HC6HS2HC6H3FeCFeCFeHC6H4C4HC6H4C6H5C2SC3HCHC3H3CH2CH4CNHC2H4C4HNH2CHNCHSCH4CNC4HCH3SFe2CHCS2CH2NCHCHCHCH4NFeC2HSC3HCHFeS2FeS2FeSFeS3H2FeSCS2C6H4C3HSH2C2HNFeC2HC5H3C2FeSC2H2CHC2HNHCHSFeH6C4H2C3HNH2CNC6H9SHNCFeSHC5H2SHSC2H9SHCHCHCFeHSHC2SFeS2FeS2FeSFeS3HCFeSHNSCFeC2SHC3H2C2H2C6H4C6H4S2FeH2CSHS2H2CH2C3HCH2CH2C2H2SNC2HCH2NC6H8NC6H4SHSHFeC3HNCHCH5C2NH2C2H5C2FeHCH2C2H2NS2H5CHFe2C2H2CS2HSHS2H2CH5FeNH2CHCSC5HFe2NHC2SC3HCSH3C2HFeCHCFeH2CSFeC2HCFeC4HCH4C6HCNHC2HC2SC2HNC4H2CH4CFeSCSH3CSCFeHCH5CFeCHCH2C2HNHC5S3HCS2HSHSHFeCHSC2HNHCH2CH3C2HC2SC4HCHCSHFeSH2FeSHFeS2FeS2FeSFeS3HNCHSH2FeSH2C3HSH2C3H3C2SHC6H4C6H5C3H3C3NC6H8C3H2C2SCH3NH2NC2SC2H2FeCSCH2CHC2H2C2NCHC2H2CH2CH2C2SCH6FeS2FeS2FeSFeS3HSHFeS2FeSFeCSC2HSFeHC5HC3HC2HCHC4H2C2SCHCHCH2C6H4C2H3CHSHC2H2CH2CH2SHC2HC3SC2FeH5NHNSH6SNHC2HC2H2CNHNC2H2C2HFeCSNFeH4FeSFeHSFeS3FeHC3HCH2CH2NCSFeS3C5SC2H2C5HSCH2C6H6C6H6SFeCSHSH2C4H4C6FeHCHCHC2H2CH2CHSH2CHCH3CSH2CHNCHFeHSNCSHC4HCSC2FeCH2SHSFe2C2HCH2SCSH3CHC3HNHFeS2FeS2FeSFeS3FeHSFeHSH2FeSHSCH2FeH2C3H4CSCH2C5H2C3H2CSC5HCHC6H3CH3NC5H4C2NSCH2CHCH3C2HSH3SHCH3C4HCFeHCHSNC3HC2SCHSCHCHNC2HC2
_chemical_formula_sum              "H768 Fe128 C768 S256 N64"
_cell_length_a       38.6806
_cell_length_b       41.8847
_cell_length_c       70.758
_cell_angle_alpha    90.4527
_cell_angle_beta     90.0964
_cell_angle_gamma    90.3598

_space_group_name_H-M_alt    "P 1"
_space_group_IT_number       1

loop_
  _space_group_symop_operation_xyz
  'x, y, z'

loop_
  _atom_site_type_symbol
  _atom_site_label
  _atom_site_symmetry_multiplicity
  _atom_site_fract_x
  _atom_site_fract_y
  _atom_site_fract_z
  _atom_site_occupancy
  H   H1        1.0  0.39283  0.01494  0.15565  1.0000
  H   H2        1.0  0.03633  0.41281  0.20076  1.0000
  Fe  Fe1       1.0  0.09518  0.47800  0.29835  1.0000
  H   H3        1.0  0.39116  0.33454  0.16658  1.0000
  H   H4        1.0  0.35459  0.33277  0.06962  1.0000
  C   C1        1.0  0.20324  0.37398  0.00166  1.0000
  H   H5        1.0  0.45903  0.03158  0.24462  1.0000
  H   H6        1.0  0.38976  0.25348  0.18816  1.0000
  C   C2        1.0  0.04506  0.42238  0.18694  1.0000
  Fe  Fe2       1.0  0.19239  0.38103  0.11114  1.0000
  S   S1        1.0  0.14700  0.36676  0.12930  1.0000
  S   S2        1.0  0.32258  0.35446  0.11037  1.0000
  S   S3        1.0  0.22406  0.34730  0.09335  1.0000
  H   H7        1.0  0.08165  0.43951  0.21760  1.0000
  C   C3        1.0  0.39536  0.27819  0.18330  1.0000
  C   C4        1.0  0.99400  0.45512  0.22752  1.0000
  H   H8        1.0  0.17773  0.47788  0.06780  1.0000
  C   C5        1.0  0.25534  0.39278  0.01714  1.0000
  H   H9        1.0  0.41170  0.27574  0.17046  1.0000
  S   S4        1.0  0.18381  0.41465  0.08731  1.0000
  Fe  Fe3       1.0  0.41216  0.19486  0.15706  1.0000
  S   S5        1.0  0.40114  0.14773  0.17156  1.0000
  S   S6        1.0  0.36309  0.22419  0.15128  1.0000
  Fe  Fe4       1.0  0.43771  0.12668  0.15030  1.0000
  S   S7        1.0  0.43981  0.07818  0.13548  1.0000
  Fe  Fe5       1.0  0.44776  0.15905  0.18978  1.0000
  S   S8        1.0  0.44679  0.17271  0.13480  1.0000
  C   C6        1.0  0.35043  0.01457  0.11381  1.0000
  C   C7        1.0  0.34325  0.04341  0.12332  1.0000
  C   C8        1.0  0.37019  0.06374  0.12963  1.0000
  C   C9        1.0  0.40465  0.05553  0.12628  1.0000
  C   C10       1.0  0.41178  0.02709  0.11641  1.0000
  C   C11       1.0  0.48240  0.07012  0.28444  1.0000
  H   H10       1.0  0.31666  0.04991  0.12599  1.0000
  H   H11       1.0  0.36429  0.08553  0.13725  1.0000
  C   C12       1.0  0.01190  0.48357  0.22397  1.0000
  N   N1        1.0  0.36363  0.29555  0.17876  1.0000
  H   H12       1.0  0.02127  0.42808  0.17885  1.0000
  C   C13       1.0  0.33319  0.31698  0.12053  1.0000
  C   C14       1.0  0.30788  0.29565  0.12689  1.0000
  C   C15       1.0  0.31762  0.26684  0.13559  1.0000
  C   C16       1.0  0.35267  0.25876  0.13792  1.0000
  C   C17       1.0  0.37795  0.27956  0.13092  1.0000
  C   C18       1.0  0.36822  0.30852  0.12234  1.0000
  H   H13       1.0  0.28083  0.30165  0.12551  1.0000
  H   H14       1.0  0.29782  0.25093  0.14093  1.0000
  H   H15       1.0  0.40500  0.27371  0.13249  1.0000
  H   H16       1.0  0.38806  0.32467  0.11730  1.0000
  C   C19       1.0  0.05825  0.43854  0.12683  1.0000
  C   C20       1.0  0.05271  0.40835  0.13465  1.0000
  C   C21       1.0  0.08021  0.38654  0.13578  1.0000
  C   C22       1.0  0.11331  0.39502  0.12931  1.0000
  C   C23       1.0  0.11904  0.42587  0.12253  1.0000
  C   C24       1.0  0.09155  0.44737  0.12106  1.0000
  H   H17       1.0  0.02708  0.40139  0.13918  1.0000
  H   H18       1.0  0.07568  0.36278  0.14117  1.0000
  H   H19       1.0  0.14469  0.43331  0.11849  1.0000
  S   S9        1.0  0.18484  0.40451  0.32691  1.0000
  H   H20       1.0  0.45042  0.07379  0.24720  1.0000
  C   C25       1.0  0.46164  0.16197  0.32287  1.0000
  C   C26       1.0  0.02679  0.44951  0.25704  1.0000
  C   C27       1.0  0.36608  0.32472  0.17027  1.0000
  H   H21       1.0  0.45725  0.07816  0.28924  1.0000
  C   C28       1.0  0.24549  0.29970  0.05507  1.0000
  N   N2        1.0  0.42700  0.17519  0.32573  1.0000
  H   H22       1.0  0.03259  0.43604  0.26963  1.0000
  H   H23       1.0  0.05970  0.40369  0.17917  1.0000
  Fe  Fe6       1.0  0.21976  0.38412  0.07035  1.0000
  C   C29       1.0  0.04506  0.47769  0.25335  1.0000
  C   C30       1.0  0.27757  0.27132  0.07883  1.0000
  C   C31       1.0  0.44277  0.00045  0.16543  1.0000
  H   H24       1.0  0.48231  0.17991  0.32591  1.0000
  Fe  Fe7       1.0  0.14255  0.44288  0.32677  1.0000
  H   H25       1.0  0.27940  0.25238  0.08917  1.0000
  S   S10       1.0  0.15117  0.48403  0.30669  1.0000
  N   N3        1.0  0.06668  0.45098  0.18939  1.0000
  Fe  Fe8       1.0  0.23082  0.43982  0.09842  1.0000
  H   H26       1.0  0.43836  0.02092  0.11359  1.0000
  H   H27       1.0  0.27653  0.28852  0.18137  1.0000
  C   C32       1.0  0.17804  0.44714  0.02375  1.0000
  H   H28       1.0  0.22206  0.30318  0.04686  1.0000
  C   C33       1.0  0.33100  0.34037  0.06190  1.0000
  C   C34       1.0  0.30388  0.32881  0.16972  1.0000
  Fe  Fe9       1.0  0.26961  0.37619  0.10365  1.0000
  S   S11       1.0  0.23815  0.40743  0.12328  1.0000
  H   H29       1.0  0.22581  0.25876  0.06998  1.0000
  H   H30       1.0  0.32992  0.25912  0.18908  1.0000
  C   C35       1.0  0.36529  0.16919  0.32339  1.0000
  S   S12       1.0  0.47845  0.00788  0.31640  1.0000
  C   C36       1.0  0.27341  0.32082  0.05316  1.0000
  H   H31       1.0  0.43228  0.04470  0.26345  1.0000
  H   H32       1.0  0.13923  0.41233  0.05011  1.0000
  H   H33       1.0  0.16331  0.43112  0.01463  1.0000
  H   H34       1.0  0.09621  0.47098  0.11546  1.0000
  S   S13       1.0  0.02442  0.46604  0.12398  1.0000
  H   H35       1.0  0.19778  0.47308  0.13455  1.0000
  S   S14       1.0  0.07914  0.49180  0.26819  1.0000
  H   H36       1.0  0.34289  0.15497  0.31933  1.0000
  N   N4        1.0  0.16699  0.45356  0.04173  1.0000
  C   C37       1.0  0.30161  0.29914  0.17850  1.0000
  C   C38       1.0  0.30509  0.29272  0.07642  1.0000
  H   H37       1.0  0.33826  0.36422  0.15809  1.0000
  S   S15       1.0  0.48300  0.13443  0.16959  1.0000
  S   S16       1.0  0.08739  0.43461  0.31673  1.0000
  C   C39       1.0  0.33193  0.28269  0.18291  1.0000
  C   C40       1.0  0.33629  0.34171  0.16554  1.0000
  H   H38       1.0  0.28058  0.34138  0.16566  1.0000
  Fe  Fe10      1.0  0.48949  0.18203  0.15586  1.0000
  S   S17       1.0  0.45239  0.14538  0.22097  1.0000
  C   C41       1.0  0.13507  0.43844  0.04849  1.0000
  H   H39       1.0  0.47290  0.12712  0.25851  1.0000
  H   H40       1.0  0.32304  0.36367  0.06807  1.0000
  H   H41       1.0  0.32819  0.28988  0.08493  1.0000
  H   H42       1.0  0.33790  0.34364  0.04681  1.0000
  H   H43       1.0  0.27124  0.34045  0.04334  1.0000
  S   S18       1.0  0.26681  0.41162  0.07957  1.0000
  H   H44       1.0  0.41011  0.29094  0.19455  1.0000
  H   H45       1.0  0.46491  0.15376  0.30803  1.0000
  C   C42       1.0  0.39872  0.15801  0.31985  1.0000
  S   S19       1.0  0.45604  0.20763  0.17716  1.0000
  C   C43       1.0  0.24758  0.27489  0.06807  1.0000
  C   C44       1.0  0.08438  0.45600  0.20593  1.0000
  C   C45       1.0  0.22191  0.38002  0.01840  1.0000
  H   H46       1.0  0.26990  0.39792  0.02988  1.0000
  S   S20       1.0  0.20212  0.37133  0.04041  1.0000
  N   N5        1.0  0.30271  0.31715  0.06375  1.0000
  Fe  Fe11      1.0  0.43116  0.02123  0.33285  1.0000
  C   C46       1.0  0.38491  0.00653  0.11035  1.0000
  H   H47       1.0  0.05646  0.46774  0.16158  1.0000
  C   C47       1.0  0.18620  0.47286  0.05346  1.0000
  C   C48       1.0  0.45544  0.05134  0.25500  1.0000
  C   C49       1.0  0.20904  0.46018  0.01706  1.0000
  C   C50       1.0  0.07011  0.47188  0.17475  1.0000
  H   H48       1.0  0.40188  0.13489  0.31305  1.0000
  N   N6        1.0  0.48579  0.05522  0.26727  1.0000
  C   C51       1.0  0.10537  0.48309  0.20831  1.0000
  H   H49       1.0  0.45335  0.02451  0.16525  1.0000
  H   H50       1.0  0.11365  0.44223  0.03830  1.0000
  C   C52       1.0  0.48769  0.15762  0.23549  1.0000
  H   H51       1.0  0.12685  0.44823  0.06243  1.0000
  C   C53       1.0  0.22898  0.47955  0.02900  1.0000
  C   C54       1.0  0.21753  0.48599  0.04732  1.0000
  H   H52       1.0  0.23452  0.35387  0.32564  1.0000
  C   C55       1.0  0.00142  0.43833  0.24418  1.0000
  H   H53       1.0  0.21796  0.45450  0.00288  1.0000
  H   H54       1.0  0.17737  0.36408  0.00246  1.0000
  H   H55       1.0  0.25342  0.48926  0.02411  1.0000
  H   H56       1.0  0.11854  0.48741  0.22166  1.0000
  C   C56       1.0  0.40858  0.99486  0.15978  1.0000
  H   H57       1.0  0.46559  0.14156  0.33260  1.0000
  S   S21       1.0  0.22703  0.49408  0.09870  1.0000
  C   C57       1.0  0.36096  0.19786  0.33326  1.0000
  Fe  Fe12      1.0  0.13721  0.45179  0.65080  1.0000
  S   S22       1.0  0.18702  0.42497  0.64360  1.0000
  Fe  Fe13      1.0  0.06261  0.47160  0.64352  1.0000
  C   C58       1.0  0.46264  0.05467  0.60389  1.0000
  C   C59       1.0  0.46469  0.22240  0.57213  1.0000
  H   H58       1.0  0.39991  0.31441  0.58805  1.0000
  C   C60       1.0  0.27472  0.41694  0.35088  1.0000
  H   H59       1.0  0.38707  0.23740  0.34709  1.0000
  Fe  Fe14      1.0  0.27303  0.26611  0.59992  1.0000
  S   S23       1.0  0.31877  0.29405  0.58960  1.0000
  S   S24       1.0  0.22052  0.28815  0.60720  1.0000
  Fe  Fe15      1.0  0.31034  0.20209  0.59341  1.0000
  S   S25       1.0  0.35823  0.22586  0.58221  1.0000
  S   S26       1.0  0.30765  0.14786  0.59434  1.0000
  Fe  Fe16      1.0  0.35064  0.25978  0.60649  1.0000
  S   S27       1.0  0.39608  0.27716  0.62391  1.0000
  Fe  Fe17      1.0  0.32235  0.25762  0.56609  1.0000
  S   S28       1.0  0.33520  0.27882  0.53730  1.0000
  S   S29       1.0  0.30472  0.23430  0.61879  1.0000
  S   S30       1.0  0.27454  0.23141  0.57526  1.0000
  H   H60       1.0  0.27443  0.38393  0.40162  1.0000
  C   C61       1.0  0.35345  0.10636  0.41039  1.0000
  H   H61       1.0  0.48250  0.27473  0.36521  1.0000
  C   C62       1.0  0.42399  0.25863  0.55800  1.0000
  C   C63       1.0  0.36429  0.12508  0.42572  1.0000
  C   C64       1.0  0.22420  0.35451  0.33984  1.0000
  S   S31       1.0  0.12872  0.47550  0.35116  1.0000
  H   H62       1.0  0.24269  0.11409  0.41783  1.0000
  Fe  Fe18      1.0  0.28616  0.27393  0.39331  1.0000
  S   S32       1.0  0.32880  0.28283  0.41469  1.0000
  S   S33       1.0  0.24419  0.31243  0.39084  1.0000
  Fe  Fe19      1.0  0.31123  0.20476  0.38596  1.0000
  S   S34       1.0  0.35380  0.20890  0.40718  1.0000
  S   S35       1.0  0.30317  0.15815  0.36967  1.0000
  Fe  Fe20      1.0  0.31589  0.23415  0.42612  1.0000
  S   S36       1.0  0.30775  0.21530  0.45614  1.0000
  Fe  Fe21      1.0  0.36303  0.25665  0.39393  1.0000
  S   S37       1.0  0.41589  0.27252  0.38367  1.0000
  S   S38       1.0  0.27184  0.22611  0.40573  1.0000
  S   S39       1.0  0.32163  0.25168  0.37172  1.0000
  C   C65       1.0  0.37257  0.14201  0.36679  1.0000
  C   C66       1.0  0.33826  0.13349  0.36287  1.0000
  H   H63       1.0  0.37820  0.16395  0.37439  1.0000
  C   C67       1.0  0.37227  0.09331  0.63811  1.0000
  C   C68       1.0  0.44672  0.24257  0.37878  1.0000
  C   C69       1.0  0.44058  0.21091  0.38388  1.0000
  C   C70       1.0  0.44172  0.22960  0.55755  1.0000
  C   C71       1.0  0.35881  0.08547  0.34650  1.0000
  H   H64       1.0  0.46176  0.27901  0.64341  1.0000
  H   H65       1.0  0.45413  0.11666  0.63473  1.0000
  H   H66       1.0  0.41758  0.20467  0.39149  1.0000
  C   C72       1.0  0.22812  0.45440  0.35890  1.0000
  H   H67       1.0  0.23574  0.47740  0.36566  1.0000
  C   C73       1.0  0.34029  0.14372  0.43544  1.0000
  H   H68       1.0  0.31060  0.09261  0.39279  1.0000
  C   C74       1.0  0.47740  0.25023  0.36914  1.0000
  C   C75       1.0  0.19840  0.35624  0.37654  1.0000
  C   C76       1.0  0.22534  0.33492  0.37219  1.0000
  C   C77       1.0  0.23779  0.33382  0.35364  1.0000
  H   H69       1.0  0.42626  0.13041  0.36241  1.0000
  H   H70       1.0  0.34838  0.15865  0.44729  1.0000
  C   C78       1.0  0.39982  0.12288  0.36007  1.0000
  H   H71       1.0  0.25840  0.31755  0.35003  1.0000
  H   H72       1.0  0.27383  0.42504  0.33637  1.0000
  C   C79       1.0  0.46448  0.18707  0.37932  1.0000
  H   H73       1.0  0.25086  0.15261  0.40706  1.0000
  C   C80       1.0  0.25284  0.41820  0.38222  1.0000
  H   H74       1.0  0.23469  0.42740  0.39254  1.0000
  H   H75       1.0  0.42082  0.08669  0.61024  1.0000
  C   C81       1.0  0.32815  0.26045  0.51488  1.0000
  C   C82       1.0  0.31504  0.22938  0.51309  1.0000
  C   C83       1.0  0.30901  0.21603  0.49501  1.0000
  C   C84       1.0  0.31606  0.23349  0.47851  1.0000
  C   C85       1.0  0.32916  0.26457  0.48031  1.0000
  C   C86       1.0  0.33515  0.27793  0.49841  1.0000
  H   H76       1.0  0.30945  0.21563  0.52563  1.0000
  H   H77       1.0  0.29888  0.19197  0.49379  1.0000
  H   H78       1.0  0.33470  0.27829  0.46777  1.0000
  H   H79       1.0  0.34527  0.30201  0.49961  1.0000
  C   C87       1.0  0.37340  0.12682  0.63742  1.0000
  C   C88       1.0  0.35372  0.14364  0.62412  1.0000
  C   C89       1.0  0.33283  0.12713  0.61117  1.0000
  C   C90       1.0  0.19794  0.37646  0.34433  1.0000
  H   H80       1.0  0.35448  0.16943  0.62396  1.0000
  C   C91       1.0  0.42626  0.24714  0.62905  1.0000
  C   C92       1.0  0.42060  0.21590  0.62271  1.0000
  C   C93       1.0  0.47730  0.20040  0.63425  1.0000
  H   H81       1.0  0.45539  0.28973  0.59850  1.0000
  C   C94       1.0  0.40917  0.30953  0.57342  1.0000
  C   C95       1.0  0.45725  0.25482  0.63847  1.0000
  H   H82       1.0  0.39678  0.20969  0.61559  1.0000
  H   H83       1.0  0.31463  0.38230  0.34512  1.0000
  C   C96       1.0  0.39313  0.09478  0.34966  1.0000
  C   C97       1.0  0.35176  0.07663  0.62500  1.0000
  C   C98       1.0  0.19536  0.38738  0.63263  1.0000
  C   C99       1.0  0.22993  0.37815  0.62982  1.0000
  C   C100      1.0  0.23811  0.34801  0.62202  1.0000
  C   C101      1.0  0.21173  0.32657  0.61700  1.0000
  C   C102      1.0  0.17713  0.33576  0.61983  1.0000
  C   C103      1.0  0.16894  0.36597  0.62758  1.0000
  H   H84       1.0  0.25061  0.39443  0.63374  1.0000
  H   H85       1.0  0.26483  0.34133  0.62000  1.0000
  H   H86       1.0  0.15649  0.31939  0.61600  1.0000
  H   H87       1.0  0.14224  0.37262  0.62971  1.0000
  H   H88       1.0  0.39126  0.12543  0.42995  1.0000
  C   C104      1.0  0.99976  0.41436  0.35279  1.0000
  H   H89       1.0  0.35327  0.06404  0.33836  1.0000
  C   C105      1.0  0.30585  0.14397  0.42937  1.0000
  C   C106      1.0  0.44606  0.19269  0.62520  1.0000
  H   H90       1.0  0.38587  0.30845  0.56419  1.0000
  N   N7        1.0  0.23796  0.30010  0.54839  1.0000
  C   C107      1.0  0.25104  0.29517  0.53066  1.0000
  C   C108      1.0  0.21273  0.28035  0.55530  1.0000
  C   C109      1.0  0.23995  0.26915  0.51965  1.0000
  C   C110      1.0  0.20130  0.25390  0.54477  1.0000
  C   C111      1.0  0.21521  0.24820  0.52688  1.0000
  C   C112      1.0  0.25008  0.32748  0.55966  1.0000
  H   H91       1.0  0.27090  0.31091  0.52509  1.0000
  H   H92       1.0  0.20178  0.28458  0.56919  1.0000
  H   H93       1.0  0.25107  0.26495  0.50577  1.0000
  H   H94       1.0  0.18211  0.23775  0.55060  1.0000
  H   H95       1.0  0.20700  0.22754  0.51864  1.0000
  H   H96       1.0  0.27826  0.33153  0.55751  1.0000
  H   H97       1.0  0.23570  0.34925  0.55565  1.0000
  H   H98       1.0  0.24631  0.32338  0.57504  1.0000
  H   H99       1.0  0.43717  0.21265  0.54613  1.0000
  Fe  Fe22      1.0  0.41212  0.02128  0.65772  1.0000
  C   C113      1.0  0.31869  0.10683  0.40490  1.0000
  H   H100      1.0  0.44791  0.04079  0.59365  1.0000
  S   S40       1.0  0.02947  0.47354  0.36014  1.0000
  H   H101      1.0  0.28748  0.15907  0.43673  1.0000
  C   C114      1.0  0.25947  0.12736  0.40786  1.0000
  C   C115      1.0  0.45174  0.27309  0.58680  1.0000
  H   H102      1.0  0.25615  0.11716  0.39340  1.0000
  N   N8        1.0  0.29561  0.12609  0.41409  1.0000
  C   C116      1.0  0.29800  0.38104  0.37415  1.0000
  H   H103      1.0  0.01197  0.40832  0.63487  1.0000
  H   H104      1.0  0.38976  0.13996  0.64709  1.0000
  H   H105      1.0  0.45950  0.16275  0.38358  1.0000
  C   C117      1.0  0.38996  0.21530  0.33911  1.0000
  N   N9        1.0  0.42850  0.27955  0.57277  1.0000
  H   H106      1.0  0.02157  0.40946  0.34368  1.0000
  C   C118      1.0  0.18473  0.37684  0.36273  1.0000
  S   S41       1.0  0.39767  0.07381  0.65538  1.0000
  H   H107      1.0  0.37190  0.09207  0.40252  1.0000
  H   H108      1.0  0.35076  0.05083  0.62530  1.0000
  H   H109      1.0  0.30508  0.09795  0.34993  1.0000
  C   C119      1.0  0.33153  0.10485  0.35299  1.0000
  H   H110      1.0  0.18841  0.35719  0.39080  1.0000
  Fe  Fe23      1.0  0.07442  0.46981  0.33992  1.0000
  C   C120      1.0  0.44732  0.08024  0.61333  1.0000
  H   H111      1.0  0.40587  0.26387  0.54672  1.0000
  H   H112      1.0  0.16438  0.39334  0.36641  1.0000
  H   H113      1.0  0.31600  0.08057  0.60160  1.0000
  H   H114      1.0  0.22684  0.45782  0.34334  1.0000
  H   H115      1.0  0.42593  0.32958  0.56879  1.0000
  N   N10       1.0  0.25250  0.42922  0.36406  1.0000
  H   H116      1.0  0.44156  0.16875  0.61985  1.0000
  C   C121      1.0  0.46608  0.09719  0.62698  1.0000
  S   S42       1.0  0.01491  0.47653  0.62543  1.0000
  C   C122      1.0  0.33208  0.09353  0.61159  1.0000
  C   C123      1.0  0.27544  0.39387  0.38751  1.0000
  S   S43       1.0  0.08597  0.43268  0.66117  1.0000
  C   C124      1.0  0.29784  0.39273  0.35573  1.0000
  H   H117      1.0  0.33517  0.20606  0.33680  1.0000
  H   H118      1.0  0.31464  0.36129  0.37793  1.0000
  H   H119      1.0  0.48766  0.23897  0.59824  1.0000
  S   S44       1.0  0.42814  0.07494  0.33858  1.0000
  C   C125      1.0  0.99787  0.44351  0.36250  1.0000
  H   H120      1.0  0.44524  0.21727  0.33974  1.0000
  C   C126      1.0  0.48276  0.23142  0.64113  1.0000
  H   H121      1.0  0.47937  0.05700  0.37032  1.0000
  H   H122      1.0  0.20154  0.44772  0.36340  1.0000
  C   C127      1.0  0.42295  0.20363  0.33507  1.0000
  S   S45       1.0  0.11329  0.48767  0.63122  1.0000
  C   C128      1.0  0.47008  0.24441  0.58674  1.0000
  H   H123      1.0  0.47815  0.19975  0.57221  1.0000
  H   H124      1.0  0.99358  0.41172  0.40940  1.0000
  H   H125      1.0  0.37505  0.37629  0.88517  1.0000
  H   H126      1.0  0.35115  0.40288  0.89970  1.0000
  C   C129      1.0  0.32103  0.33544  0.93598  1.0000
  S   S46       1.0  0.05125  0.45854  0.83859  1.0000
  H   H127      1.0  0.39437  0.39155  0.90685  1.0000
  C   C130      1.0  0.21767  0.38063  0.98382  1.0000
  Fe  Fe24      1.0  0.26357  0.38517  0.89024  1.0000
  Fe  Fe25      1.0  0.08998  0.47070  0.68396  1.0000
  S   S47       1.0  0.08044  0.45728  0.71484  1.0000
  Fe  Fe26      1.0  0.18867  0.39167  0.90224  1.0000
  S   S48       1.0  0.13448  0.37371  0.89654  1.0000
  S   S49       1.0  0.30268  0.36267  0.86993  1.0000
  S   S50       1.0  0.23226  0.36055  0.91257  1.0000
  H   H128      1.0  0.39370  0.01210  0.93470  1.0000
  C   C131      1.0  0.31327  0.03829  0.90668  1.0000
  S   S51       1.0  0.47152  0.13932  0.81989  1.0000
  C   C132      1.0  0.35214  0.29920  0.91562  1.0000
  S   S52       1.0  0.19894  0.43140  0.92304  1.0000
  H   H129      1.0  0.29098  0.04491  0.89826  1.0000
  H   H130      1.0  0.25891  0.01548  0.92941  1.0000
  Fe  Fe27      1.0  0.40400  0.19597  0.84293  1.0000
  S   S53       1.0  0.38982  0.15784  0.82126  1.0000
  S   S54       1.0  0.36191  0.22086  0.86062  1.0000
  Fe  Fe28      1.0  0.42548  0.12543  0.83741  1.0000
  S   S55       1.0  0.42550  0.07304  0.84636  1.0000
  Fe  Fe29      1.0  0.43767  0.17466  0.80563  1.0000
  S   S56       1.0  0.43708  0.16213  0.85975  1.0000
  H   H131      1.0  0.47656  0.00620  0.75962  1.0000
  C   C133      1.0  0.25132  0.39279  0.98252  1.0000
  H   H132      1.0  0.38585  0.16872  0.67916  1.0000
  C   C134      1.0  0.33478  0.36108  0.92586  1.0000
  Fe  Fe30      1.0  0.24543  0.40268  0.93141  1.0000
  H   H133      1.0  0.38707  0.11457  0.69287  1.0000
  C   C135      1.0  0.33500  0.00899  0.86508  1.0000
  H   H134      1.0  0.42244  0.06515  0.69572  1.0000
  C   C136      1.0  0.39642  0.02185  0.86438  1.0000
  C   C137      1.0  0.38990  0.05031  0.85464  1.0000
  C   C138      1.0  0.35570  0.05844  0.85052  1.0000
  C   C139      1.0  0.32840  0.03779  0.85567  1.0000
  H   H135      1.0  0.01424  0.45516  0.77418  1.0000
  H   H136      1.0  0.09659  0.39178  0.70242  1.0000
  H   H137      1.0  0.35034  0.08017  0.84290  1.0000
  H   H138      1.0  0.30207  0.04397  0.85210  1.0000
  H   H139      1.0  0.20300  0.37576  0.97107  1.0000
  C   C140      1.0  0.31783  0.32283  0.86710  1.0000
  C   C141      1.0  0.34533  0.31694  0.85455  1.0000
  C   C142      1.0  0.35905  0.28597  0.85224  1.0000
  C   C143      1.0  0.34528  0.26038  0.86242  1.0000
  C   C144      1.0  0.31760  0.26627  0.87487  1.0000
  C   C145      1.0  0.30396  0.29724  0.87724  1.0000
  H   H140      1.0  0.35627  0.33649  0.84658  1.0000
  H   H141      1.0  0.38027  0.28189  0.84259  1.0000
  H   H142      1.0  0.30673  0.24665  0.88281  1.0000
  H   H143      1.0  0.28307  0.30130  0.88708  1.0000
  C   C146      1.0  0.07230  0.43563  0.85581  1.0000
  C   C147      1.0  0.10647  0.44370  0.86049  1.0000
  C   C148      1.0  0.12484  0.42583  0.87377  1.0000
  C   C149      1.0  0.10984  0.39873  0.88182  1.0000
  C   C150      1.0  0.07554  0.39063  0.87721  1.0000
  C   C151      1.0  0.05658  0.40932  0.86440  1.0000
  H   H144      1.0  0.11868  0.46419  0.85403  1.0000
  H   H145      1.0  0.15075  0.43293  0.87757  1.0000
  H   H146      1.0  0.06368  0.36975  0.88344  1.0000
  H   H147      1.0  0.03023  0.40286  0.86080  1.0000
  C   C152      1.0  0.32965  0.30431  0.93073  1.0000
  C   C153      1.0  0.33899  0.00541  0.92991  1.0000
  C   C154      1.0  0.04300  0.45661  0.74796  1.0000
  C   C155      1.0  0.04625  0.47022  0.72991  1.0000
  C   C156      1.0  0.47269  0.15870  0.68257  1.0000
  H   H148      1.0  0.02596  0.48018  0.88430  1.0000
  H   H149      1.0  0.42279  0.01522  0.86751  1.0000
  H   H150      1.0  0.06095  0.43835  0.75227  1.0000
  C   C157      1.0  0.20661  0.38409  0.82959  1.0000
  H   H151      1.0  0.20202  0.44366  0.68783  1.0000
  H   H152      1.0  0.31887  0.28419  0.93834  1.0000
  H   H153      1.0  0.14783  0.42693  0.70516  1.0000
  S   S57       1.0  0.44171  0.18252  0.77377  1.0000
  H   H154      1.0  0.32814  0.38519  0.93019  1.0000
  H   H155      1.0  0.24414  0.35507  0.84368  1.0000
  H   H156      1.0  0.35882  0.27510  0.91123  1.0000
  H   H157      1.0  0.18848  0.48219  0.86351  1.0000
  C   C158      1.0  0.36522  0.32541  0.90573  1.0000
  H   H158      1.0  0.38204  0.32116  0.89371  1.0000
  C   C159      1.0  0.37413  0.04408  0.91350  1.0000
  N   N11       1.0  0.17974  0.39716  0.68795  1.0000
  C   C160      1.0  0.47262  0.12833  0.69071  1.0000
  H   H159      1.0  0.22580  0.39656  0.82120  1.0000
  N   N12       1.0  0.35594  0.35583  0.91067  1.0000
  H   H160      1.0  0.22215  0.41552  0.70380  1.0000
  S   S58       1.0  0.46722  0.01756  0.66725  1.0000
  C   C161      1.0  0.21684  0.36062  0.84237  1.0000
  S   S59       1.0  0.21903  0.41315  0.87847  1.0000
  C   C162      1.0  0.20407  0.32180  0.86726  1.0000
  S   S60       1.0  0.27935  0.42581  0.90947  1.0000
  C   C163      1.0  0.44216  0.08084  0.70263  1.0000
  C   C164      1.0  0.37002  0.38298  0.90017  1.0000
  C   C165      1.0  0.47977  0.18404  0.74088  1.0000
  S   S61       1.0  0.44950  0.21495  0.82615  1.0000
  H   H161      1.0  0.30368  0.33983  0.94777  1.0000
  H   H162      1.0  0.22931  0.41347  0.67852  1.0000
  H   H163      1.0  0.44105  0.19676  0.67189  1.0000
  C   C166      1.0  0.01653  0.46618  0.76046  1.0000
  H   H164      1.0  0.08764  0.48104  0.89428  1.0000
  H   H165      1.0  0.10255  0.48893  0.81159  1.0000
  H   H166      1.0  0.20213  0.29755  0.86089  1.0000
  H   H167      1.0  0.12011  0.38152  0.83806  1.0000
  H   H168      1.0  0.46834  0.00452  0.81278  1.0000
  H   H169      1.0  0.46897  0.00759  0.83830  1.0000
  H   H170      1.0  0.13951  0.34042  0.86047  1.0000
  C   C167      1.0  0.14737  0.37559  0.83900  1.0000
  H   H171      1.0  0.16333  0.41031  0.81846  1.0000
  C   C168      1.0  0.41125  0.12709  0.69033  1.0000
  C   C169      1.0  0.34494  0.05364  0.90349  1.0000
  H   H172      1.0  0.18778  0.32290  0.88021  1.0000
  N   N13       1.0  0.31070  0.01432  0.91963  1.0000
  N   N14       1.0  0.44211  0.11269  0.69414  1.0000
  H   H173      1.0  0.04345  0.49168  0.79828  1.0000
  C   C170      1.0  0.15852  0.35240  0.85170  1.0000
  S   S62       1.0  0.27152  0.39973  0.96039  1.0000
  N   N15       1.0  0.19294  0.34573  0.85356  1.0000
  C   C171      1.0  0.41039  0.15766  0.68250  1.0000
  H   H174      1.0  0.23123  0.32617  0.87181  1.0000
  C   C172      1.0  0.44134  0.17336  0.67840  1.0000
  C   C173      1.0  0.12056  0.38511  0.69550  1.0000
  Fe  Fe31      1.0  0.99330  0.46211  0.83491  1.0000
  H   H175      1.0  0.34649  0.99831  0.81883  1.0000
  H   H176      1.0  0.39901  0.05517  0.91071  1.0000
  Fe  Fe32      1.0  0.23168  0.45144  0.89971  1.0000
  C   C174      1.0  0.17165  0.39176  0.82803  1.0000
  H   H177      1.0  0.34706  0.07204  0.89281  1.0000
  H   H178      1.0  0.46744  0.06874  0.70087  1.0000
  C   C175      1.0  0.18198  0.36941  0.67769  1.0000
  C   C176      1.0  0.27005  0.39880  0.99927  1.0000
  H   H179      1.0  0.48445  0.08712  0.87247  1.0000
  C   C177      1.0  0.20988  0.41840  0.68974  1.0000
  C   C178      1.0  0.14967  0.40496  0.69698  1.0000
  C   C179      1.0  0.37119  0.01989  0.92687  1.0000
  C   C180      1.0  0.99310  0.48982  0.75516  1.0000
  H   H180      1.0  0.43627  0.08260  0.71796  1.0000
  C   C181      1.0  0.15322  0.34926  0.67564  1.0000
  C   C182      1.0  0.12231  0.35726  0.68460  1.0000
  S   S63       1.0  0.46344  0.99655  0.72009  1.0000
  C   C183      1.0  0.27715  0.99867  0.92256  1.0000
  H   H181      1.0  0.09965  0.34208  0.68295  1.0000
  H   H182      1.0  0.29609  0.40826  0.99840  1.0000
  H   H183      1.0  0.45834  0.19743  0.73521  1.0000
  C   C184      1.0  0.36916  0.00135  0.86964  1.0000
  H   H184      1.0  0.20575  0.36324  0.67043  1.0000
  H   H185      1.0  0.40621  0.01890  0.81521  1.0000
  Fe  Fe33      1.0  0.48080  0.17801  0.84129  1.0000
  C   C185      1.0  0.47825  0.17311  0.75963  1.0000
  S   S64       1.0  0.14271  0.48775  0.67470  1.0000
  C   C186      1.0  0.02269  0.49376  0.72455  1.0000
  H   H186      1.0  0.15486  0.32793  0.66687  1.0000
  C   C187      1.0  0.40211  0.99527  0.82105  1.0000
  H   H187      1.0  0.36249  0.95430  0.13589  1.0000
  C   C188      1.0  0.22405  0.60562  0.16957  1.0000
  C   C189      1.0  0.22611  0.63029  0.15640  1.0000
  C   C190      1.0  0.46182  0.94576  0.12170  1.0000
  H   H188      1.0  0.45406  0.81283  0.07075  1.0000
  C   C191      1.0  0.26350  0.82897  0.04426  1.0000
  C   C192      1.0  0.02863  0.58015  0.26453  1.0000
  C   C193      1.0  0.10957  0.58934  0.29310  1.0000
  H   H189      1.0  0.09356  0.51557  0.16490  1.0000
  C   C194      1.0  0.48968  0.96784  0.23642  1.0000
  Fe  Fe34      1.0  0.07008  0.66441  0.14750  1.0000
  S   S65       1.0  0.07079  0.63032  0.17183  1.0000
  S   S66       1.0  0.02147  0.66067  0.12997  1.0000
  Fe  Fe35      1.0  0.14326  0.68905  0.15486  1.0000
  S   S67       1.0  0.14840  0.65715  0.18032  1.0000
  S   S68       1.0  0.19391  0.71293  0.14538  1.0000
  Fe  Fe36      1.0  0.12459  0.61869  0.16209  1.0000
  S   S69       1.0  0.14315  0.56717  0.16312  1.0000
  Fe  Fe37      1.0  0.09401  0.67137  0.18795  1.0000
  S   S70       1.0  0.07907  0.68639  0.21802  1.0000
  S   S71       1.0  0.12205  0.64932  0.13637  1.0000
  S   S72       1.0  0.09058  0.70662  0.16398  1.0000
  C   C195      1.0  0.42547  0.86912  0.05695  1.0000
  C   C196      1.0  0.19060  0.49771  0.13237  1.0000
  S   S73       1.0  0.31892  0.90069  0.12117  1.0000
  S   S74       1.0  0.32942  0.84612  0.08813  1.0000
  S   S75       1.0  0.23309  0.84963  0.11102  1.0000
  H   H190      1.0  0.40541  0.91489  0.16288  1.0000
  S   S76       1.0  0.41041  0.86154  0.12150  1.0000
  C   C197      1.0  0.20397  0.75116  0.13581  1.0000
  C   C198      1.0  0.17879  0.77434  0.13261  1.0000
  C   C199      1.0  0.18825  0.80431  0.12511  1.0000
  C   C200      1.0  0.22292  0.81154  0.12070  1.0000
  C   C201      1.0  0.24805  0.78825  0.12371  1.0000
  C   C202      1.0  0.23860  0.75831  0.13124  1.0000
  H   H191      1.0  0.15208  0.76930  0.13606  1.0000
  H   H192      1.0  0.16855  0.82212  0.12290  1.0000
  H   H193      1.0  0.27481  0.79339  0.12043  1.0000
  H   H194      1.0  0.25837  0.74067  0.13371  1.0000
  C   C203      1.0  0.04440  0.67563  0.23335  1.0000
  C   C204      1.0  0.01945  0.65261  0.22846  1.0000
  H   H195      1.0  0.02143  0.63982  0.21519  1.0000
  C   C205      1.0  0.99958  0.68930  0.18533  1.0000
  C   C206      1.0  0.01465  0.68387  0.26362  1.0000
  C   C207      1.0  0.04188  0.69099  0.25105  1.0000
  C   C208      1.0  0.08518  0.57800  0.28004  1.0000
  H   H196      1.0  0.15668  0.87146  0.06611  1.0000
  H   H197      1.0  0.06107  0.70871  0.25506  1.0000
  C   C209      1.0  0.20052  0.51321  0.11579  1.0000
  H   H198      1.0  0.29200  0.81155  0.32425  1.0000
  C   C210      1.0  0.17227  0.51436  0.14649  1.0000
  C   C211      1.0  0.16317  0.54652  0.14410  1.0000
  C   C212      1.0  0.17195  0.56173  0.12721  1.0000
  C   C213      1.0  0.19080  0.54519  0.11319  1.0000
  H   H199      1.0  0.25956  0.78723  0.06178  1.0000
  H   H200      1.0  0.23293  0.50072  0.05688  1.0000
  H   H201      1.0  0.16504  0.58644  0.12516  1.0000
  H   H202      1.0  0.19820  0.55736  0.10038  1.0000
  C   C214      1.0  0.24866  0.81026  0.05835  1.0000
  H   H203      1.0  0.05111  0.51664  0.23383  1.0000
  C   C215      1.0  0.43595  0.92252  0.11967  1.0000
  C   C216      1.0  0.44179  0.89134  0.12562  1.0000
  C   C217      1.0  0.04579  0.61831  0.28942  1.0000
  C   C218      1.0  0.47343  0.88377  0.13420  1.0000
  N   N16       1.0  0.20701  0.85138  0.06455  1.0000
  H   H204      1.0  0.41149  0.92888  0.11353  1.0000
  H   H205      1.0  0.00639  0.49688  0.21129  1.0000
  C   C219      1.0  0.22152  0.86994  0.05082  1.0000
  H   H206      1.0  0.12472  0.52593  0.19510  1.0000
  H   H207      1.0  0.46548  0.92367  0.17395  1.0000
  H   H208      1.0  0.01313  0.69601  0.27715  1.0000
  N   N17       1.0  0.23895  0.62474  0.13869  1.0000
  C   C220      1.0  0.25017  0.59493  0.13363  1.0000
  C   C221      1.0  0.24879  0.56977  0.14651  1.0000
  C   C222      1.0  0.23903  0.65073  0.12494  1.0000
  H   H209      1.0  0.25939  0.59015  0.11944  1.0000
  H   H210      1.0  0.25656  0.54591  0.14224  1.0000
  H   H211      1.0  0.25397  0.64469  0.11204  1.0000
  H   H212      1.0  0.21199  0.65634  0.12078  1.0000
  H   H213      1.0  0.25067  0.67269  0.13130  1.0000
  S   S77       1.0  0.45089  0.97043  0.26905  1.0000
  Fe  Fe38      1.0  0.32982  0.88606  0.06688  1.0000
  H   H214      1.0  0.46508  0.96900  0.22916  1.0000
  H   H215      1.0  0.27830  0.77121  0.32706  1.0000
  C   C223      1.0  0.17802  0.86402  0.07558  1.0000
  H   H216      1.0  0.40957  0.90455  0.03677  1.0000
  Fe  Fe39      1.0  0.32106  0.93704  0.09803  1.0000
  H   H217      1.0  0.02098  0.62988  0.28809  1.0000
  C   C224      1.0  0.06964  0.63041  0.30254  1.0000
  H   H218      1.0  0.39086  0.98466  0.10287  1.0000
  C   C225      1.0  0.46330  0.97474  0.17072  1.0000
  C   C226      1.0  0.26900  0.79550  0.32345  1.0000
  H   H219      1.0  0.18700  0.88481  0.08421  1.0000
  H   H220      1.0  0.06330  0.65109  0.31117  1.0000
  H   H221      1.0  0.00186  0.58802  0.26788  1.0000
  H   H222      1.0  0.48188  0.88088  0.09255  1.0000
  H   H223      1.0  0.03554  0.58928  0.25032  1.0000
  H   H224      1.0  0.34373  0.97998  0.15348  1.0000
  H   H225      1.0  0.44666  0.94729  0.05102  1.0000
  C   C227      1.0  0.00793  0.56126  0.13083  1.0000
  C   C228      1.0  0.24985  0.85898  0.04041  1.0000
  H   H226      1.0  0.21164  0.89365  0.04810  1.0000
  S   S78       1.0  0.36743  0.91637  0.08352  1.0000
  H   H227      1.0  0.02562  0.58233  0.13072  1.0000
  H   H228      1.0  0.12019  0.62448  0.31480  1.0000
  C   C229      1.0  0.31760  0.91633  0.01304  1.0000
  H   H229      1.0  0.99163  0.62878  0.17897  1.0000
  H   H230      1.0  0.47809  0.85963  0.13888  1.0000
  C   C230      1.0  0.09102  0.49905  0.17658  1.0000
  H   H231      1.0  0.16764  0.84609  0.08565  1.0000
  C   C231      1.0  0.33194  0.88590  0.01460  1.0000
  H   H232      1.0  0.02853  0.55358  0.26417  1.0000
  C   C232      1.0  0.44359  0.83079  0.08080  1.0000
  S   S79       1.0  0.39745  0.98737  0.31615  1.0000
  H   H233      1.0  0.13439  0.57763  0.29453  1.0000
  S   S80       1.0  0.07822  0.51217  0.32093  1.0000
  C   C233      1.0  0.44945  0.94389  0.17031  1.0000
  H   H234      1.0  0.09166  0.55767  0.27119  1.0000
  H   H235      1.0  0.20924  0.80739  0.07956  1.0000
  S   S81       1.0  0.45786  0.93208  0.32191  1.0000
  H   H236      1.0  0.21690  0.65384  0.16033  1.0000
  C   C234      1.0  0.10162  0.61564  0.30448  1.0000
  H   H237      1.0  0.45721  0.96969  0.11683  1.0000
  H   H238      1.0  0.31173  0.92999  0.02566  1.0000
  S   S82       1.0  0.28304  0.90976  0.07953  1.0000
  C   C235      1.0  0.10863  0.50474  0.19350  1.0000
  C   C236      1.0  0.42596  0.89949  0.04886  1.0000
  N   N18       1.0  0.05356  0.59220  0.27853  1.0000
  C   C237      1.0  0.22012  0.82181  0.06833  1.0000
  H   H239      1.0  0.02501  0.72807  0.14166  1.0000
  H   H240      1.0  0.26172  0.87391  0.02973  1.0000
  S   S83       1.0  0.34091  0.86829  0.03685  1.0000
  C   C238      1.0  0.23538  0.57518  0.16454  1.0000
  N   N19       1.0  0.44517  0.86274  0.07252  1.0000
  H   H241      1.0  0.25889  0.79555  0.30877  1.0000
  Fe  Fe40      1.0  0.28488  0.87138  0.10184  1.0000
  H   H242      1.0  0.21271  0.60988  0.18337  1.0000
  C   C239      1.0  0.99970  0.72307  0.13581  1.0000
  Fe  Fe41      1.0  0.36331  0.87858  0.10569  1.0000
  H   H243      1.0  0.28595  0.82056  0.03655  1.0000
  C   C240      1.0  0.41540  0.93911  0.16412  1.0000
  C   C241      1.0  0.46700  0.91661  0.07264  1.0000
  Fe  Fe42      1.0  0.44634  0.97159  0.30127  1.0000
  N   N20       1.0  0.39542  0.96450  0.15905  1.0000
  H   H244      1.0  0.23266  0.55558  0.17437  1.0000
  H   H245      1.0  0.02143  0.67473  0.18914  1.0000
  H   H246      1.0  0.99503  0.56005  0.14483  1.0000
  C   C242      1.0  0.46615  0.88586  0.08023  1.0000
  H   H247      1.0  0.02381  0.73209  0.19631  1.0000
  C   C243      1.0  0.36070  0.95891  0.15134  1.0000
  H   H248      1.0  0.40869  0.85084  0.05089  1.0000
  H   H249      1.0  0.34794  0.93814  0.15815  1.0000
  H   H250      1.0  0.16560  0.50230  0.15946  1.0000
  C   C244      1.0  0.44669  0.92343  0.05687  1.0000
  H   H251      1.0  0.21130  0.76369  0.33134  1.0000
  H   H252      1.0  0.48294  0.93507  0.07919  1.0000
  S   S84       1.0  0.31566  0.98927  0.10669  1.0000
  H   H253      1.0  0.41636  0.82459  0.08433  1.0000
  H   H254      1.0  0.45846  0.82951  0.09425  1.0000
  C   C245      1.0  0.99173  0.69239  0.12903  1.0000
  H   H255      1.0  0.02396  0.53952  0.12889  1.0000
  C   C246      1.0  0.00113  0.72199  0.18936  1.0000
  Fe  Fe43      1.0  0.13338  0.51576  0.33048  1.0000
  C   C247      1.0  0.99187  0.64588  0.24089  1.0000
  H   H256      1.0  0.49017  0.97855  0.17461  1.0000
  C   C248      1.0  0.03721  0.49477  0.23684  1.0000
  C   C249      1.0  0.49036  0.96750  0.25632  1.0000
  Fe  Fe44      1.0  0.25709  0.77694  0.59542  1.0000
  S   S85       1.0  0.20737  0.79099  0.58106  1.0000
  S   S86       1.0  0.29923  0.81587  0.59598  1.0000
  Fe  Fe45      1.0  0.23050  0.70808  0.60169  1.0000
  S   S87       1.0  0.18000  0.71776  0.58770  1.0000
  S   S88       1.0  0.23990  0.65905  0.61439  1.0000
  Fe  Fe46      1.0  0.21077  0.74393  0.56559  1.0000
  S   S89       1.0  0.19212  0.73577  0.53522  1.0000
  Fe  Fe47      1.0  0.18120  0.76360  0.60419  1.0000
  S   S90       1.0  0.13701  0.78209  0.62201  1.0000
  S   S91       1.0  0.26202  0.73101  0.57844  1.0000
  S   S92       1.0  0.23040  0.75269  0.61969  1.0000
  H   H257      1.0  0.32017  0.89876  0.38145  1.0000
  C   C250      1.0  0.21360  0.78603  0.33911  1.0000
  H   H258      1.0  0.29690  0.94369  0.63765  1.0000
  C   C251      1.0  0.08078  0.60103  0.59928  1.0000
  C   C252      1.0  0.08286  0.56965  0.60561  1.0000
  H   H259      1.0  0.32546  0.69023  0.44778  1.0000
  H   H260      1.0  0.10531  0.55523  0.60232  1.0000
  H   H261      1.0  0.15675  0.76417  0.44413  1.0000
  Fe  Fe48      1.0  0.19523  0.75835  0.39964  1.0000
  S   S93       1.0  0.22524  0.73371  0.37669  1.0000
  S   S94       1.0  0.14109  0.77698  0.39600  1.0000
  Fe  Fe49      1.0  0.25195  0.75090  0.42886  1.0000
  S   S95       1.0  0.28622  0.72523  0.40814  1.0000
  S   S96       1.0  0.27206  0.76202  0.45842  1.0000
  Fe  Fe50      1.0  0.27053  0.76312  0.38738  1.0000
  S   S97       1.0  0.30870  0.78369  0.36587  1.0000
  Fe  Fe51      1.0  0.23798  0.69837  0.39929  1.0000
  S   S98       1.0  0.23478  0.64405  0.39794  1.0000
  S   S99       1.0  0.23918  0.79050  0.40866  1.0000
  S   S100      1.0  0.20521  0.72142  0.42169  1.0000
  H   H262      1.0  0.10157  0.61119  0.59093  1.0000
  H   H263      1.0  0.31694  0.85303  0.66197  1.0000
  H   H264      1.0  0.05805  0.53284  0.62164  1.0000
  H   H265      1.0  0.38412  0.86425  0.33631  1.0000
  C   C253      1.0  0.16369  0.80167  0.49790  1.0000
  H   H266      1.0  0.11928  0.68143  0.35747  1.0000
  N   N21       1.0  0.04397  0.58731  0.36708  1.0000
  H   H267      1.0  0.17170  0.80071  0.43372  1.0000
  C   C254      1.0  0.24771  0.65253  0.44937  1.0000
  C   C255      1.0  0.15246  0.59545  0.63767  1.0000
  H   H268      1.0  0.00616  0.55032  0.36561  1.0000
  C   C256      1.0  0.27866  0.66414  0.44197  1.0000
  H   H269      1.0  0.09557  0.57137  0.36218  1.0000
  S   S101      1.0  0.41663  0.98109  0.63654  1.0000
  C   C257      1.0  0.21041  0.62313  0.38046  1.0000
  H   H270      1.0  0.21782  0.57738  0.39357  1.0000
  C   C258      1.0  0.19542  0.63892  0.36519  1.0000
  C   C259      1.0  0.09475  0.61534  0.37793  1.0000
  H   H271      1.0  0.19827  0.66452  0.36397  1.0000
  C   C260      1.0  0.11460  0.75078  0.38264  1.0000
  C   C261      1.0  0.07971  0.75800  0.37929  1.0000
  C   C262      1.0  0.05890  0.73735  0.36821  1.0000
  C   C263      1.0  0.07324  0.70981  0.36020  1.0000
  C   C264      1.0  0.10806  0.70275  0.36358  1.0000
  C   C265      1.0  0.12846  0.72283  0.37498  1.0000
  H   H272      1.0  0.06926  0.66678  0.65718  1.0000
  S   S102      1.0  0.15061  0.56768  0.33421  1.0000
  S   S103      1.0  0.36061  0.90859  0.66026  1.0000
  H   H273      1.0  0.15495  0.71657  0.37775  1.0000
  C   C266      1.0  0.32683  0.82282  0.36408  1.0000
  C   C267      1.0  0.31580  0.84820  0.37549  1.0000
  C   C268      1.0  0.32908  0.87928  0.37262  1.0000
  C   C269      1.0  0.35388  0.88544  0.35852  1.0000
  C   C270      1.0  0.36517  0.85998  0.34723  1.0000
  C   C271      1.0  0.35158  0.82894  0.34995  1.0000
  H   H274      1.0  0.29679  0.84399  0.38639  1.0000
  H   H275      1.0  0.02187  0.65596  0.38932  1.0000
  H   H276      1.0  0.03205  0.74298  0.36561  1.0000
  Fe  Fe52      1.0  0.41137  0.95050  0.33819  1.0000
  C   C272      1.0  0.03813  0.63692  0.38399  1.0000
  Fe  Fe53      1.0  0.47056  0.97508  0.64802  1.0000
  C   C273      1.0  0.15096  0.79363  0.47994  1.0000
  Fe  Fe54      1.0  0.11520  0.52210  0.65559  1.0000
  H   H277      1.0  0.04634  0.54054  0.35477  1.0000
  C   C274      1.0  0.21613  0.74103  0.51423  1.0000
  C   C275      1.0  0.24849  0.75605  0.51421  1.0000
  C   C276      1.0  0.26540  0.76208  0.49698  1.0000
  C   C277      1.0  0.25025  0.75295  0.47967  1.0000
  C   C278      1.0  0.21822  0.73733  0.47970  1.0000
  C   C279      1.0  0.20130  0.73135  0.49692  1.0000
  H   H278      1.0  0.26010  0.76366  0.52745  1.0000
  H   H279      1.0  0.29016  0.77426  0.49708  1.0000
  H   H280      1.0  0.20638  0.73007  0.46648  1.0000
  H   H281      1.0  0.17625  0.71969  0.49686  1.0000
  C   C280      1.0  0.20554  0.63380  0.62186  1.0000
  C   C281      1.0  0.21316  0.60425  0.63017  1.0000
  C   C282      1.0  0.17100  0.64336  0.62077  1.0000
  C   C283      1.0  0.18674  0.58503  0.63793  1.0000
  H   H282      1.0  0.16466  0.66600  0.61447  1.0000
  C   C284      1.0  0.09904  0.75871  0.62017  1.0000
  C   C285      1.0  0.07367  0.76000  0.63435  1.0000
  C   C286      1.0  0.04475  0.73933  0.63362  1.0000
  C   C287      1.0  0.04092  0.71787  0.61847  1.0000
  C   C288      1.0  0.06568  0.71749  0.60406  1.0000
  C   C289      1.0  0.09452  0.73779  0.60491  1.0000
  H   H283      1.0  0.07682  0.77641  0.64612  1.0000
  H   H284      1.0  0.02554  0.73997  0.64471  1.0000
  H   H285      1.0  0.06250  0.70155  0.59208  1.0000
  H   H286      1.0  0.11288  0.73767  0.59348  1.0000
  C   C290      1.0  0.31882  0.83904  0.61441  1.0000
  C   C291      1.0  0.31015  0.83518  0.63345  1.0000
  C   C292      1.0  0.32428  0.85592  0.64733  1.0000
  C   C293      1.0  0.34725  0.88075  0.64243  1.0000
  C   C294      1.0  0.35665  0.88405  0.62346  1.0000
  C   C295      1.0  0.34251  0.86332  0.60957  1.0000
  H   H287      1.0  0.29230  0.81647  0.63747  1.0000
  H   H288      1.0  0.05027  0.64394  0.59930  1.0000
  H   H289      1.0  0.37422  0.90299  0.61942  1.0000
  H   H290      1.0  0.34953  0.86648  0.59491  1.0000
  H   H291      1.0  0.12634  0.78122  0.47880  1.0000
  C   C296      1.0  0.20635  0.58979  0.38180  1.0000
  C   C297      1.0  0.30186  0.68053  0.45378  1.0000
  S   S104      1.0  0.00628  0.69054  0.61687  1.0000
  C   C298      1.0  0.15628  0.79059  0.44552  1.0000
  C   C299      1.0  0.31996  0.70141  0.48462  1.0000
  C   C300      1.0  0.21479  0.82360  0.48331  1.0000
  H   H292      1.0  0.28912  0.92417  0.60462  1.0000
  C   C301      1.0  0.07922  0.58952  0.36846  1.0000
  H   H293      1.0  0.06880  0.77959  0.38519  1.0000
  C   C302      1.0  0.18754  0.79451  0.35187  1.0000
  C   C303      1.0  0.24055  0.65697  0.46854  1.0000
  C   C304      1.0  0.07400  0.63908  0.38579  1.0000
  H   H294      1.0  0.11842  0.63303  0.62877  1.0000
  H   H295      1.0  0.22271  0.86420  0.36791  1.0000
  H   H296      1.0  0.36033  0.80955  0.34102  1.0000
  C   C305      1.0  0.02347  0.61077  0.37446  1.0000
  H   H297      1.0  0.12927  0.79887  0.44360  1.0000
  H   H298      1.0  0.01753  0.56820  0.34328  1.0000
  C   C306      1.0  0.23974  0.88311  0.64510  1.0000
  H   H299      1.0  0.18503  0.54673  0.36904  1.0000
  H   H300      1.0  0.32683  0.72489  0.47834  1.0000
  H   H301      1.0  0.25101  0.87765  0.59813  1.0000
  H   H302      1.0  0.00398  0.62088  0.61912  1.0000
  C   C307      1.0  0.26462  0.67298  0.48005  1.0000
  N   N22       1.0  0.29470  0.68472  0.47256  1.0000
  H   H303      1.0  0.10707  0.71051  0.64981  1.0000
  C   C308      1.0  0.26135  0.90922  0.64919  1.0000
  C   C309      1.0  0.21969  0.84233  0.35975  1.0000
  H   H304      1.0  0.17106  0.82912  0.37257  1.0000
  H   H305      1.0  0.34369  0.68686  0.48607  1.0000
  H   H306      1.0  0.21643  0.64828  0.47444  1.0000
  H   H307      1.0  0.19765  0.84789  0.61036  1.0000
  C   C310      1.0  0.18782  0.57235  0.36790  1.0000
  C   C311      1.0  0.17355  0.58812  0.35241  1.0000
  C   C312      1.0  0.05625  0.55721  0.61677  1.0000
  C   C313      1.0  0.20144  0.81499  0.46558  1.0000
  H   H308      1.0  0.30953  0.70633  0.49899  1.0000
  N   N23       1.0  0.02871  0.57571  0.62180  1.0000
  H   H309      1.0  0.21715  0.81910  0.45313  1.0000
  H   H310      1.0  0.25866  0.67663  0.49490  1.0000
  C   C314      1.0  0.17732  0.62147  0.35121  1.0000
  H   H311      1.0  0.12268  0.61718  0.37889  1.0000
  N   N24       1.0  0.16975  0.80043  0.46408  1.0000
  C   C315      1.0  0.19580  0.81677  0.49955  1.0000
  H   H312      1.0  0.24043  0.83413  0.48447  1.0000
  S   S105      1.0  0.11944  0.57575  0.65057  1.0000
  C   C316      1.0  0.14472  0.62446  0.62881  1.0000
  H   H313      1.0  0.20651  0.82199  0.51344  1.0000
  H   H314      1.0  0.19316  0.56288  0.64484  1.0000
  H   H315      1.0  0.28444  0.66069  0.42708  1.0000
  H   H316      1.0  0.23977  0.59656  0.63102  1.0000
  C   C317      1.0  0.05218  0.61949  0.60411  1.0000
  N   N25       1.0  0.23557  0.87256  0.62687  1.0000
  C   C318      1.0  0.02782  0.56029  0.35713  1.0000
  C   C319      1.0  0.25278  0.88719  0.61242  1.0000
  C   C320      1.0  0.27879  0.92441  0.63452  1.0000
  C   C321      1.0  0.27447  0.91343  0.61600  1.0000
  H   H317      1.0  0.19768  0.83730  0.63479  1.0000
  C   C322      1.0  0.19081  0.82271  0.36235  1.0000
  H   H318      1.0  0.22933  0.64028  0.44017  1.0000
  H   H319      1.0  0.08573  0.65964  0.39274  1.0000
  H   H320      1.0  0.14947  0.79509  0.51054  1.0000
  S   S106      1.0  0.04930  0.68304  0.34597  1.0000
  Fe  Fe55      1.0  0.48750  0.97006  0.33792  1.0000
  Fe  Fe56      1.0  0.40194  0.94834  0.66055  1.0000
  C   C323      1.0  0.12858  0.69665  0.65493  1.0000
  H   H321      1.0  0.16528  0.77898  0.35395  1.0000
  C   C324      1.0  0.00097  0.56224  0.63340  1.0000
  S   S107      1.0  0.36868  0.92549  0.35531  1.0000
  S   S108      1.0  0.44273  0.98595  0.35563  1.0000
  C   C325      1.0  0.16224  0.70696  0.65099  1.0000
  H   H322      1.0  0.26583  0.91680  0.66370  1.0000
  H   H323      1.0  0.16633  0.63398  0.33934  1.0000
  N   N26       1.0  0.24197  0.80527  0.33677  1.0000
  C   C326      1.0  0.02615  0.60635  0.61541  1.0000
  H   H324      1.0  0.22718  0.87080  0.65665  1.0000
  C   C327      1.0  0.21469  0.84400  0.62278  1.0000
  H   H325      1.0  0.16652  0.72840  0.64278  1.0000
  C   C328      1.0  0.24500  0.83335  0.34668  1.0000
  H   H326      1.0  0.26745  0.84867  0.34482  1.0000
  C   C329      1.0  0.19019  0.68887  0.65715  1.0000
  H   H327      1.0  0.23207  0.82365  0.61963  1.0000
  H   H328      1.0  0.21640  0.69578  0.65341  1.0000
  H   H329      1.0  0.01039  0.54220  0.64216  1.0000
  H   H330      1.0  0.99559  0.60949  0.37282  1.0000
  N   N27       1.0  0.12285  0.66900  0.66463  1.0000
  Fe  Fe57      1.0  0.99170  0.68212  0.34055  1.0000
  C   C330      1.0  0.01019  0.65950  0.72083  1.0000
  C   C331      1.0  0.06234  0.51000  0.79485  1.0000
  H   H331      1.0  0.07629  0.71729  0.88011  1.0000
  S   S109      1.0  0.31895  0.88965  0.87193  1.0000
  C   C332      1.0  0.04448  0.79091  0.87357  1.0000
  C   C333      1.0  0.18416  0.66109  0.66744  1.0000
  C   C334      1.0  0.09783  0.52703  0.88194  1.0000
  H   H332      1.0  0.35055  0.84501  0.99903  1.0000
  C   C335      1.0  0.01736  0.68871  0.75653  1.0000
  H   H333      1.0  0.14559  0.62940  0.67867  1.0000
  Fe  Fe58      1.0  0.06455  0.67120  0.83890  1.0000
  S   S110      1.0  0.07178  0.62956  0.81949  1.0000
  S   S111      1.0  0.23142  0.50512  0.89495  1.0000
  Fe  Fe59      1.0  0.13092  0.70275  0.82656  1.0000
  S   S112      1.0  0.14319  0.66254  0.80605  1.0000
  S   S113      1.0  0.16413  0.74838  0.82778  1.0000
  Fe  Fe60      1.0  0.08709  0.66470  0.79738  1.0000
  S   S114      1.0  0.07153  0.64902  0.76736  1.0000
  Fe  Fe61      1.0  0.12672  0.62961  0.82946  1.0000
  S   S115      1.0  0.14254  0.57765  0.83283  1.0000
  S   S116      1.0  0.07552  0.70708  0.81622  1.0000
  S   S117      1.0  0.11857  0.66935  0.85056  1.0000
  H   H334      1.0  0.07145  0.57801  0.76953  1.0000
  H   H335      1.0  0.31769  0.74817  0.90611  1.0000
  Fe  Fe62      1.0  0.36163  0.88608  0.89333  1.0000
  S   S118      1.0  0.41254  0.86821  0.88178  1.0000
  C   C336      1.0  0.02884  0.52655  0.87121  1.0000
  S   S119      1.0  0.24828  0.82397  0.89246  1.0000
  S   S120      1.0  0.32905  0.86033  0.91483  1.0000
  C   C337      1.0  0.18716  0.76905  0.84607  1.0000
  C   C338      1.0  0.20518  0.79735  0.84163  1.0000
  C   C339      1.0  0.22366  0.81473  0.85560  1.0000
  C   C340      1.0  0.22426  0.80405  0.87428  1.0000
  C   C341      1.0  0.20617  0.77579  0.87873  1.0000
  C   C342      1.0  0.18783  0.75833  0.86475  1.0000
  H   H336      1.0  0.20478  0.80594  0.82725  1.0000
  H   H337      1.0  0.23739  0.83637  0.85190  1.0000
  H   H338      1.0  0.20651  0.76721  0.89312  1.0000
  H   H339      1.0  0.17435  0.73656  0.86843  1.0000
  C   C343      1.0  0.03974  0.66396  0.75150  1.0000
  C   C344      1.0  0.03595  0.64943  0.73359  1.0000
  C   C345      1.0  0.03422  0.73747  0.89578  1.0000
  H   H340      1.0  0.02486  0.50455  0.71077  1.0000
  S   S121      1.0  0.31038  0.92984  0.95613  1.0000
  H   H341      1.0  0.46269  0.97611  0.88366  1.0000
  H   H342      1.0  0.05300  0.63018  0.72955  1.0000
  C   C346      1.0  0.36826  0.98382  0.82312  1.0000
  C   C347      1.0  0.18738  0.50798  0.86396  1.0000
  H   H343      1.0  0.10845  0.74358  0.85697  1.0000
  N   N28       1.0  0.42957  0.97764  0.82713  1.0000
  Fe  Fe63      1.0  0.31624  0.90911  0.92630  1.0000
  C   C348      1.0  0.36259  0.95445  0.83181  1.0000
  C   C349      1.0  0.20563  0.52482  0.87795  1.0000
  H   H344      1.0  0.15017  0.57362  0.76779  1.0000
  C   C350      1.0  0.16822  0.52462  0.85029  1.0000
  C   C351      1.0  0.16676  0.55818  0.85058  1.0000
  C   C352      1.0  0.18431  0.57500  0.86481  1.0000
  C   C353      1.0  0.20384  0.55837  0.87835  1.0000
  C   C354      1.0  0.04217  0.50075  0.88126  1.0000
  H   H345      1.0  0.15446  0.51137  0.83944  1.0000
  H   H346      1.0  0.18343  0.60081  0.86521  1.0000
  H   H347      1.0  0.21791  0.57156  0.88912  1.0000
  C   C355      1.0  0.44486  0.89711  0.87718  1.0000
  C   C356      1.0  0.44064  0.92882  0.88293  1.0000
  Fe  Fe64      1.0  0.44933  0.98364  0.68946  1.0000
  S   S122      1.0  0.02028  0.66475  0.85908  1.0000
  C   C357      1.0  0.03495  0.57853  0.85602  1.0000
  C   C358      1.0  0.42425  0.94858  0.83537  1.0000
  H   H348      1.0  0.41788  0.93581  0.89057  1.0000
  H   H349      1.0  0.05160  0.60021  0.85692  1.0000
  C   C359      1.0  0.13696  0.58080  0.78105  1.0000
  H   H350      1.0  0.00197  0.52595  0.86680  1.0000
  C   C360      1.0  0.46621  0.95168  0.87902  1.0000
  C   C361      1.0  0.06049  0.73834  0.88221  1.0000
  H   H351      1.0  0.07856  0.66764  0.68226  1.0000
  N   N29       1.0  0.06545  0.76495  0.87140  1.0000
  H   H352      1.0  0.48463  0.97219  0.82660  1.0000
  C   C362      1.0  0.31110  0.92929  0.99504  1.0000
  H   H353      1.0  0.38676  0.91407  0.84514  1.0000
  S   S123      1.0  0.45679  0.94013  0.67088  1.0000
  Fe  Fe65      1.0  0.30876  0.93672  0.88643  1.0000
  H   H354      1.0  0.12482  0.60451  0.77899  1.0000
  H   H355      1.0  0.08190  0.76894  0.84284  1.0000
  H   H356      1.0  0.12503  0.52725  0.88578  1.0000
  H   H357      1.0  0.02759  0.53671  0.77731  1.0000
  H   H358      1.0  0.00589  0.64498  0.78651  1.0000
  H   H359      1.0  0.00757  0.64806  0.70713  1.0000
  C   C363      1.0  0.07835  0.55852  0.77880  1.0000
  C   C364      1.0  0.01778  0.79073  0.88690  1.0000
  C   C365      1.0  0.31867  0.91200  0.97841  1.0000
  C   C366      1.0  0.08368  0.55237  0.87181  1.0000
  H   H360      1.0  0.10030  0.57219  0.86788  1.0000
  H   H361      1.0  0.14599  0.53014  0.80316  1.0000
  C   C367      1.0  0.01275  0.76385  0.89810  1.0000
  C   C368      1.0  0.09300  0.76586  0.85720  1.0000
  C   C369      1.0  0.99639  0.50355  0.73714  1.0000
  H   H362      1.0  0.26620  0.99053  0.90877  1.0000
  N   N30       1.0  0.11101  0.55671  0.78615  1.0000
  H   H363      1.0  0.44593  0.93466  0.84026  1.0000
  H   H364      1.0  0.01993  0.70025  0.77019  1.0000
  C   C370      1.0  0.47496  0.88848  0.86733  1.0000
  N   N31       1.0  0.32576  0.78211  0.88431  1.0000
  C   C371      1.0  0.35126  0.80227  0.87813  1.0000
  C   C372      1.0  0.30134  0.77056  0.87199  1.0000
  C   C373      1.0  0.35286  0.81118  0.85914  1.0000
  C   C374      1.0  0.30205  0.77908  0.85292  1.0000
  C   C375      1.0  0.32798  0.79958  0.84649  1.0000
  C   C376      1.0  0.32331  0.77402  0.90439  1.0000
  H   H365      1.0  0.37039  0.81188  0.88790  1.0000
  H   H366      1.0  0.28042  0.75550  0.87702  1.0000
  H   H367      1.0  0.37303  0.82739  0.85442  1.0000
  H   H368      1.0  0.28204  0.77045  0.84334  1.0000
  H   H369      1.0  0.32853  0.80673  0.83179  1.0000
  H   H370      1.0  0.34771  0.77956  0.91210  1.0000
  H   H371      1.0  0.30212  0.78796  0.91105  1.0000
  H   H372      1.0  0.47848  0.86396  0.86284  1.0000
  H   H373      1.0  0.33883  0.86792  0.96737  1.0000
  S   S124      1.0  0.35298  0.93410  0.90663  1.0000
  H   H374      1.0  0.27937  0.97723  0.93165  1.0000
  N   N32       1.0  0.04946  0.55208  0.86682  1.0000
  C   C377      1.0  0.07684  0.50115  0.88675  1.0000
  Fe  Fe66      1.0  0.28507  0.86727  0.89416  1.0000
  S   S125      1.0  0.39354  0.98941  0.68103  1.0000
  H   H375      1.0  0.15651  0.58396  0.79247  1.0000
  C   C378      1.0  0.33283  0.88149  0.98000  1.0000
  C   C379      1.0  0.12004  0.53168  0.79742  1.0000
  C   C380      1.0  0.33946  0.86858  0.99800  1.0000
  C   C381      1.0  0.09572  0.50824  0.80218  1.0000
  C   C382      1.0  0.39075  0.93664  0.83798  1.0000
  H   H376      1.0  0.00594  0.72771  0.84294  1.0000
  H   H377      1.0  0.00921  0.58541  0.86168  1.0000
  S   S126      1.0  0.27063  0.91501  0.90682  1.0000
  H   H378      1.0  0.11124  0.78591  0.86019  1.0000
  S   S127      1.0  0.06308  0.50786  0.66698  1.0000
  C   C383      1.0  0.15010  0.65160  0.67123  1.0000
  C   C384      1.0  0.05348  0.53529  0.78311  1.0000
  H   H379      1.0  0.03208  0.57140  0.84095  1.0000
  H   H380      1.0  0.00938  0.60121  0.76204  1.0000
  H   H381      1.0  0.33638  0.94603  0.83429  1.0000
  H   H382      1.0  0.30017  0.95292  0.99398  1.0000
  H   H383      1.0  0.04803  0.81176  0.86476  1.0000
  H   H384      1.0  0.02964  0.71597  0.90388  1.0000
  H   H385      1.0  0.33699  0.98658  0.94031  1.0000
  H   H386      1.0  0.37473  0.97929  0.87681  1.0000
  H   H387      1.0  0.00032  0.81084  0.88819  1.0000
  S   S128      1.0  0.30001  0.98327  0.87083  1.0000
  H   H388      1.0  0.20568  0.64634  0.67175  1.0000
  C   C385      1.0  0.46459  0.99112  0.82611  1.0000
  H   H389      1.0  0.99130  0.76302  0.90798  1.0000
  C   C386      1.0  0.08731  0.65835  0.66833  1.0000
  H   H390      1.0  0.08556  0.63182  0.66828  1.0000
  C   C387      1.0  0.99145  0.69862  0.74382  1.0000
  Fe  Fe67      1.0  0.90138  0.44343  0.14836  1.0000
  H   H391      1.0  0.62455  0.10352  0.10678  1.0000
  S   S129      1.0  0.85113  0.41829  0.13916  1.0000
  H   H392      1.0  0.90270  0.39667  0.20845  1.0000
  C   C388      1.0  0.54336  0.06330  0.29052  1.0000
  C   C389      1.0  0.58077  0.07978  0.11958  1.0000
  S   S130      1.0  0.92629  0.48134  0.13030  1.0000
  Fe  Fe68      1.0  0.73987  0.23023  0.05698  1.0000
  S   S131      1.0  0.77609  0.21206  0.07919  1.0000
  S   S132      1.0  0.76226  0.22407  0.02737  1.0000
  Fe  Fe69      1.0  0.68732  0.24767  0.08715  1.0000
  S   S133      1.0  0.72047  0.23161  0.11145  1.0000
  S   S134      1.0  0.63268  0.26502  0.09136  1.0000
  Fe  Fe70      1.0  0.76387  0.25634  0.09597  1.0000
  S   S135      1.0  0.81310  0.27767  0.10917  1.0000
  Fe  Fe71      1.0  0.72995  0.18910  0.09270  1.0000
  S   S136      1.0  0.73349  0.13709  0.10116  1.0000
  S   S137      1.0  0.72996  0.27599  0.07294  1.0000
  S   S138      1.0  0.69460  0.20369  0.06924  1.0000
  H   H393      1.0  0.81375  0.41183  0.17417  1.0000
  C   C390      1.0  0.66127  0.08750  0.14338  1.0000
  Fe  Fe72      1.0  0.59303  0.17529  0.30362  1.0000
  S   S139      1.0  0.58051  0.18732  0.27288  1.0000
  H   H394      1.0  0.58845  0.09272  0.23703  1.0000
  N   N33       1.0  0.85828  0.40075  0.19071  1.0000
  S   S140      1.0  0.54721  0.18784  0.15249  1.0000
  C   C391      1.0  0.66206  0.12101  0.14234  1.0000
  Fe  Fe73      1.0  0.62605  0.01518  0.16180  1.0000
  C   C392      1.0  0.54369  0.17611  0.25924  1.0000
  C   C393      1.0  0.51960  0.15338  0.26539  1.0000
  S   S141      1.0  0.89752  0.47639  0.17374  1.0000
  H   H395      1.0  0.51389  0.06289  0.14623  1.0000
  C   C394      1.0  0.51166  0.18043  0.22944  1.0000
  C   C395      1.0  0.53931  0.18976  0.24130  1.0000
  C   C396      1.0  0.87214  0.43740  0.21595  1.0000
  H   H396      1.0  0.87734  0.35322  0.18825  1.0000
  H   H397      1.0  0.55747  0.20771  0.23654  1.0000
  C   C397      1.0  0.70405  0.11870  0.11684  1.0000
  C   C398      1.0  0.68315  0.13659  0.12902  1.0000
  H   H398      1.0  0.68360  0.16239  0.12835  1.0000
  H   H399      1.0  0.64608  0.13496  0.15179  1.0000
  C   C399      1.0  0.60805  0.24267  0.10762  1.0000
  C   C400      1.0  0.62371  0.21924  0.11861  1.0000
  C   C401      1.0  0.60456  0.20282  0.13227  1.0000
  C   C402      1.0  0.56927  0.20890  0.13472  1.0000
  C   C403      1.0  0.55305  0.23148  0.12331  1.0000
  C   C404      1.0  0.57256  0.24860  0.10991  1.0000
  H   H400      1.0  0.65074  0.21404  0.11678  1.0000
  H   H401      1.0  0.61719  0.18524  0.14096  1.0000
  H   H402      1.0  0.52582  0.23634  0.12512  1.0000
  H   H403      1.0  0.56025  0.26662  0.10139  1.0000
  C   C405      1.0  0.84161  0.37935  0.13015  1.0000
  C   C406      1.0  0.86661  0.35544  0.12889  1.0000
  C   C407      1.0  0.85734  0.32451  0.12251  1.0000
  C   C408      1.0  0.82311  0.31713  0.11715  1.0000
  C   C409      1.0  0.79819  0.34113  0.11818  1.0000
  C   C410      1.0  0.80740  0.37197  0.12475  1.0000
  H   H404      1.0  0.89306  0.36069  0.13288  1.0000
  H   H405      1.0  0.87690  0.30620  0.12167  1.0000
  H   H406      1.0  0.77175  0.33589  0.11416  1.0000
  H   H407      1.0  0.78780  0.39024  0.12571  1.0000
  S   S142      1.0  0.95202  0.42238  0.15779  1.0000
  S   S143      1.0  0.57422  0.00180  0.17363  1.0000
  Fe  Fe74      1.0  0.94994  0.45779  0.18201  1.0000
  H   H408      1.0  0.71936  0.07119  0.10856  1.0000
  H   H409      1.0  0.71511  0.15256  0.33074  1.0000
  C   C411      1.0  0.59772  0.10555  0.11107  1.0000
  S   S144      1.0  0.63520  0.06924  0.32799  1.0000
  H   H410      1.0  0.55905  0.18853  0.19413  1.0000
  S   S145      1.0  0.59072  0.21072  0.32796  1.0000
  S   S146      1.0  0.56797  0.13537  0.31943  1.0000
  H   H411      1.0  0.70170  0.26288  0.01859  1.0000
  H   H412      1.0  0.53173  0.15865  0.11232  1.0000
  C   C412      1.0  0.78047  0.34689  0.06256  1.0000
  H   H413      1.0  0.50854  0.19125  0.21572  1.0000
  H   H414      1.0  0.57465  0.05412  0.21099  1.0000
  C   C413      1.0  0.84306  0.45544  0.21156  1.0000
  C   C414      1.0  0.54561  0.13643  0.11409  1.0000
  C   C415      1.0  0.58525  0.17859  0.19654  1.0000
  H   H415      1.0  0.56571  0.06586  0.29977  1.0000
  C   C416      1.0  0.52938  0.11016  0.12244  1.0000
  H   H416      1.0  0.52259  0.14277  0.27917  1.0000
  H   H417      1.0  0.84475  0.36327  0.17125  1.0000
  C   C417      1.0  0.71968  0.10318  0.32267  1.0000
  H   H418      1.0  0.59309  0.15452  0.10224  1.0000
  H   H419      1.0  0.98774  0.41631  0.24710  1.0000
  C   C418      1.0  0.74584  0.23999  0.00608  1.0000
  C   C419      1.0  0.58005  0.13411  0.10846  1.0000
  H   H420      1.0  0.77689  0.36439  0.07378  1.0000
  H   H421      1.0  0.51124  0.04395  0.12332  1.0000
  S   S147      1.0  0.64680  0.15917  0.31110  1.0000
  N   N34       1.0  0.80851  0.29967  0.05086  1.0000
  C   C420      1.0  0.82176  0.44600  0.19655  1.0000
  C   C421      1.0  0.68178  0.06964  0.13103  1.0000
  H   H422      1.0  0.88760  0.37952  0.16883  1.0000
  C   C422      1.0  0.82988  0.41848  0.18616  1.0000
  H   H423      1.0  0.79962  0.46031  0.19264  1.0000
  H   H424      1.0  0.81975  0.32143  0.07754  1.0000
  N   N35       1.0  0.78544  0.14261  0.13690  1.0000
  C   C423      1.0  0.76326  0.15819  0.14882  1.0000
  C   C424      1.0  0.80798  0.15950  0.12586  1.0000
  C   C425      1.0  0.76350  0.19157  0.15000  1.0000
  C   C426      1.0  0.80894  0.19289  0.12672  1.0000
  C   C427      1.0  0.78672  0.20895  0.13897  1.0000
  C   C428      1.0  0.78580  0.10759  0.13613  1.0000
  H   H425      1.0  0.74478  0.14487  0.15721  1.0000
  H   H426      1.0  0.82484  0.14717  0.11604  1.0000
  H   H427      1.0  0.74542  0.20391  0.15915  1.0000
  H   H428      1.0  0.82635  0.20636  0.11772  1.0000
  H   H429      1.0  0.78694  0.23488  0.13953  1.0000
  H   H430      1.0  0.76240  0.09707  0.14282  1.0000
  H   H431      1.0  0.78572  0.09917  0.12118  1.0000
  H   H432      1.0  0.80910  0.09844  0.14342  1.0000
  N   N36       1.0  0.58247  0.14444  0.20069  1.0000
  C   C429      1.0  0.58725  0.13368  0.21872  1.0000
  C   C430      1.0  0.57414  0.12354  0.18642  1.0000
  C   C431      1.0  0.58429  0.10111  0.22276  1.0000
  C   C432      1.0  0.57084  0.09088  0.18998  1.0000
  C   C433      1.0  0.57628  0.07956  0.20822  1.0000
  C   C434      1.0  0.51749  0.04497  0.26128  1.0000
  H   H433      1.0  0.74153  0.36681  0.04432  1.0000
  H   H434      1.0  0.57039  0.13203  0.17211  1.0000
  H   H435      1.0  0.83754  0.47713  0.21946  1.0000
  H   H436      1.0  0.56502  0.07441  0.17850  1.0000
  S   S148      1.0  0.96275  0.43925  0.21147  1.0000
  H   H437      1.0  0.68135  0.04382  0.13169  1.0000
  S   S149      1.0  0.63391  0.06901  0.16008  1.0000
  H   H438      1.0  0.59780  0.19221  0.20824  1.0000
  Fe  Fe75      1.0  0.97648  0.46293  0.14186  1.0000
  C   C435      1.0  0.87948  0.41003  0.20526  1.0000
  C   C436      1.0  0.79031  0.30162  0.03432  1.0000
  C   C437      1.0  0.76580  0.32561  0.03175  1.0000
  H   H439      1.0  0.59494  0.05783  0.12183  1.0000
  N   N37       1.0  0.54708  0.08242  0.12526  1.0000
  C   C438      1.0  0.70323  0.08521  0.11791  1.0000
  H   H440      1.0  0.79430  0.28426  0.02310  1.0000
  C   C439      1.0  0.76073  0.34826  0.04604  1.0000
  H   H441      1.0  0.70371  0.10550  0.31013  1.0000
  H   H442      1.0  0.59358  0.15021  0.23012  1.0000
  H   H443      1.0  0.52022  0.03317  0.24766  1.0000
  H   H444      1.0  0.50809  0.08562  0.31009  1.0000
  H   H445      1.0  0.60073  0.18243  0.18351  1.0000
  C   C440      1.0  0.86743  0.37275  0.17925  1.0000
  C   C441      1.0  0.83337  0.27380  0.05348  1.0000
  N   N38       1.0  0.92387  0.49258  0.32939  1.0000
  H   H446      1.0  0.88962  0.44502  0.22717  1.0000
  H   H447      1.0  0.75068  0.32634  0.01881  1.0000
  C   C442      1.0  0.52921  0.05513  0.13376  1.0000
  C   C443      1.0  0.80457  0.32241  0.06467  1.0000
  H   H448      1.0  0.82418  0.25149  0.04637  1.0000
  H   H449      1.0  0.83650  0.26806  0.06872  1.0000
  H   H450      1.0  0.85884  0.28075  0.04755  1.0000
  H   H451      1.0  0.72738  0.05264  0.31883  1.0000
  H   H452      1.0  0.50259  0.11217  0.12677  1.0000
  C   C444      1.0  0.54664  0.04850  0.27288  1.0000
  C   C445      1.0  0.73305  0.07349  0.32753  1.0000
  Fe  Fe76      1.0  0.62125  0.12180  0.32890  1.0000
  H   H453      1.0  0.57148  0.03934  0.26832  1.0000
  C   C446      1.0  0.51109  0.07444  0.29630  1.0000
  H   H454      1.0  0.54762  0.03658  0.13853  1.0000
  H   H455      1.0  0.97590  0.48622  0.32003  1.0000
  C   C447      1.0  0.49163  0.14437  0.25360  1.0000
  C   C448      1.0  0.71562  0.25807  0.00563  1.0000
  H   H456      1.0  0.76178  0.04724  0.34835  1.0000
  H   H457      1.0  0.96413  0.43320  0.43782  1.0000
  N   N39       1.0  0.79072  0.26930  0.61736  1.0000
  S   S150      1.0  0.73080  0.33255  0.59733  1.0000
  S   S151      1.0  0.81686  0.36277  0.57545  1.0000
  H   H458      1.0  0.55312  0.04557  0.63973  1.0000
  H   H459      1.0  0.74682  0.38734  0.46650  1.0000
  H   H460      1.0  0.65331  0.24847  0.62123  1.0000
  H   H461      1.0  0.96829  0.47184  0.38208  1.0000
  H   H462      1.0  0.65422  0.27272  0.35150  1.0000
  C   C449      1.0  0.95448  0.45400  0.61099  1.0000
  H   H463      1.0  0.66957  0.09344  0.36207  1.0000
  Fe  Fe77      1.0  0.79803  0.44081  0.60364  1.0000
  Fe  Fe78      1.0  0.55854  0.17540  0.65259  1.0000
  C   C450      1.0  0.50027  0.08867  0.63074  1.0000
  C   C451      1.0  0.70475  0.25263  0.35540  1.0000
  H   H464      1.0  0.93019  0.42219  0.46575  1.0000
  H   H465      1.0  0.94039  0.44532  0.33548  1.0000
  C   C452      1.0  0.59327  0.07225  0.38065  1.0000
  S   S152      1.0  0.61013  0.16871  0.63845  1.0000
  S   S153      1.0  0.76018  0.41966  0.58270  1.0000
  H   H466      1.0  0.75790  0.24042  0.36091  1.0000
  S   S154      1.0  0.91229  0.36854  0.36970  1.0000
  H   H467      1.0  0.87308  0.42561  0.63778  1.0000
  S   S155      1.0  0.73527  0.35392  0.37643  1.0000
  S   S156      1.0  0.83011  0.34947  0.40137  1.0000
  H   H468      1.0  0.88985  0.41898  0.45286  1.0000
  H   H469      1.0  0.62261  0.01473  0.63239  1.0000
  C   C453      1.0  0.96343  0.36834  0.40888  1.0000
  H   H470      1.0  0.56182  0.03802  0.61524  1.0000
  H   H471      1.0  0.49754  0.09479  0.36400  1.0000
  H   H472      1.0  0.82609  0.36848  0.52319  1.0000
  H   H473      1.0  0.55863  0.10463  0.36706  1.0000
  H   H474      1.0  0.50684  0.23755  0.64813  1.0000
  Fe  Fe79      1.0  0.64290  0.19144  0.33675  1.0000
  N   N40       1.0  0.51539  0.06405  0.62110  1.0000
  H   H475      1.0  0.83202  0.48861  0.55246  1.0000
  H   H476      1.0  0.88925  0.48272  0.38552  1.0000
  C   C454      1.0  0.93656  0.35134  0.41732  1.0000
  H   H477      1.0  0.83719  0.29682  0.62066  1.0000
  C   C455      1.0  0.80757  0.43183  0.49528  1.0000
  S   S157      1.0  0.62039  0.15241  0.35488  1.0000
  C   C456      1.0  0.65838  0.05040  0.34637  1.0000
  C   C457      1.0  0.67291  0.06786  0.36137  1.0000
  C   C458      1.0  0.69271  0.05227  0.37521  1.0000
  C   C459      1.0  0.69832  0.01917  0.37414  1.0000
  C   C460      1.0  0.86237  0.43797  0.65045  1.0000
  H   H478      1.0  0.79827  0.31929  0.61616  1.0000
  Fe  Fe80      1.0  0.61717  0.12781  0.65850  1.0000
  Fe  Fe81      1.0  0.86481  0.38385  0.38594  1.0000
  N   N41       1.0  0.88683  0.46192  0.65781  1.0000
  H   H479      1.0  0.90471  0.38648  0.46718  1.0000
  C   C461      1.0  0.72453  0.31462  0.36836  1.0000
  C   C462      1.0  0.74870  0.28992  0.36788  1.0000
  S   S158      1.0  0.79013  0.48810  0.61902  1.0000
  C   C463      1.0  0.55133  0.05588  0.62535  1.0000
  C   C464      1.0  0.68051  0.27726  0.35608  1.0000
  C   C465      1.0  0.69038  0.30802  0.36251  1.0000
  H   H480      1.0  0.77506  0.29456  0.37229  1.0000
  C   C466      1.0  0.92159  0.45646  0.65659  1.0000
  S   S159      1.0  0.73456  0.00124  0.60065  1.0000
  H   H481      1.0  0.67143  0.32691  0.36278  1.0000
  H   H482      1.0  0.75315  0.30119  0.43338  1.0000
  H   H483      1.0  0.97500  0.36868  0.34764  1.0000
  C   C467      1.0  0.94300  0.42696  0.37619  1.0000
  C   C468      1.0  0.94481  0.39771  0.36666  1.0000
  H   H484      1.0  0.93106  0.43456  0.65028  1.0000
  Fe  Fe82      1.0  0.84942  0.38835  0.59740  1.0000
  C   C469      1.0  0.66355  0.01727  0.34546  1.0000
  H   H485      1.0  0.92129  0.43216  0.38516  1.0000
  C   C470      1.0  0.81416  0.41812  0.47738  1.0000
  Fe  Fe83      1.0  0.63023  0.20028  0.66220  1.0000
  H   H486      1.0  0.56807  0.07752  0.62467  1.0000
  H   H487      1.0  0.96643  0.36727  0.62825  1.0000
  C   C471      1.0  0.82934  0.36870  0.49262  1.0000
  S   S160      1.0  0.90003  0.37081  0.60951  1.0000
  Fe  Fe84      1.0  0.82102  0.44089  0.39485  1.0000
  C   C472      1.0  0.81182  0.41410  0.51195  1.0000
  C   C473      1.0  0.74237  0.32471  0.43579  1.0000
  H   H488      1.0  0.51722  0.01241  0.37853  1.0000
  C   C474      1.0  0.70306  0.02283  0.61357  1.0000
  Fe  Fe85      1.0  0.56887  0.16914  0.34421  1.0000
  C   C475      1.0  0.64701  0.02590  0.62892  1.0000
  C   C476      1.0  0.65427  0.05698  0.63548  1.0000
  C   C477      1.0  0.68567  0.07138  0.63054  1.0000
  C   C478      1.0  0.70996  0.05433  0.61960  1.0000
  H   H489      1.0  0.92758  0.32905  0.41105  1.0000
  C   C479      1.0  0.72589  0.12957  0.33446  1.0000
  H   H490      1.0  0.69167  0.09524  0.63557  1.0000
  H   H491      1.0  0.73448  0.06534  0.61609  1.0000
  H   H492      1.0  0.81084  0.43210  0.46472  1.0000
  H   H493      1.0  0.79919  0.45639  0.49624  1.0000
  C   C480      1.0  0.71207  0.30958  0.61588  1.0000
  C   C481      1.0  0.68604  0.28709  0.61134  1.0000
  C   C482      1.0  0.67272  0.26605  0.62509  1.0000
  C   C483      1.0  0.68537  0.26719  0.64362  1.0000
  C   C484      1.0  0.71067  0.29032  0.64829  1.0000
  C   C485      1.0  0.72391  0.31142  0.63455  1.0000
  H   H494      1.0  0.50230  0.06084  0.34831  1.0000
  C   C486      1.0  0.76795  0.23315  0.64053  1.0000
  N   N42       1.0  0.53441  0.05975  0.37249  1.0000
  H   H495      1.0  0.74366  0.32869  0.63836  1.0000
  C   C487      1.0  0.79013  0.25822  0.63550  1.0000
  C   C488      1.0  0.74686  0.23110  0.60846  1.0000
  H   H496      1.0  0.95100  0.47816  0.60605  1.0000
  C   C489      1.0  0.93283  0.39967  0.61356  1.0000
  C   C490      1.0  0.92879  0.43103  0.60742  1.0000
  S   S161      1.0  0.86667  0.41962  0.40972  1.0000
  C   C491      1.0  0.67130  0.00889  0.61812  1.0000
  C   C492      1.0  0.95673  0.40985  0.43239  1.0000
  H   H497      1.0  0.90609  0.43770  0.59975  1.0000
  N   N43       1.0  0.70649  0.36785  0.42541  1.0000
  C   C493      1.0  0.71610  0.38559  0.44090  1.0000
  C   C494      1.0  0.71947  0.33782  0.42270  1.0000
  C   C495      1.0  0.73877  0.37312  0.45435  1.0000
  C   C496      1.0  0.68374  0.38200  0.41120  1.0000
  H   H498      1.0  0.70672  0.40977  0.44275  1.0000
  H   H499      1.0  0.71259  0.32399  0.41020  1.0000
  C   C497      1.0  0.75184  0.34244  0.45177  1.0000
  H   H500      1.0  0.66195  0.39481  0.41799  1.0000
  H   H501      1.0  0.69883  0.39894  0.40236  1.0000
  H   H502      1.0  0.67259  0.36354  0.40153  1.0000
  H   H503      1.0  0.70425  0.06598  0.38664  1.0000
  C   C498      1.0  0.56145  0.08094  0.37290  1.0000
  Fe  Fe86      1.0  0.77247  0.37182  0.59555  1.0000
  S   S162      1.0  0.80348  0.43281  0.53411  1.0000
  C   C499      1.0  0.96964  0.44953  0.37434  1.0000
  S   S163      1.0  0.82109  0.40666  0.37032  1.0000
  H   H504      1.0  0.81892  0.29735  0.59741  1.0000
  H   H505      1.0  0.89953  0.35056  0.43984  1.0000
  H   H506      1.0  0.52457  0.23215  0.35662  1.0000
  C   C500      1.0  0.82512  0.38645  0.47599  1.0000
  S   S164      1.0  0.84273  0.43622  0.58401  1.0000
  C   C501      1.0  0.88566  0.45029  0.33909  1.0000
  Fe  Fe87      1.0  0.78613  0.37522  0.38764  1.0000
  H   H507      1.0  0.72482  0.15999  0.37030  1.0000
  C   C502      1.0  0.76919  0.25633  0.60394  1.0000
  H   H508      1.0  0.83211  0.46323  0.34256  1.0000
  H   H509      1.0  0.83782  0.34417  0.49171  1.0000
  H   H510      1.0  0.72775  0.20114  0.63086  1.0000
  H   H511      1.0  0.76809  0.26643  0.58987  1.0000
  H   H512      1.0  0.62257  0.03398  0.39298  1.0000
  C   C503      1.0  0.97335  0.39136  0.35501  1.0000
  Fe  Fe88      1.0  0.80618  0.41170  0.56381  1.0000
  C   C504      1.0  0.82270  0.38240  0.51051  1.0000
  H   H513      1.0  0.80605  0.26941  0.64633  1.0000
  C   C505      1.0  0.75782  0.09733  0.35565  1.0000
  H   H514      1.0  0.77003  0.33279  0.46191  1.0000
  H   H515      1.0  0.88199  0.42581  0.34368  1.0000
  C   C506      1.0  0.68334  0.00168  0.35930  1.0000
  C   C507      1.0  0.91321  0.40578  0.45748  1.0000
  H   H516      1.0  0.51475  0.10203  0.64132  1.0000
  N   N44       1.0  0.93110  0.39255  0.44095  1.0000
  H   H517      1.0  0.67657  0.28548  0.59696  1.0000
  C   C508      1.0  0.74621  0.21956  0.62690  1.0000
  C   C509      1.0  0.73885  0.25917  0.36140  1.0000
  C   C510      1.0  0.50123  0.22617  0.36426  1.0000
  C   C511      1.0  0.96304  0.39151  0.62345  1.0000
  C   C512      1.0  0.92064  0.36381  0.43348  1.0000
  S   S165      1.0  0.67307  0.23864  0.66099  1.0000
  S   S166      1.0  0.69409  0.21336  0.34720  1.0000
  S   S167      1.0  0.52213  0.16286  0.36288  1.0000
  H   H518      1.0  0.77190  0.09449  0.36879  1.0000
  C   C513      1.0  0.56990  0.01999  0.38708  1.0000
  S   S168      1.0  0.62456  0.07512  0.65125  1.0000
  S   S169      1.0  0.80605  0.39388  0.61824  1.0000
  H   H519      1.0  0.75742  0.17553  0.35473  1.0000
  S   S170      1.0  0.78198  0.41174  0.41121  1.0000
  H   H520      1.0  0.72897  0.22165  0.59798  1.0000
  S   S171      1.0  0.83406  0.36789  0.45389  1.0000
  H   H521      1.0  0.76639  0.22522  0.65507  1.0000
  Fe  Fe89      1.0  0.82800  0.38758  0.42407  1.0000
  C   C514      1.0  0.81240  0.29699  0.61270  1.0000
  H   H522      1.0  0.83774  0.44922  0.64590  1.0000
  S   S172      1.0  0.50886  0.17059  0.63599  1.0000
  C   C515      1.0  0.49696  0.04689  0.60794  1.0000
  C   C516      1.0  0.53828  0.02961  0.37945  1.0000
  H   H523      1.0  0.61453  0.08919  0.38094  1.0000
  N   N45       1.0  0.74484  0.12644  0.35067  1.0000
  H   H524      1.0  0.86501  0.48309  0.61403  1.0000
  C   C517      1.0  0.75237  0.07049  0.34408  1.0000
  H   H525      1.0  0.85670  0.41995  0.66144  1.0000
  H   H526      1.0  0.76985  0.15037  0.37397  1.0000
  C   C518      1.0  0.59763  0.04142  0.38756  1.0000
  H   H527      1.0  0.97299  0.47534  0.66144  1.0000
  H   H528      1.0  0.50860  0.02678  0.60067  1.0000
  H   H529      1.0  0.97552  0.35916  0.39612  1.0000
  C   C519      1.0  0.74960  0.15429  0.36311  1.0000
  C   C520      1.0  0.97353  0.39787  0.41635  1.0000
  H   H530      1.0  0.72054  0.29154  0.66259  1.0000
  C   C521      1.0  0.98450  0.44601  0.62090  1.0000
  C   C522      1.0  0.94543  0.47932  0.66306  1.0000
  S   S173      1.0  0.72553  0.00099  0.39104  1.0000
  C   C523      1.0  0.50188  0.06857  0.36335  1.0000
  C   C524      1.0  0.85771  0.47115  0.33832  1.0000
  C   C525      1.0  0.91873  0.46149  0.33451  1.0000
  C   C526      1.0  0.49460  0.19446  0.36930  1.0000
  H   H531      1.0  0.77327  0.48121  0.55867  1.0000
  C   C527      1.0  0.98882  0.41469  0.62721  1.0000
  H   H532      1.0  0.57307  0.99572  0.39204  1.0000
  C   C528      1.0  0.87484  0.48908  0.66637  1.0000
  S   S174      1.0  0.81512  0.49384  0.38890  1.0000
  H   H533      1.0  0.65235  0.00359  0.33394  1.0000
  Fe  Fe90      1.0  0.95256  0.48646  0.80118  1.0000
  S   S175      1.0  0.94952  0.46837  0.85558  1.0000
  H   H534      1.0  0.62118  0.05471  0.79403  1.0000
  H   H535      1.0  0.63766  0.04683  0.75245  1.0000
  Fe  Fe91      1.0  0.91607  0.44715  0.83232  1.0000
  S   S176      1.0  0.86614  0.41877  0.83824  1.0000
  H   H536      1.0  0.70360  0.18160  0.92719  1.0000
  Fe  Fe92      1.0  0.76907  0.26894  0.88650  1.0000
  S   S177      1.0  0.72550  0.29955  0.89700  1.0000
  S   S178      1.0  0.82187  0.28698  0.87623  1.0000
  Fe  Fe93      1.0  0.72701  0.20662  0.89209  1.0000
  S   S179      1.0  0.68103  0.23323  0.90304  1.0000
  S   S180      1.0  0.72562  0.15216  0.89218  1.0000
  Fe  Fe94      1.0  0.69163  0.26707  0.87939  1.0000
  S   S181      1.0  0.64856  0.28485  0.86072  1.0000
  Fe  Fe95      1.0  0.71898  0.26272  0.91990  1.0000
  S   S182      1.0  0.70218  0.27630  0.94976  1.0000
  S   S183      1.0  0.73543  0.23871  0.86720  1.0000
  S   S184      1.0  0.76477  0.23387  0.91065  1.0000
  H   H537      1.0  0.56503  0.22548  0.75708  1.0000
  N   N46       1.0  0.53972  0.08815  0.87458  1.0000
  C   C529      1.0  0.75713  0.14828  0.93911  1.0000
  H   H538      1.0  0.51037  0.07288  0.76102  1.0000
  S   S185      1.0  0.57747  0.20979  0.67506  1.0000
  H   H539      1.0  0.55751  0.04338  0.74523  1.0000
  H   H540      1.0  0.49712  0.11734  0.69415  1.0000
  Fe  Fe96      1.0  0.58685  0.16600  0.69266  1.0000
  S   S186      1.0  0.57635  0.15662  0.72404  1.0000
  H   H541      1.0  0.78725  0.22028  0.98937  1.0000
  H   H542      1.0  0.50695  0.10591  0.85319  1.0000
  C   C530      1.0  0.59251  0.00814  0.67688  1.0000
  C   C531      1.0  0.53735  0.16182  0.73688  1.0000
  C   C532      1.0  0.53539  0.15013  0.75543  1.0000
  H   H543      1.0  0.49337  0.22746  0.79043  1.0000
  S   S187      1.0  0.53592  0.17535  0.85145  1.0000
  H   H544      1.0  0.55710  0.13730  0.76122  1.0000
  H   H545      1.0  0.52006  0.04044  0.87318  1.0000
  C   C533      1.0  0.72044  0.26303  0.97126  1.0000
  C   C534      1.0  0.75095  0.24533  0.97175  1.0000
  C   C535      1.0  0.59688  0.05865  0.78673  1.0000
  H   H546      1.0  0.76463  0.24026  0.95875  1.0000
  H   H547      1.0  0.58673  0.17436  0.81869  1.0000
  H   H548      1.0  0.60944  0.01262  0.74858  1.0000
  C   C536      1.0  0.70129  0.12962  0.87537  1.0000
  C   C537      1.0  0.68197  0.14440  0.86123  1.0000
  S   S188      1.0  0.96116  0.43716  0.81255  1.0000
  H   H549      1.0  0.68220  0.17012  0.86020  1.0000
  C   C538      1.0  0.61671  0.25500  0.85763  1.0000
  C   C539      1.0  0.58343  0.26254  0.85111  1.0000
  C   C540      1.0  0.55793  0.23849  0.84924  1.0000
  C   C541      1.0  0.56598  0.20688  0.85370  1.0000
  C   C542      1.0  0.59942  0.19941  0.85977  1.0000
  C   C543      1.0  0.62458  0.22335  0.86179  1.0000
  H   H550      1.0  0.57723  0.28705  0.84788  1.0000
  H   H551      1.0  0.53215  0.24446  0.84457  1.0000
  H   H552      1.0  0.60606  0.17500  0.86298  1.0000
  H   H553      1.0  0.65025  0.21730  0.86649  1.0000
  C   C544      1.0  0.85648  0.38420  0.85188  1.0000
  C   C545      1.0  0.87997  0.35918  0.85391  1.0000
  C   C546      1.0  0.86928  0.33007  0.86210  1.0000
  C   C547      1.0  0.83510  0.32561  0.86847  1.0000
  C   C548      1.0  0.81204  0.35111  0.86718  1.0000
  C   C549      1.0  0.82266  0.38012  0.85887  1.0000
  H   H554      1.0  0.90597  0.36175  0.84851  1.0000
  H   H555      1.0  0.88739  0.31057  0.86306  1.0000
  H   H556      1.0  0.78578  0.34822  0.87213  1.0000
  H   H557      1.0  0.80425  0.39927  0.85738  1.0000
  H   H558      1.0  0.50317  0.12604  0.87568  1.0000
  C   C550      1.0  0.60260  0.06093  0.88428  1.0000
  C   C551      1.0  0.66231  0.09235  0.84921  1.0000
  C   C552      1.0  0.70103  0.09607  0.87634  1.0000
  H   H559      1.0  0.56629  0.13290  0.87620  1.0000
  H   H560      1.0  0.51056  0.18815  0.71545  1.0000
  H   H561      1.0  0.50767  0.23822  0.76749  1.0000
  C   C553      1.0  0.58213  0.18543  0.80509  1.0000
  C   C554      1.0  0.76368  0.23405  0.98912  1.0000
  C   C555      1.0  0.54227  0.05570  0.87603  1.0000
  N   N47       1.0  0.75915  0.32273  0.83190  1.0000
  C   C556      1.0  0.76613  0.35224  0.82458  1.0000
  C   C557      1.0  0.78415  0.29978  0.83216  1.0000
  C   C558      1.0  0.79867  0.35916  0.81695  1.0000
  C   C559      1.0  0.81695  0.30587  0.82464  1.0000
  C   C560      1.0  0.82422  0.33580  0.81705  1.0000
  C   C561      1.0  0.72569  0.31645  0.84088  1.0000
  H   H562      1.0  0.74689  0.37093  0.82513  1.0000
  H   H563      1.0  0.77937  0.27701  0.83892  1.0000
  H   H564      1.0  0.80476  0.38299  0.81194  1.0000
  H   H565      1.0  0.83711  0.28808  0.82571  1.0000
  H   H566      1.0  0.85006  0.34146  0.81208  1.0000
  H   H567      1.0  0.71732  0.29126  0.83863  1.0000
  H   H568      1.0  0.72760  0.32106  0.85633  1.0000
  H   H569      1.0  0.70489  0.33168  0.83505  1.0000
  C   C562      1.0  0.68085  0.19343  0.97295  1.0000
  C   C563      1.0  0.53924  0.08037  0.78681  1.0000
  C   C564      1.0  0.56807  0.10724  0.87763  1.0000
  H   H570      1.0  0.62861  0.16710  0.79238  1.0000
  H   H571      1.0  0.74533  0.12791  0.93118  1.0000
  C   C565      1.0  0.53461  0.06898  0.76839  1.0000
  C   C566      1.0  0.56984  0.21463  0.77070  1.0000
  S   S189      1.0  0.63668  0.07032  0.83279  1.0000
  C   C567      1.0  0.50618  0.15595  0.76680  1.0000
  H   H572      1.0  0.76750  0.16547  0.92859  1.0000
  H   H573      1.0  0.53436  0.20679  0.81375  1.0000
  H   H574      1.0  0.66214  0.20616  0.98153  1.0000
  N   N48       1.0  0.54658  0.21790  0.78514  1.0000
  H   H575      1.0  0.68208  0.05170  0.86408  1.0000
  H   H576      1.0  0.62727  0.05025  0.88778  1.0000
  N   N49       1.0  0.73095  0.16374  0.95096  1.0000
  C   C568      1.0  0.73237  0.16151  0.97025  1.0000
  C   C569      1.0  0.70475  0.18005  0.94246  1.0000
  S   S190      1.0  0.57396  0.00338  0.82230  1.0000
  C   C570      1.0  0.51573  0.23757  0.78258  1.0000
  C   C571      1.0  0.68175  0.07749  0.86329  1.0000
  H   H577      1.0  0.77932  0.13943  0.94750  1.0000
  H   H578      1.0  0.75325  0.14886  0.97707  1.0000
  Fe  Fe97      1.0  0.62713  0.01648  0.83274  1.0000
  C   C572      1.0  0.55257  0.20389  0.80223  1.0000
  S   S191      1.0  0.64077  0.15838  0.68147  1.0000
  C   C573      1.0  0.61980  0.02967  0.75934  1.0000
  H   H579      1.0  0.57473  0.08425  0.81033  1.0000
  H   H580      1.0  0.50548  0.14765  0.78120  1.0000
  C   C574      1.0  0.62418  0.99630  0.67047  1.0000
  H   H581      1.0  0.63448  0.01498  0.76962  1.0000
  C   C575      1.0  0.56145  0.05242  0.75950  1.0000
  C   C576      1.0  0.57067  0.07546  0.79601  1.0000
  H   H582      1.0  0.71608  0.08436  0.88713  1.0000
  H   H583      1.0  0.52082  0.26226  0.78771  1.0000
  C   C577      1.0  0.70310  0.26964  0.98829  1.0000
  C   C578      1.0  0.50925  0.17862  0.72959  1.0000
  N   N50       1.0  0.59182  0.04690  0.76884  1.0000
  C   C579      1.0  0.67951  0.19538  0.95329  1.0000
  H   H584      1.0  0.62240  0.10919  0.88468  1.0000
  C   C580      1.0  0.66254  0.12587  0.84827  1.0000
  C   C581      1.0  0.57359  0.04166  0.88114  1.0000
  H   H585      1.0  0.65977  0.20963  0.94650  1.0000
  H   H586      1.0  0.64760  0.13765  0.83747  1.0000
  C   C582      1.0  0.60568  0.18148  0.79035  1.0000
  H   H587      1.0  0.61722  0.19272  0.76127  1.0000
  H   H588      1.0  0.57537  0.01592  0.88240  1.0000
  C   C583      1.0  0.59987  0.09396  0.88257  1.0000
  H   H589      1.0  0.70915  0.17543  0.99684  1.0000
  H   H590      1.0  0.67949  0.28337  0.98802  1.0000
  C   C584      1.0  0.59952  0.19611  0.77301  1.0000
  C   C585      1.0  0.50696  0.10243  0.86873  1.0000
  S   S192      1.0  0.56432  0.13275  0.67110  1.0000
  C   C586      1.0  0.70730  0.17624  0.98153  1.0000
  H   H591      1.0  0.58987  0.03337  0.68019  1.0000
  H   H592      1.0  0.51856  0.09305  0.79392  1.0000
  H   H593      1.0  0.64586  0.01270  0.66908  1.0000
  H   H594      1.0  0.53950  0.99630  0.68338  1.0000
  H   H595      1.0  0.49686  0.17080  0.67941  1.0000
  H   H596      1.0  0.84727  0.49350  0.66731  1.0000
  Fe  Fe98      1.0  0.82588  0.69653  0.09512  1.0000
  S   S193      1.0  0.87061  0.72304  0.08220  1.0000
  S   S194      1.0  0.82638  0.64212  0.09614  1.0000
  Fe  Fe99      1.0  0.78677  0.75895  0.10485  1.0000
  S   S195      1.0  0.82941  0.78930  0.09312  1.0000
  S   S196      1.0  0.73771  0.77773  0.11923  1.0000
  Fe  Fe100     1.0  0.83045  0.75409  0.06868  1.0000
  S   S197      1.0  0.83479  0.77569  0.03914  1.0000
  Fe  Fe101     1.0  0.86542  0.75527  0.10755  1.0000
  S   S198      1.0  0.91032  0.77120  0.12594  1.0000
  S   S199      1.0  0.78547  0.72535  0.07967  1.0000
  S   S200      1.0  0.82289  0.72716  0.12116  1.0000
  H   H597      1.0  0.52363  0.90150  0.14320  1.0000
  S   S201      1.0  0.95943  0.71127  0.32053  1.0000
  H   H598      1.0  0.71942  0.75563  0.03979  1.0000
  Fe  Fe102     1.0  0.60137  0.96475  0.19049  1.0000
  S   S202      1.0  0.59596  0.92600  0.16806  1.0000
  S   S203      1.0  0.59225  0.96252  0.22248  1.0000
  Fe  Fe103     1.0  0.64691  0.94451  0.15647  1.0000
  S   S204      1.0  0.69498  0.91950  0.14420  1.0000
  Fe  Fe104     1.0  0.57222  0.96498  0.15052  1.0000
  C   C587      1.0  0.97490  0.74755  0.13466  1.0000
  S   S205      1.0  0.65410  0.98049  0.18028  1.0000
  C   C588      1.0  0.87170  0.57047  0.12586  1.0000
  C   C589      1.0  0.97268  0.53819  0.10510  1.0000
  H   H599      1.0  0.92199  0.68479  0.16406  1.0000
  S   S206      1.0  0.90214  0.65227  0.32282  1.0000
  Fe  Fe105     1.0  0.94945  0.66443  0.30542  1.0000
  H   H600      1.0  0.90871  0.57162  0.07889  1.0000
  C   C590      1.0  0.92963  0.56952  0.08905  1.0000
  C   C591      1.0  0.55250  0.96453  0.23504  1.0000
  C   C592      1.0  0.55317  0.96442  0.25494  1.0000
  C   C593      1.0  0.52233  0.96598  0.26553  1.0000
  C   C594      1.0  0.94403  0.69498  0.17150  1.0000
  H   H601      1.0  0.87200  0.54466  0.12533  1.0000
  C   C595      1.0  0.95923  0.50457  0.32680  1.0000
  C   C596      1.0  0.84030  0.77296  0.00044  1.0000
  C   C597      1.0  0.97350  0.74136  0.18424  1.0000
  H   H602      1.0  0.97013  0.63758  0.15713  1.0000
  C   C598      1.0  0.96506  0.59250  0.11377  1.0000
  C   C599      1.0  0.79785  0.86624  0.15355  1.0000
  H   H603      1.0  0.95237  0.66295  0.11599  1.0000
  C   C600      1.0  0.77557  0.78064  0.16271  1.0000
  H   H604      1.0  0.84253  0.88434  0.13882  1.0000
  C   C601      1.0  0.89136  0.58678  0.13951  1.0000
  C   C602      1.0  0.85108  0.62128  0.11318  1.0000
  C   C603      1.0  0.89054  0.62033  0.13998  1.0000
  C   C604      1.0  0.87060  0.63750  0.12691  1.0000
  H   H605      1.0  0.90541  0.63315  0.15049  1.0000
  H   H606      1.0  0.87024  0.66329  0.12746  1.0000
  C   C605      1.0  0.94201  0.74120  0.12700  1.0000
  C   C606      1.0  0.78054  0.83875  0.15961  1.0000
  S   S207      1.0  0.91836  0.56656  0.15578  1.0000
  C   C607      1.0  0.85164  0.58768  0.11278  1.0000
  H   H607      1.0  0.83649  0.57492  0.10227  1.0000
  C   C608      1.0  0.93412  0.71045  0.12055  1.0000
  H   H608      1.0  0.93888  0.51969  0.08323  1.0000
  C   C609      1.0  0.74406  0.74899  0.00205  1.0000
  H   H609      1.0  0.56317  0.95100  0.30868  1.0000
  H   H610      1.0  0.90879  0.70514  0.11490  1.0000
  C   C610      1.0  0.72465  0.81756  0.12462  1.0000
  C   C611      1.0  0.69497  0.82240  0.13578  1.0000
  C   C612      1.0  0.68471  0.85341  0.14136  1.0000
  C   C613      1.0  0.70412  0.88008  0.13589  1.0000
  C   C614      1.0  0.73341  0.87526  0.12442  1.0000
  C   C615      1.0  0.74359  0.84427  0.11877  1.0000
  H   H611      1.0  0.67997  0.80198  0.14032  1.0000
  H   H612      1.0  0.66219  0.85661  0.15021  1.0000
  H   H613      1.0  0.74859  0.89567  0.12004  1.0000
  H   H614      1.0  0.76639  0.84105  0.11014  1.0000
  C   C616      1.0  0.82465  0.72323  0.01534  1.0000
  C   C617      1.0  0.83402  0.75544  0.01699  1.0000
  H   H615      1.0  0.51961  0.96648  0.21055  1.0000
  H   H616      1.0  0.81997  0.70939  0.02794  1.0000
  H   H617      1.0  0.97136  0.61253  0.12290  1.0000
  C   C618      1.0  0.93916  0.59581  0.10011  1.0000
  H   H618      1.0  0.97256  0.62827  0.23690  1.0000
  S   S208      1.0  0.97786  0.49652  0.16661  1.0000
  H   H619      1.0  0.92562  0.61829  0.09860  1.0000
  C   C619      1.0  0.52054  0.96647  0.22583  1.0000
  C   C620      1.0  0.94474  0.72784  0.17523  1.0000
  H   H620      1.0  0.90065  0.53799  0.32483  1.0000
  H   H621      1.0  0.92362  0.74282  0.17058  1.0000
  C   C621      1.0  0.95891  0.68633  0.12137  1.0000
  H   H622      1.0  0.98541  0.51547  0.10704  1.0000
  H   H623      1.0  0.86756  0.83030  0.13347  1.0000
  C   C622      1.0  0.62278  0.93028  0.31988  1.0000
  H   H624      1.0  0.95976  0.52623  0.31783  1.0000
  H   H625      1.0  0.53951  0.91692  0.31632  1.0000
  S   S209      1.0  0.98329  0.63646  0.32456  1.0000
  H   H626      1.0  0.75921  0.77544  0.04650  1.0000
  C   C623      1.0  0.94644  0.54046  0.09153  1.0000
  C   C624      1.0  0.82920  0.86328  0.14397  1.0000
  H   H627      1.0  0.73705  0.72438  0.00485  1.0000
  C   C625      1.0  0.89651  0.51304  0.32826  1.0000
  C   C626      1.0  0.86305  0.50264  0.33268  1.0000
  C   C627      1.0  0.84316  0.83304  0.14090  1.0000
  S   S210      1.0  0.52417  0.96915  0.13267  1.0000
  C   C628      1.0  0.96956  0.64174  0.17264  1.0000
  C   C629      1.0  0.82528  0.80611  0.14729  1.0000
  Fe  Fe106     1.0  0.92585  0.51260  0.15612  1.0000
  H   H628      1.0  0.74710  0.78423  0.16213  1.0000
  H   H629      1.0  0.75560  0.84124  0.16647  1.0000
  H   H630      1.0  0.78342  0.77497  0.17738  1.0000
  H   H631      1.0  0.83650  0.78278  0.14491  1.0000
  H   H632      1.0  0.98120  0.77135  0.13967  1.0000
  N   N51       1.0  0.59410  0.91141  0.31728  1.0000
  H   H633      1.0  0.78630  0.88957  0.15573  1.0000
  N   N52       1.0  0.79402  0.80915  0.15615  1.0000
  S   S211      1.0  0.95468  0.65117  0.27400  1.0000
  H   H634      1.0  0.78080  0.75979  0.15333  1.0000
  H   H635      1.0  0.52320  0.96610  0.28080  1.0000
  H   H636      1.0  0.67499  0.93309  0.33080  1.0000
  H   H637      1.0  0.76065  0.73540  0.03799  1.0000
  H   H638      1.0  0.84768  0.79786  0.00157  1.0000
  H   H639      1.0  0.84169  0.51932  0.33264  1.0000
  S   S212      1.0  0.62211  0.98101  0.13744  1.0000
  N   N53       1.0  0.97111  0.67611  0.17672  1.0000
  H   H640      1.0  0.56095  0.91607  0.29352  1.0000
  C   C630      1.0  0.62376  0.86697  0.33102  1.0000
  C   C631      1.0  0.59441  0.88006  0.32256  1.0000
  H   H641      1.0  0.57775  0.96303  0.26220  1.0000
  C   C632      1.0  0.56299  0.92444  0.30842  1.0000
  C   C633      1.0  0.74716  0.75854  0.03618  1.0000
  H   H642      1.0  0.94541  0.63112  0.17842  1.0000
  H   H643      1.0  0.62240  0.95524  0.31594  1.0000
  C   C634      1.0  0.65263  0.91791  0.32823  1.0000
  N   N54       1.0  0.75091  0.76966  0.01668  1.0000
  H   H644      1.0  0.97462  0.76686  0.18698  1.0000
  N   N55       1.0  0.98168  0.56409  0.11598  1.0000
  C   C635      1.0  0.98929  0.66143  0.25855  1.0000
  C   C636      1.0  0.76082  0.80047  0.01316  1.0000
  H   H645      1.0  0.76728  0.81657  0.02474  1.0000
  H   H646      1.0  0.57155  0.86523  0.32072  1.0000
  C   C637      1.0  0.49924  0.90736  0.13659  1.0000
  C   C638      1.0  0.49341  0.93840  0.13020  1.0000
  H   H647      1.0  0.69597  0.98189  0.47229  1.0000
  Fe  Fe107     1.0  0.74164  0.89392  0.42284  1.0000
  C   C639      1.0  0.80647  0.81249  0.42340  1.0000
  S   S213      1.0  0.69483  0.92178  0.41409  1.0000
  N   N56       1.0  0.80371  0.51880  0.57125  1.0000
  Fe  Fe108     1.0  0.76688  0.88413  0.38202  1.0000
  H   H648      1.0  0.75738  0.87980  0.52126  1.0000
  H   H649      1.0  0.73302  0.96141  0.53385  1.0000
  H   H650      1.0  0.63259  0.81227  0.54120  1.0000
  H   H651      1.0  0.80611  0.94776  0.50098  1.0000
  Fe  Fe109     1.0  0.88968  0.70025  0.64932  1.0000
  S   S214      1.0  0.83903  0.72755  0.64570  1.0000
  Fe  Fe110     1.0  0.91765  0.63148  0.65111  1.0000
  H   H652      1.0  0.86463  0.59092  0.36066  1.0000
  S   S215      1.0  0.91350  0.66724  0.62783  1.0000
  Fe  Fe111     1.0  0.67981  0.89137  0.60117  1.0000
  S   S216      1.0  0.63379  0.87470  0.61838  1.0000
  S   S217      1.0  0.80704  0.85431  0.59918  1.0000
  S   S218      1.0  0.70813  0.85937  0.58071  1.0000
  Fe  Fe112     1.0  0.75634  0.88081  0.59374  1.0000
  H   H653      1.0  0.85082  0.85217  0.64561  1.0000
  C   C640      1.0  0.60437  0.84200  0.57047  1.0000
  C   C641      1.0  0.82354  0.83962  0.41684  1.0000
  C   C642      1.0  0.58448  0.90357  0.56162  1.0000
  H   H654      1.0  0.78362  0.81507  0.43219  1.0000
  C   C643      1.0  0.77912  0.95683  0.47506  1.0000
  H   H655      1.0  0.80353  0.82413  0.66246  1.0000
  H   H656      1.0  0.61645  0.89757  0.53712  1.0000
  C   C644      1.0  0.80506  0.54408  0.58360  1.0000
  H   H657      1.0  0.80351  0.74881  0.36553  1.0000
  H   H658      1.0  0.77276  0.94084  0.53086  1.0000
  N   N57       1.0  0.75476  0.96395  0.50604  1.0000
  C   C645      1.0  0.74802  0.96635  0.46692  1.0000
  S   S219      1.0  0.94850  0.67127  0.36075  1.0000
  Fe  Fe113     1.0  0.68981  0.88524  0.39080  1.0000
  S   S220      1.0  0.63705  0.86660  0.38245  1.0000
  S   S221      1.0  0.81401  0.86665  0.36540  1.0000
  S   S222      1.0  0.73363  0.85469  0.40126  1.0000
  C   C646      1.0  0.85256  0.76388  0.35409  1.0000
  C   C647      1.0  0.87280  0.79040  0.34929  1.0000
  C   C648      1.0  0.86023  0.82162  0.35242  1.0000
  C   C649      1.0  0.82749  0.82678  0.36056  1.0000
  C   C650      1.0  0.80716  0.80027  0.36524  1.0000
  S   S223      1.0  0.54334  0.97387  0.34702  1.0000
  C   C651      1.0  0.86663  0.54878  0.57886  1.0000
  C   C652      1.0  0.65298  0.88607  0.33387  1.0000
  H   H659      1.0  0.78191  0.80377  0.37143  1.0000
  H   H660      1.0  0.81717  0.55758  0.37397  1.0000
  C   C653      1.0  0.84989  0.51768  0.38056  1.0000
  C   C654      1.0  0.84331  0.54852  0.37374  1.0000
  C   C655      1.0  0.87019  0.56753  0.36626  1.0000
  C   C656      1.0  0.90400  0.55591  0.36577  1.0000
  C   C657      1.0  0.91068  0.52543  0.37302  1.0000
  H   H661      1.0  0.91153  0.83435  0.64990  1.0000
  S   S224      1.0  0.75860  0.92175  0.57296  1.0000
  C   C658      1.0  0.69089  0.90000  0.49231  1.0000
  H   H662      1.0  0.97975  0.55312  0.62421  1.0000
  H   H663      1.0  0.66642  0.84073  0.54703  1.0000
  C   C659      1.0  0.56707  0.94402  0.35848  1.0000
  C   C660      1.0  0.60086  0.95139  0.36428  1.0000
  C   C661      1.0  0.62181  0.92803  0.37241  1.0000
  C   C662      1.0  0.60932  0.89689  0.37451  1.0000
  C   C663      1.0  0.57521  0.88958  0.36907  1.0000
  C   C664      1.0  0.55399  0.91318  0.36111  1.0000
  H   H664      1.0  0.75831  0.49561  0.58109  1.0000
  H   H665      1.0  0.64797  0.93395  0.37661  1.0000
  H   H666      1.0  0.56541  0.86551  0.37074  1.0000
  H   H667      1.0  0.52788  0.90734  0.35672  1.0000
  H   H668      1.0  0.69283  0.90002  0.46172  1.0000
  H   H669      1.0  0.66441  0.90811  0.49283  1.0000
  C   C665      1.0  0.83016  0.76106  0.63119  1.0000
  C   C666      1.0  0.79630  0.77323  0.63072  1.0000
  C   C667      1.0  0.78854  0.80129  0.62066  1.0000
  C   C668      1.0  0.81461  0.81754  0.61091  1.0000
  C   C669      1.0  0.84833  0.80501  0.61109  1.0000
  C   C670      1.0  0.85610  0.77694  0.62112  1.0000
  H   H670      1.0  0.77601  0.76111  0.63840  1.0000
  H   H671      1.0  0.76249  0.81055  0.62065  1.0000
  H   H672      1.0  0.86869  0.81731  0.60354  1.0000
  H   H673      1.0  0.88223  0.76790  0.62131  1.0000
  H   H674      1.0  0.88120  0.74789  0.39171  1.0000
  H   H675      1.0  0.93671  0.51631  0.37264  1.0000
  S   S225      1.0  0.67627  0.93174  0.58071  1.0000
  Fe  Fe114     1.0  0.72946  0.94685  0.39337  1.0000
  C   C671      1.0  0.70907  0.89485  0.50923  1.0000
  S   S226      1.0  0.68832  0.90368  0.53096  1.0000
  H   H676      1.0  0.74503  0.96605  0.45164  1.0000
  S   S227      1.0  0.72778  0.90979  0.61564  1.0000
  H   H677      1.0  0.77271  0.98409  0.53195  1.0000
  H   H678      1.0  0.63876  0.84718  0.52705  1.0000
  C   C672      1.0  0.88671  0.52609  0.62638  1.0000
  C   C673      1.0  0.88012  0.55524  0.63565  1.0000
  C   C674      1.0  0.84588  0.56381  0.63931  1.0000
  C   C675      1.0  0.81859  0.54301  0.63414  1.0000
  H   H679      1.0  0.91314  0.51906  0.62370  1.0000
  H   H680      1.0  0.57311  0.84760  0.59554  1.0000
  H   H681      1.0  0.84047  0.58602  0.64662  1.0000
  H   H682      1.0  0.79221  0.54958  0.63733  1.0000
  C   C676      1.0  0.54863  0.94882  0.62669  1.0000
  C   C677      1.0  0.57972  0.95700  0.61784  1.0000
  C   C678      1.0  0.60590  0.93443  0.61565  1.0000
  C   C679      1.0  0.60117  0.90326  0.62192  1.0000
  C   C680      1.0  0.56992  0.89481  0.63072  1.0000
  C   C681      1.0  0.54364  0.91764  0.63318  1.0000
  Fe  Fe115     1.0  0.93758  0.62760  0.34310  1.0000
  H   H683      1.0  0.62983  0.94124  0.60912  1.0000
  C   C682      1.0  0.88380  0.50631  0.38026  1.0000
  H   H684      1.0  0.51954  0.91109  0.63992  1.0000
  C   C683      1.0  0.83304  0.50856  0.56234  1.0000
  H   H685      1.0  0.78193  0.55173  0.59098  1.0000
  C   C684      1.0  0.74320  0.88417  0.50835  1.0000
  C   C685      1.0  0.74132  0.88550  0.47372  1.0000
  H   H686      1.0  0.88645  0.80340  0.39137  1.0000
  H   H687      1.0  0.80507  0.76122  0.42325  1.0000
  C   C686      1.0  0.86498  0.52315  0.56616  1.0000
  H   H688      1.0  0.89127  0.56001  0.58225  1.0000
  H   H689      1.0  0.81388  0.86318  0.42038  1.0000
  C   C687      1.0  0.72046  0.97509  0.47852  1.0000
  H   H690      1.0  0.57763  0.92795  0.55828  1.0000
  S   S228      1.0  0.97031  0.64840  0.66089  1.0000
  H   H691      1.0  0.67674  0.97221  0.65235  1.0000
  H   H692      1.0  0.66567  0.98487  0.61340  1.0000
  C   C688      1.0  0.72431  0.97380  0.49818  1.0000
  H   H693      1.0  0.86518  0.85726  0.39957  1.0000
  C   C689      1.0  0.85972  0.74713  0.40215  1.0000
  H   H694      1.0  0.65646  0.93485  0.64690  1.0000
  H   H695      1.0  0.61299  0.81839  0.57445  1.0000
  H   H696      1.0  0.55500  0.90260  0.58747  1.0000
  C   C690      1.0  0.81956  0.76910  0.36190  1.0000
  S   S229      1.0  0.77712  0.92216  0.40408  1.0000
  H   H697      1.0  0.86902  0.73467  0.41496  1.0000
  H   H698      1.0  0.97051  0.51091  0.34080  1.0000
  C   C691      1.0  0.75919  0.87946  0.49065  1.0000
  H   H699      1.0  0.83756  0.57913  0.59766  1.0000
  N   N58       1.0  0.84735  0.77916  0.40710  1.0000
  C   C692      1.0  0.83646  0.55959  0.58749  1.0000
  H   H700      1.0  0.56601  0.87063  0.63560  1.0000
  Fe  Fe116     1.0  0.70889  0.90184  0.56126  1.0000
  H   H701      1.0  0.78575  0.87157  0.49008  1.0000
  S   S230      1.0  0.72222  0.91159  0.36961  1.0000
  N   N59       1.0  0.61583  0.85572  0.55413  1.0000
  C   C693      1.0  0.57179  0.88936  0.57798  1.0000
  S   S231      1.0  0.76367  0.88226  0.45192  1.0000
  H   H702      1.0  0.68739  0.97621  0.35835  1.0000
  C   C694      1.0  0.60655  0.88628  0.54976  1.0000
  C   C695      1.0  0.70692  0.89544  0.47463  1.0000
  C   C696      1.0  0.86438  0.80570  0.40071  1.0000
  C   C697      1.0  0.85264  0.83628  0.40540  1.0000
  H   H703      1.0  0.75278  0.51958  0.56010  1.0000
  C   C698      1.0  0.63948  0.83804  0.54177  1.0000
  S   S232      1.0  0.86780  0.72388  0.35207  1.0000
  C   C699      1.0  0.58173  0.85837  0.58244  1.0000
  C   C700      1.0  0.81874  0.78223  0.41832  1.0000
  Fe  Fe117     1.0  0.72571  0.94862  0.59391  1.0000
  C   C701      1.0  0.82522  0.51368  0.62508  1.0000
  H   H704      1.0  0.89819  0.78688  0.34326  1.0000
  H   H705      1.0  0.61112  0.97517  0.36219  1.0000
  S   S233      1.0  0.93831  0.57692  0.35471  1.0000
  H   H706      1.0  0.83864  0.73285  0.39543  1.0000
  S   S234      1.0  0.91560  0.57815  0.64416  1.0000
  Fe  Fe118     1.0  0.96439  0.68597  0.63877  1.0000
  Fe  Fe119     1.0  0.91469  0.69724  0.33969  1.0000
  C   C702      1.0  0.83019  0.81734  0.66488  1.0000
  C   C703      1.0  0.85943  0.50550  0.62100  1.0000
  H   H707      1.0  0.80023  0.94894  0.46612  1.0000
  C   C704      1.0  0.85679  0.83304  0.65537  1.0000
  H   H708      1.0  0.87616  0.84193  0.34868  1.0000
  H   H709      1.0  0.88829  0.51435  0.55945  1.0000
  S   S235      1.0  0.94049  0.72199  0.65837  1.0000
  C   C705      1.0  0.89082  0.82292  0.65770  1.0000
  S   S236      1.0  0.51714  0.97858  0.62903  1.0000
  H   H710      1.0  0.62349  0.84253  0.33600  1.0000
  H   H711      1.0  0.99047  0.58053  0.64325  1.0000
  H   H712      1.0  0.60297  0.91913  0.66392  1.0000
  C   C706      1.0  0.75855  0.96267  0.52665  1.0000
  H   H713      1.0  0.58372  0.98098  0.61270  1.0000
  C   C707      1.0  0.78213  0.95593  0.49477  1.0000
  C   C708      1.0  0.66058  0.95276  0.65840  1.0000
  C   C709      1.0  0.77039  0.50306  0.56755  1.0000
  H   H714      1.0  0.70248  0.97976  0.50711  1.0000
  N   N60       1.0  0.62743  0.96484  0.66542  1.0000
  H   H715      1.0  0.67544  0.87637  0.34098  1.0000
  Fe  Fe120     1.0  0.78618  0.76638  0.89657  1.0000
  S   S237      1.0  0.82920  0.77892  0.91705  1.0000
  S   S238      1.0  0.73602  0.79457  0.89236  1.0000
  Fe  Fe121     1.0  0.81613  0.69870  0.88912  1.0000
  S   S239      1.0  0.85997  0.70659  0.90917  1.0000
  S   S240      1.0  0.80872  0.65105  0.87397  1.0000
  Fe  Fe122     1.0  0.82170  0.72942  0.92885  1.0000
  S   S241      1.0  0.81670  0.70867  0.95853  1.0000
  Fe  Fe123     1.0  0.86385  0.75464  0.89552  1.0000
  S   S242      1.0  0.91488  0.77240  0.88366  1.0000
  S   S243      1.0  0.77701  0.71804  0.90956  1.0000
  S   S244      1.0  0.82135  0.74569  0.87431  1.0000
  Fe  Fe124     1.0  0.57382  0.96759  0.84570  1.0000
  H   H716      1.0  0.67724  0.85706  0.82139  1.0000
  S   S245      1.0  0.52627  0.97351  0.86393  1.0000
  Fe  Fe125     1.0  0.64717  0.94560  0.83745  1.0000
  H   H717      1.0  0.90673  0.75255  0.69453  1.0000
  S   S246      1.0  0.69630  0.91632  0.84275  1.0000
  H   H718      1.0  0.74671  0.74856  0.85561  1.0000
  H   H719      1.0  0.97371  0.57388  0.75981  1.0000
  Fe  Fe126     1.0  0.59862  0.96518  0.80483  1.0000
  S   S247      1.0  0.58915  0.95587  0.77333  1.0000
  H   H720      1.0  0.91313  0.58503  0.91264  1.0000
  S   S248      1.0  0.59483  0.92765  0.82753  1.0000
  C   C710      1.0  0.75757  0.79023  0.97956  1.0000
  H   H721      1.0  0.67222  0.82808  0.88719  1.0000
  H   H722      1.0  0.93245  0.62396  0.87435  1.0000
  Fe  Fe127     1.0  0.94251  0.68265  0.68003  1.0000
  H   H723      1.0  0.52481  0.99056  0.78091  1.0000
  H   H724      1.0  0.52359  0.90477  0.85555  1.0000
  C   C711      1.0  0.55306  0.96613  0.75907  1.0000
  C   C712      1.0  0.50053  0.91152  0.86320  1.0000
  C   C713      1.0  0.98114  0.59846  0.76442  1.0000
  H   H725      1.0  0.92110  0.57638  0.81922  1.0000
  H   H726      1.0  0.67512  0.94141  0.67007  1.0000
  H   H727      1.0  0.54640  0.93889  0.67528  1.0000
  H   H728      1.0  0.57446  0.94371  0.73421  1.0000
  C   C714      1.0  0.52561  0.96588  0.72776  1.0000
  S   S249      1.0  0.65222  0.98071  0.81342  1.0000
  C   C715      1.0  0.70245  0.77617  0.84739  1.0000
  H   H729      1.0  0.81465  0.59023  0.85497  1.0000
  H   H730      1.0  0.76116  0.79790  0.96507  1.0000
  C   C716      1.0  0.93990  0.59143  0.81213  1.0000
  C   C717      1.0  0.95527  0.61706  0.82176  1.0000
  C   C718      1.0  0.82579  0.72688  0.98077  1.0000
  C   C719      1.0  0.82045  0.70910  0.99732  1.0000
  C   C720      1.0  0.83631  0.75878  0.98241  1.0000
  H   H731      1.0  0.68476  0.76319  0.85645  1.0000
  H   H732      1.0  0.84064  0.77272  0.96982  1.0000
  C   C721      1.0  0.84520  0.62750  0.86814  1.0000
  C   C722      1.0  0.87865  0.63698  0.87334  1.0000
  C   C723      1.0  0.84041  0.59776  0.85909  1.0000
  H   H733      1.0  0.88286  0.65987  0.88014  1.0000
  H   H734      1.0  0.78762  0.78006  0.83602  1.0000
  C   C724      1.0  0.94214  0.74168  0.87540  1.0000
  S   S250      1.0  0.90480  0.49504  0.81885  1.0000
  C   C725      1.0  0.70129  0.84683  0.81527  1.0000
  C   C726      1.0  0.98748  0.62970  0.79363  1.0000
  C   C727      1.0  0.94891  0.58535  0.79330  1.0000
  C   C728      1.0  0.94357  0.71265  0.88493  1.0000
  C   C729      1.0  0.96466  0.74701  0.86015  1.0000
  H   H735      1.0  0.77730  0.64238  0.91134  1.0000
  C   C730      1.0  0.52518  0.98362  0.76616  1.0000
  H   H736      1.0  0.92754  0.70870  0.89712  1.0000
  C   C731      1.0  0.72620  0.83005  0.87968  1.0000
  C   C732      1.0  0.75113  0.84680  0.86937  1.0000
  C   C733      1.0  0.74157  0.87360  0.85860  1.0000
  C   C734      1.0  0.70706  0.88411  0.85798  1.0000
  C   C735      1.0  0.68218  0.86759  0.86847  1.0000
  C   C736      1.0  0.69175  0.84080  0.87926  1.0000
  H   H737      1.0  0.77773  0.83896  0.86957  1.0000
  H   H738      1.0  0.76108  0.88621  0.85058  1.0000
  H   H739      1.0  0.65554  0.87528  0.86815  1.0000
  C   C737      1.0  0.78913  0.63582  0.92510  1.0000
  H   H740      1.0  0.76601  0.82586  0.81752  1.0000
  H   H741      1.0  0.77206  0.61846  0.93238  1.0000
  H   H742      1.0  0.87075  0.73214  0.68354  1.0000
  N   N61       1.0  0.82332  0.62185  0.92198  1.0000
  C   C738      1.0  0.85172  0.63379  0.93127  1.0000
  C   C739      1.0  0.82642  0.59647  0.90983  1.0000
  C   C740      1.0  0.88445  0.62076  0.92809  1.0000
  C   C741      1.0  0.85864  0.58249  0.90659  1.0000
  C   C742      1.0  0.88786  0.59498  0.91562  1.0000
  H   H743      1.0  0.84932  0.65388  0.94096  1.0000
  H   H744      1.0  0.80406  0.58759  0.90209  1.0000
  H   H745      1.0  0.90699  0.63090  0.93508  1.0000
  H   H746      1.0  0.88843  0.53454  0.67914  1.0000
  C   C743      1.0  0.49791  0.99250  0.75404  1.0000
  C   C744      1.0  0.76030  0.78584  0.83606  1.0000
  N   N62       1.0  0.97265  0.60429  0.78434  1.0000
  S   S251      1.0  0.89000  0.66276  0.67219  1.0000
  C   C745      1.0  0.90678  0.61656  0.87003  1.0000
  H   H747      1.0  0.79058  0.65792  0.93388  1.0000
  H   H748      1.0  0.97847  0.52186  0.73286  1.0000
  C   C746      1.0  0.86870  0.57745  0.85557  1.0000
  H   H749      1.0  0.96842  0.66708  0.88717  1.0000
  C   C747      1.0  0.90196  0.58665  0.86129  1.0000
  H   H750      1.0  0.69612  0.83916  0.80048  1.0000
  H   H751      1.0  0.74347  0.74207  0.97172  1.0000
  H   H752      1.0  0.52582  0.95865  0.71307  1.0000
  C   C748      1.0  0.89795  0.51232  0.67318  1.0000
  C   C749      1.0  0.93344  0.50753  0.67127  1.0000
  H   H753      1.0  0.86462  0.55447  0.84880  1.0000
  S   S252      1.0  0.62568  0.98302  0.85733  1.0000
  H   H754      1.0  0.86114  0.56292  0.89654  1.0000
  H   H755      1.0  0.93674  0.56539  0.78593  1.0000
  H   H756      1.0  0.77309  0.83538  0.99183  1.0000
  S   S253      1.0  0.93828  0.56154  0.85834  1.0000
  H   H757      1.0  0.94871  0.62204  0.83640  1.0000
  C   C750      1.0  0.49790  0.98364  0.73479  1.0000
  H   H758      1.0  0.81252  0.68434  0.99621  1.0000
  H   H759      1.0  0.66399  0.80898  0.83776  1.0000
  H   H760      1.0  0.95156  0.52589  0.67589  1.0000
  C   C751      1.0  0.97913  0.63639  0.81248  1.0000
  C   C752      1.0  0.96713  0.68916  0.87938  1.0000
  C   C753      1.0  0.74742  0.75890  0.98329  1.0000
  C   C754      1.0  0.76428  0.81122  0.99456  1.0000
  H   H761      1.0  0.96387  0.76954  0.85279  1.0000
  C   C755      1.0  0.55309  0.95737  0.73981  1.0000
  Fe  Fe128     1.0  0.93961  0.51519  0.84136  1.0000
  H   H762      1.0  0.86442  0.75618  0.70451  1.0000
  C   C756      1.0  0.73734  0.76801  0.84696  1.0000
  H   H763      1.0  0.72055  0.86669  0.81535  1.0000
  S   S254      1.0  0.95422  0.69752  0.71058  1.0000
  N   N63       1.0  0.71373  0.81984  0.82641  1.0000
  C   C757      1.0  0.69098  0.80226  0.83692  1.0000
  C   C758      1.0  0.74794  0.81176  0.82572  1.0000
  C   C759      1.0  0.49613  0.94319  0.86910  1.0000
  H   H764      1.0  0.97425  0.71775  0.74788  1.0000
  C   C760      1.0  0.56822  0.95517  0.67409  1.0000
  C   C761      1.0  0.60021  0.94419  0.66757  1.0000
  S   S255      1.0  0.96042  0.50391  0.77085  1.0000
  C   C762      1.0  0.87877  0.75446  0.69098  1.0000
  H   H765      1.0  0.96744  0.61593  0.75537  1.0000
  S   S256      1.0  0.98587  0.51074  0.82270  1.0000
  C   C763      1.0  0.56433  0.98743  0.67860  1.0000
  H   H766      1.0  0.81705  0.77833  0.68307  1.0000
  C   C764      1.0  0.98847  0.72340  0.85457  1.0000
  H   H767      1.0  0.99100  0.65648  0.81987  1.0000
  N   N64       1.0  0.87151  0.78205  0.67898  1.0000
  C   C765      1.0  0.98770  0.68418  0.72588  1.0000
  C   C766      1.0  0.98976  0.69446  0.86431  1.0000
  H   H768      1.0  0.92423  0.78922  0.67113  1.0000
  C   C767      1.0  0.83802  0.79151  0.67653  1.0000
  C   C768      1.0  0.89777  0.79723  0.66964  1.0000
