data_image0
_chemical_formula_structural       CFeC2SFeHSH2CHSC2H2C2SC2H2C2HCHC2NH5SHSHFeHFeS2HC2NHCHCH4C2NC3SC3H2C3HC2HCH3CH2CH2Fe2S2FeS2FeSFeS2HFeSHFeSFeSHC2FeS2FeS2FeSFeS3FeS2FeS2FeSFeS3C2H3C5H3C6H4C6H3CH2C3HCH2C2HC4SH4C2NC7H4C6H4CHCH6NC2HCSHNC6H9CH2NC6H2CHCH4FeH3C2HNC4H2FeH5CSHCHSHC2HSHCH6C3HCS2C2SH2C4H2CHC3HSHNCHC3HCHCHCH3C2HCHNCH4CH2CNCH2NSC2HCHC2H2CFeS2HSFeHFeSHSFeSC3H2CHFeS2FeS2FeSFeS3HFeS2FeS2FeSFeS4C3HCHC6H4C6H5C3H4C3HCSNC4NCSH6C6H4C6H4NHCHCSCH8NC5HCH2CH3C2H3CN2HSCHFeCH3CSHC3HC2H2C4H3CHNC6H8C4HCHNCHC2HCHCHSHC2HCH3CHCSC2HCFe2CFeH2SC2HSHSHCFeS2FeS2FeSFeCS2HC4H3C4H2C6H4CHC3H3CHCHC2H2C2HCH2SHCSH3CHCHCN2H2CH5CH2C5FeC2N2H2CH3CSH2SCHCSHFeS2FeS2FeSFeS3C6H4CSHC2FeH3C7SH2C6H5NH2NC3H4CH2CH5CHC2H2C2H2FeHNC3HC2HC2HCSCH2NHC3HC3FeH3CH4CSHCHSCFeSCFeS2FeSFeS3H3FeSHFeSCSCSC2FeS2FeS2FeSFeS3CH3CHNCHCNH2C2H3SC6H4C6H4CHCHSCH5CNHC7H4CHC2H2C8H4FeSH5CNC6NH5NC2H2C4H3CH6CHC2FeCHCNC2S2H3C2H2C2HCH2CSCFeSHFeS2FeSFeS3C2FeS2FeC4H3SHFeS2FeS2FeSFeS3C2HC2HSH2NC7H5C5H4CSHCFeSCNCHCH5C7H4C6H4CHSNCHCH3NH2CHSNH2C3HC2HCH5C2H3C2H4CH5CHCH2FeC2H2FeS2FeS2FeSFeS4HSCHFeSFeS2FeS2FeSFeS3H3SC6H4C6H5SHSC6H4C2HC7H4C6H4C5SH5C2H2NHC4H2CHCHCFeCHCSNHC2HCH4C2NC3H6C2FeCSH3SCNHFeH2CH3CH2NC6H3CH5CHNHC2FeSHFeCHSNSHC3SC5HCH2CH2CFeH2C2NFeH2FeS2FeS2FeSFeS4FeS2FeS2FeSFeS3H3SHFeSFeS2C6HCHC6H4C6H4C2SHC6H4C6H9NHC5H4N2HSHCH3CHC2HCH2CNH4SCHC5HCH2CHC2NCNCHC2H2C4H2NHCSCHCH5C2HCHCHC5H2CH2C2HC2H2SH3FeC3H2CFeH4CH3SCSC2FeS2FeS2FeSFeS3FeSHSHFeSHSFeS2FeS2FeSFeS3CHC2HC2HC6H4C7H2C4H3SC2HFeC2H3CH2CH3SHC7H4C6H3NCH2C2FeC3H4C5HCH4CSC4HCHCHC2HCH3CHCSH5C3H2CNC6H5NCHCHNHSCH2NC2SHCHNC2H5FeH2C2HSCNCSH2CHSC2FeH4SH4CNH2C4HNCHCFeS2FeS2FeSFeS4FeSC2FeCFeS2FeS2FeS2FeSFeS3CH2CH2C6H4C2H2C2HC4H4C6HNCHC6H4C6H5CHC3NHSHSH2C2NC6H9CH2SCHCH5C2HCH3CH4C5SNSHCSCH3CHCH2SC2H3CHC3HCH3NCNC8H2C2FeCHC5FeCHC2SNHC3HCH2CH6FeHFeH2C2H5CHNCH2SHFeS3FeSCFeS2FeSFeS3HSHSFeS2FeS2FeSFeHS2CFeS4C6H5C4HC7H4C6H4C6H4C3H5NHC3HCHCH3CHCNC6H9CHCH3CSH2C2HNC6H8CFeHCH2NH2CHC2H2C3HCH2C4HCFeCH2CH3NSHC3H2C3H3FeC2HCH2SCH2SC2Fe2CH2CHCHC4HC2HC2HC2HNHCNCSCH2C2SHC3HCNH2C2H2NHCHCHSH4NSC2H3CH2CSFeS2FeS2FeHFeS4FeS2HSNFeHFeS3Fe2S2FeCS2FeC8H5C6H4C6H5C5FeH2C3FeCH2SC3HCHS2HC2H2C2HC2H2SH3CS2HCHNH2SNH2FeCSC2SHS2HCHCH3NCHC2H3CH4CSCHCNC6H8CSH2FeH3C2H2CNC2S2CH2CFeH3CNH3C3H3C4H2CFeS2FeS2FeSFeS3H2CH2CH3CHFeSNCSHFeS2FeS2FeSFeS3FeSHFeS2FeSHSFeC6H5CHC6H3CHNHC7H4CSHCHCH2CH5C3HCHCHC2HC2HSC2HCH2C6H4CH3C4H4CHNHC2SC2SHC2FeS2C2HC2HCNH8CHC2SNC4HCH2SHFeH4NC2H2NC7HCH2SCHNC5HCSCH2C2H3SC3H3CHC2HFeH5CHC2FeC2HCHCHNS2FeS2FeSHFeSFeHS3HSHCSH2CHFeSHCHFeSHSFeS2FeS2FeSFeS3FeS2FeS2FeSFeCS2C6H5C4H4C6H4C7H4C8H5CH3NHC6H4C2H2CHCSHC2HC2NCFeH2CHC2NC6H9CHCH3CH3NFeHCNSH2C3FeSHNH3SCH4C5FeCHCH2C4H2CSCHC2HC3H4C2HSHCH2CHC4HNHNH9C3H2NH2S2CHFeS2FeS2FeHFeS3FeS2FeSHFeSFeS2FeSFeS2FeSFeS3CFeHCHCFeSC2SHSC6H4C2HC6H4CHC2HCH2CH3C2H7CHC2H3CHC7NHCH2CH6CHC3HC2NC3HCHC2HNC2H3SHCHC2HCHCHCH2C3H2CHCHCHCH3CH3NFeC2SCSH2FeSFeS2FeHS2FeS2FeS2FeSFeCS2CFeS2FeS2FeSFeS3H2CNCHNHC5HC4SC4HCH3C5H4C7H4C6H4CH2C3H4C3H2CH2CHC7H3SC2HCHNC2H2C3H2NC6H9CHC2HCHFeHCH4SCHSH2CH2CNCHC2HC3NCH8C2HSH4CHC2H2C3SC2HNFeS2FeSHFeSFeS2CS2HFeS2FeSCFeSFeHS2FeS2FeS2FeSFeS2C2H2C3H2C3H2CH4CHC6H2C7H4C6H4C2N2HSC2NCH3CH4NC2HCHC3SHCHCHCHCH2SCHNSH2CH2CHCHCH2CHSCFeHCHCSH4SCH3C2H2CHCHFeCSCFeSCFeSFeS2CSFeS2FeSFeSFeS3HSHFeS2FeS2C3HC2HCH7C6H4CHC4HC7H5CSCHCNSCSCHCHNH4CHCHCH3C2HC2H3CHCH2CH2CH2CHCH2C2HNFeHNCH2FeC4NHCHCHNCHC4HCH6C3FeHCH3CHC2H3CH2SHNHCFeCFeS2FeS2HFe2S2FeSHS2FeS2FeS2FeSFeCSCSHSFeSHFeS2FeS2FeSFeS3H2NHCH2C2H3C3SC2H4C6H4C6H4C2HC4H2C7H4C2H2CHFeSFeHC2H3CHSH3NC2H2CHSNHC3HCHSH2CNC6H8NC6H7CFeC2H3CSCH3C3H2SHCH2C6HFeS2CSFeCFeS3HS4HFeSFeCSHFeS2FeS2FeSFeHS2HSFeSFeS2FeSFeS3C2HC6H4C6H6C7H6C4HFeCNHC2FeH2SCHC4FeHC6H4C3SCHCH2C3NC6H8SH5SH3NHNC2H3C3H2CH2CH3CSC2NFeSC2HC3SC2SH2CHC2HC3HCHCHC2NH3CH2FeHCHC4NC3FeC2H4CH5C4H2C2H3CH4CNH2CH3C3HC2H2CNSFeH2C3H4CHCH5SC2H3
_chemical_formula_sum              "C1728 Fe288 S576 H1728 N144"
_cell_length_a       77.2176
_cell_length_b       76.7321
_cell_length_c       62.7668
_cell_angle_alpha    82.2151
_cell_angle_beta     82.1475
_cell_angle_gamma    104.283

_space_group_name_H-M_alt    "P 1"
_space_group_IT_number       1

loop_
  _space_group_symop_operation_xyz
  'x, y, z'

loop_
  _atom_site_type_symbol
  _atom_site_label
  _atom_site_symmetry_multiplicity
  _atom_site_fract_x
  _atom_site_fract_y
  _atom_site_fract_z
  _atom_site_occupancy
  C   C1        1.0  0.99371  0.24308  0.05696  1.0000
  Fe  Fe1       1.0  0.10906  0.31180  0.07100  1.0000
  C   C2        1.0  0.05776  0.29225  0.01115  1.0000
  C   C3        1.0  0.16819  0.30549  0.08584  1.0000
  S   S1        1.0  0.13192  0.30163  0.08371  1.0000
  Fe  Fe2       1.0  0.06828  0.30495  0.06552  1.0000
  H   H1        1.0  0.03963  0.25682  0.05673  1.0000
  S   S2        1.0  0.03740  0.29104  0.07219  1.0000
  H   H2        1.0  0.16357  0.29184  0.09541  1.0000
  H   H3        1.0  0.03519  0.30378  0.01061  1.0000
  C   C4        1.0  0.07119  0.28675  0.99873  1.0000
  H   H4        1.0  0.13358  0.30823  0.01975  1.0000
  S   S3        1.0  0.09243  0.29761  0.04824  1.0000
  C   C5        1.0  0.15543  0.31378  0.07786  1.0000
  C   C6        1.0  0.17534  0.30584  0.02927  1.0000
  H   H5        1.0  0.98969  0.23382  0.10324  1.0000
  H   H6        1.0  0.18155  0.29722  0.03912  1.0000
  C   C7        1.0  0.18693  0.31467  0.08152  1.0000
  C   C8        1.0  0.98931  0.25869  0.06267  1.0000
  S   S4        1.0  0.08417  0.31616  0.09098  1.0000
  C   C9        1.0  0.02121  0.27286  0.06472  1.0000
  C   C10       1.0  0.00292  0.27332  0.06680  1.0000
  H   H7        1.0  0.05692  0.29115  0.02870  1.0000
  H   H8        1.0  0.01566  0.23076  0.05025  1.0000
  C   C11       1.0  0.01205  0.24276  0.05454  1.0000
  C   C12       1.0  0.02573  0.25757  0.05817  1.0000
  H   H9        1.0  0.99919  0.28501  0.07191  1.0000
  C   C13       1.0  0.14823  0.31191  0.01857  1.0000
  H   H10       1.0  0.19655  0.30810  0.08778  1.0000
  C   C14       1.0  0.15646  0.30067  0.03063  1.0000
  C   C15       1.0  0.04549  0.29942  0.00078  1.0000
  N   N1        1.0  0.18571  0.32185  0.01635  1.0000
  H   H11       1.0  0.14819  0.28834  0.04156  1.0000
  H   H12       1.0  0.20974  0.31952  0.02881  1.0000
  H   H13       1.0  0.99465  0.26135  0.12052  1.0000
  H   H14       1.0  0.08112  0.28166  0.00650  1.0000
  H   H15       1.0  0.06036  0.29662  0.94876  1.0000
  S   S5        1.0  0.08140  0.29886  0.83982  1.0000
  H   H16       1.0  0.03193  0.32110  0.97483  1.0000
  S   S6        1.0  0.06976  0.29477  0.89248  1.0000
  H   H17       1.0  0.99946  0.24702  0.90643  1.0000
  Fe  Fe3       1.0  0.09629  0.30151  0.86856  1.0000
  H   H18       1.0  0.18368  0.30497  0.89076  1.0000
  Fe  Fe4       1.0  0.05514  0.29510  0.86352  1.0000
  S   S7        1.0  0.02478  0.27913  0.86813  1.0000
  S   S8        1.0  0.20655  0.32148  0.84750  1.0000
  H   H19       1.0  0.08253  0.28416  0.96633  1.0000
  C   C16       1.0  0.19962  0.27572  0.85883  1.0000
  C   C17       1.0  0.00768  0.26545  0.85613  1.0000
  N   N2        1.0  0.04662  0.30113  0.97860  1.0000
  H   H20       1.0  0.17826  0.26866  0.88710  1.0000
  C   C18       1.0  0.99756  0.24387  0.83216  1.0000
  H   H21       1.0  0.03869  0.31354  0.95018  1.0000
  C   C19       1.0  0.01172  0.25563  0.83973  1.0000
  H   H22       1.0  0.22916  0.25841  0.89715  1.0000
  H   H23       1.0  0.19138  0.28093  0.84819  1.0000
  H   H24       1.0  0.00092  0.23617  0.81973  1.0000
  H   H25       1.0  0.02574  0.25677  0.83322  1.0000
  C   C20       1.0  0.98601  0.23759  0.91178  1.0000
  C   C21       1.0  0.19214  0.26883  0.88085  1.0000
  N   N3        1.0  0.21722  0.27639  0.85090  1.0000
  C   C22       1.0  0.17079  0.31648  0.84236  1.0000
  C   C23       1.0  0.14404  0.30165  0.87043  1.0000
  C   C24       1.0  0.17490  0.30650  0.87901  1.0000
  S   S9        1.0  0.12016  0.29136  0.87872  1.0000
  C   C25       1.0  0.22464  0.28381  0.82775  1.0000
  C   C26       1.0  0.15581  0.29984  0.88541  1.0000
  C   C27       1.0  0.07196  0.28810  0.97621  1.0000
  H   H26       1.0  0.15010  0.29313  0.90208  1.0000
  H   H27       1.0  0.98590  0.27115  0.87697  1.0000
  C   C28       1.0  0.22065  0.26307  0.88647  1.0000
  C   C29       1.0  0.15171  0.31020  0.84887  1.0000
  C   C30       1.0  0.22770  0.27006  0.86436  1.0000
  H   H28       1.0  0.02040  0.29850  0.97063  1.0000
  C   C31       1.0  0.20278  0.26255  0.89475  1.0000
  C   C32       1.0  0.98927  0.26361  0.86437  1.0000
  H   H29       1.0  0.22310  0.29786  0.82365  1.0000
  C   C33       1.0  0.05940  0.29524  0.96636  1.0000
  H   H30       1.0  0.19728  0.25745  0.91195  1.0000
  H   H31       1.0  0.05106  0.32016  0.81023  1.0000
  H   H32       1.0  0.14294  0.31133  0.83701  1.0000
  C   C34       1.0  0.18256  0.31460  0.85730  1.0000
  H   H33       1.0  0.21731  0.27502  0.81736  1.0000
  H   H34       1.0  0.98793  0.22387  0.88426  1.0000
  C   C35       1.0  0.03371  0.30887  0.96806  1.0000
  H   H35       1.0  0.11642  0.32027  0.94892  1.0000
  H   H36       1.0  0.17649  0.32254  0.82548  1.0000
  Fe  Fe5       1.0  0.23216  0.32392  0.86332  1.0000
  Fe  Fe6       1.0  0.17497  0.47812  0.31516  1.0000
  S   S10       1.0  0.19054  0.50713  0.30127  1.0000
  S   S11       1.0  0.16678  0.45868  0.29180  1.0000
  Fe  Fe7       1.0  0.17860  0.48345  0.36208  1.0000
  S   S12       1.0  0.19405  0.51289  0.35182  1.0000
  S   S13       1.0  0.17464  0.46900  0.39702  1.0000
  Fe  Fe8       1.0  0.17394  0.51389  0.32940  1.0000
  S   S14       1.0  0.16130  0.53707  0.32410  1.0000
  Fe  Fe9       1.0  0.20933  0.50342  0.32475  1.0000
  S   S15       1.0  0.15683  0.48509  0.34194  1.0000
  S   S16       1.0  0.19536  0.47374  0.33637  1.0000
  H   H37       1.0  0.18200  0.46375  0.44087  1.0000
  Fe  Fe10      1.0  0.19671  0.62809  0.35820  1.0000
  S   S17       1.0  0.16801  0.61721  0.37585  1.0000
  H   H38       1.0  0.18494  0.35437  0.05196  1.0000
  Fe  Fe11      1.0  0.16294  0.64041  0.35414  1.0000
  S   S18       1.0  0.13770  0.63492  0.33855  1.0000
  Fe  Fe12      1.0  0.17601  0.63681  0.39842  1.0000
  S   S19       1.0  0.16556  0.62603  0.43442  1.0000
  H   H39       1.0  0.20825  0.51277  0.41982  1.0000
  C   C36       1.0  0.13065  0.35204  0.09984  1.0000
  C   C37       1.0  0.14996  0.49530  0.24698  1.0000
  Fe  Fe13      1.0  0.08953  0.45799  0.18128  1.0000
  S   S20       1.0  0.06909  0.45248  0.21179  1.0000
  S   S21       1.0  0.09843  0.48719  0.16332  1.0000
  Fe  Fe14      1.0  0.08951  0.41778  0.18503  1.0000
  S   S22       1.0  0.06966  0.40993  0.21694  1.0000
  S   S23       1.0  0.09660  0.39329  0.17275  1.0000
  Fe  Fe15      1.0  0.05492  0.42764  0.19984  1.0000
  S   S24       1.0  0.02516  0.42236  0.19854  1.0000
  Fe  Fe16      1.0  0.08621  0.43567  0.22587  1.0000
  S   S25       1.0  0.09077  0.44164  0.25949  1.0000
  S   S26       1.0  0.07384  0.43446  0.16772  1.0000
  S   S27       1.0  0.10747  0.44217  0.19556  1.0000
  Fe  Fe17      1.0  0.12006  0.61514  0.22214  1.0000
  S   S28       1.0  0.12939  0.60167  0.19465  1.0000
  S   S29       1.0  0.14295  0.62983  0.23782  1.0000
  Fe  Fe18      1.0  0.08040  0.60183  0.21720  1.0000
  S   S30       1.0  0.08686  0.58705  0.19011  1.0000
  S   S31       1.0  0.05099  0.60124  0.22552  1.0000
  Fe  Fe19      1.0  0.10573  0.57773  0.21034  1.0000
  S   S32       1.0  0.10752  0.54902  0.22158  1.0000
  Fe  Fe20      1.0  0.10957  0.61257  0.17712  1.0000
  S   S33       1.0  0.11203  0.62454  0.14132  1.0000
  S   S34       1.0  0.09743  0.59064  0.23875  1.0000
  S   S35       1.0  0.10212  0.62790  0.20331  1.0000
  C   C38       1.0  0.11438  0.64816  0.13437  1.0000
  C   C39       1.0  0.17812  0.47639  0.43816  1.0000
  H   H40       1.0  0.16832  0.64356  0.30271  1.0000
  H   H41       1.0  0.15003  0.48918  0.20583  1.0000
  H   H42       1.0  0.15253  0.33676  0.99567  1.0000
  C   C40       1.0  0.04481  0.56439  0.22699  1.0000
  C   C41       1.0  0.03746  0.57930  0.22466  1.0000
  C   C42       1.0  0.01947  0.57666  0.22124  1.0000
  C   C43       1.0  0.00896  0.55912  0.21989  1.0000
  C   C44       1.0  0.13946  0.38362  0.08053  1.0000
  H   H43       1.0  0.05858  0.56625  0.22992  1.0000
  H   H44       1.0  0.01371  0.58816  0.21946  1.0000
  H   H45       1.0  0.99068  0.40594  0.18790  1.0000
  C   C45       1.0  0.09934  0.50429  0.17966  1.0000
  C   C46       1.0  0.09717  0.49988  0.20239  1.0000
  C   C47       1.0  0.09877  0.51369  0.21511  1.0000
  C   C48       1.0  0.10259  0.53207  0.20526  1.0000
  C   C49       1.0  0.10410  0.53650  0.18259  1.0000
  C   C50       1.0  0.10252  0.52262  0.16982  1.0000
  H   H46       1.0  0.09496  0.48590  0.21018  1.0000
  H   H47       1.0  0.09758  0.51015  0.23264  1.0000
  H   H48       1.0  0.10717  0.55066  0.17483  1.0000
  H   H49       1.0  0.10420  0.52615  0.15223  1.0000
  C   C51       1.0  0.09391  0.38687  0.14700  1.0000
  C   C52       1.0  0.09379  0.36897  0.14416  1.0000
  C   C53       1.0  0.09218  0.36343  0.12384  1.0000
  C   C54       1.0  0.09132  0.37595  0.10586  1.0000
  C   C55       1.0  0.09122  0.39379  0.10878  1.0000
  C   C56       1.0  0.09231  0.39919  0.12928  1.0000
  H   H50       1.0  0.09495  0.35932  0.15780  1.0000
  H   H51       1.0  0.09175  0.34951  0.12211  1.0000
  H   H52       1.0  0.09247  0.41303  0.13116  1.0000
  C   C57       1.0  0.18432  0.57819  0.45799  1.0000
  H   H53       1.0  0.99839  0.35590  0.16029  1.0000
  H   H54       1.0  0.07151  0.61007  0.15618  1.0000
  C   C58       1.0  0.01199  0.39951  0.20373  1.0000
  C   C59       1.0  0.01783  0.38560  0.21492  1.0000
  C   C60       1.0  0.00698  0.36745  0.21883  1.0000
  H   H55       1.0  0.17814  0.56617  0.45155  1.0000
  C   C61       1.0  0.98467  0.37709  0.20005  1.0000
  H   H56       1.0  0.03058  0.38880  0.22074  1.0000
  H   H57       1.0  0.01149  0.35669  0.22750  1.0000
  C   C62       1.0  0.05939  0.61475  0.16172  1.0000
  C   C63       1.0  0.13929  0.63286  0.31072  1.0000
  H   H58       1.0  0.99579  0.47333  0.18357  1.0000
  C   C64       1.0  0.15682  0.63762  0.27422  1.0000
  C   C65       1.0  0.14099  0.63085  0.26592  1.0000
  C   C66       1.0  0.12424  0.62513  0.28009  1.0000
  C   C67       1.0  0.12340  0.62631  0.30239  1.0000
  S   S36       1.0  0.16976  0.51581  0.47268  1.0000
  H   H59       1.0  0.00871  0.38832  0.14148  1.0000
  H   H60       1.0  0.11195  0.61995  0.27382  1.0000
  H   H61       1.0  0.99079  0.43217  0.21572  1.0000
  H   H62       1.0  0.17901  0.35595  0.11180  1.0000
  C   C68       1.0  0.16528  0.35487  0.10888  1.0000
  C   C69       1.0  0.21539  0.52126  0.40433  1.0000
  N   N4        1.0  0.14308  0.50375  0.23083  1.0000
  C   C70       1.0  0.19858  0.61056  0.45304  1.0000
  C   C71       1.0  0.17549  0.55719  0.32913  1.0000
  C   C72       1.0  0.19430  0.55987  0.32658  1.0000
  C   C73       1.0  0.20538  0.57605  0.33087  1.0000
  C   C74       1.0  0.19769  0.58943  0.33802  1.0000
  C   C75       1.0  0.17895  0.58692  0.33983  1.0000
  C   C76       1.0  0.16787  0.57078  0.33560  1.0000
  H   H63       1.0  0.20031  0.54957  0.32107  1.0000
  H   H64       1.0  0.04006  0.53546  0.22817  1.0000
  H   H65       1.0  0.17292  0.59737  0.34443  1.0000
  H   H66       1.0  0.15331  0.56860  0.33784  1.0000
  C   C77       1.0  0.14571  0.45456  0.28267  1.0000
  C   C78       1.0  0.14350  0.44538  0.26491  1.0000
  C   C79       1.0  0.12694  0.44188  0.25712  1.0000
  C   C80       1.0  0.11227  0.44706  0.26749  1.0000
  C   C81       1.0  0.11448  0.45616  0.28534  1.0000
  C   C82       1.0  0.13118  0.46010  0.29276  1.0000
  H   H67       1.0  0.15467  0.44100  0.25703  1.0000
  H   H68       1.0  0.12534  0.43471  0.24350  1.0000
  H   H69       1.0  0.10317  0.46019  0.29345  1.0000
  H   H70       1.0  0.13272  0.46722  0.30642  1.0000
  C   C83       1.0  0.17397  0.48238  0.41777  1.0000
  H   H71       1.0  0.00407  0.64252  0.99193  1.0000
  C   C84       1.0  0.01892  0.45430  0.23520  1.0000
  H   H72       1.0  0.04295  0.34937  0.20198  1.0000
  H   H73       1.0  0.21372  0.55779  0.36839  1.0000
  H   H74       1.0  0.99513  0.55712  0.21714  1.0000
  H   H75       1.0  0.06688  0.63321  0.19401  1.0000
  H   H76       1.0  0.16981  0.64217  0.26330  1.0000
  H   H77       1.0  0.13994  0.44731  0.38758  1.0000
  N   N5        1.0  0.03954  0.36795  0.17531  1.0000
  C   C85       1.0  0.15174  0.33853  0.11644  1.0000
  C   C86       1.0  0.15602  0.63838  0.29656  1.0000
  H   H78       1.0  0.06445  0.63990  0.12618  1.0000
  C   C87       1.0  0.99946  0.47855  0.24655  1.0000
  S   S37       1.0  0.11180  0.32679  0.99287  1.0000
  H   H79       1.0  0.99786  0.42077  0.23871  1.0000
  N   N6        1.0  0.15659  0.59397  0.28378  1.0000
  C   C88       1.0  0.14290  0.58983  0.30150  1.0000
  C   C89       1.0  0.15303  0.58962  0.26409  1.0000
  C   C90       1.0  0.12511  0.58103  0.29979  1.0000
  C   C91       1.0  0.13538  0.58087  0.26178  1.0000
  C   C92       1.0  0.12137  0.57650  0.27980  1.0000
  C   C93       1.0  0.17534  0.60233  0.28609  1.0000
  H   H80       1.0  0.14562  0.59362  0.31700  1.0000
  H   H81       1.0  0.16379  0.59324  0.24992  1.0000
  H   H82       1.0  0.11428  0.57801  0.31383  1.0000
  H   H83       1.0  0.13251  0.57778  0.24602  1.0000
  H   H84       1.0  0.10760  0.56982  0.27817  1.0000
  H   H85       1.0  0.18282  0.61216  0.27108  1.0000
  H   H86       1.0  0.17577  0.61009  0.29984  1.0000
  H   H87       1.0  0.18243  0.59154  0.28936  1.0000
  H   H88       1.0  0.03923  0.40746  0.14425  1.0000
  C   C94       1.0  0.13960  0.52023  0.23230  1.0000
  H   H89       1.0  0.04292  0.47560  0.23621  1.0000
  H   H90       1.0  0.13436  0.52710  0.21942  1.0000
  N   N7        1.0  0.03903  0.49824  0.18166  1.0000
  C   C95       1.0  0.02051  0.49403  0.18397  1.0000
  C   C96       1.0  0.04805  0.48573  0.17638  1.0000
  C   C97       1.0  0.01051  0.47673  0.18157  1.0000
  C   C98       1.0  0.03851  0.46839  0.17365  1.0000
  C   C99       1.0  0.01961  0.46387  0.17632  1.0000
  C   C100      1.0  0.04947  0.51642  0.18406  1.0000
  H   H91       1.0  0.01336  0.50407  0.18757  1.0000
  H   H92       1.0  0.06273  0.48918  0.17411  1.0000
  C   C101      1.0  0.20548  0.32719  0.01502  1.0000
  H   H93       1.0  0.04573  0.45850  0.16946  1.0000
  C   C102      1.0  0.11065  0.65521  0.11415  1.0000
  H   H94       1.0  0.05957  0.51528  0.19487  1.0000
  H   H95       1.0  0.05684  0.52434  0.16783  1.0000
  H   H96       1.0  0.04057  0.52429  0.19136  1.0000
  H   H97       1.0  0.20889  0.63801  0.47282  1.0000
  Fe  Fe21      1.0  0.09939  0.32565  0.02798  1.0000
  H   H98       1.0  0.05960  0.37101  0.19579  1.0000
  H   H99       1.0  0.05336  0.60757  0.17872  1.0000
  H   H100      1.0  0.01201  0.45044  0.17427  1.0000
  C   C103      1.0  0.17777  0.33279  0.00416  1.0000
  C   C104      1.0  0.17738  0.48672  0.45504  1.0000
  H   H101      1.0  0.18601  0.34535  0.99371  1.0000
  N   N8        1.0  0.00037  0.44924  0.23779  1.0000
  C   C105      1.0  0.12524  0.43948  0.36194  1.0000
  C   C106      1.0  0.03460  0.39327  0.15223  1.0000
  C   C107      1.0  0.16896  0.49870  0.41441  1.0000
  C   C108      1.0  0.19067  0.59524  0.44440  1.0000
  H   H102      1.0  0.21992  0.57823  0.32871  1.0000
  H   H103      1.0  0.11038  0.62206  0.31324  1.0000
  Fe  Fe22      1.0  0.09138  0.34316  0.06842  1.0000
  H   H104      1.0  0.16559  0.50337  0.39884  1.0000
  H   H105      1.0  0.05880  0.39405  0.16577  1.0000
  H   H106      1.0  0.09050  0.40358  0.09502  1.0000
  H   H107      1.0  0.14831  0.64877  0.09533  1.0000
  H   H108      1.0  0.17169  0.38229  0.09126  1.0000
  C   C109      1.0  0.17275  0.64012  0.45324  1.0000
  S   S38       1.0  0.21645  0.34491  0.06333  1.0000
  H   H109      1.0  0.04900  0.61059  0.15143  1.0000
  C   C110      1.0  0.99049  0.36314  0.21115  1.0000
  H   H110      1.0  0.15219  0.33806  0.05919  1.0000
  S   S39       1.0  0.09148  0.37044  0.07921  1.0000
  H   H111      1.0  0.06041  0.35474  0.17775  1.0000
  C   C111      1.0  0.02303  0.35718  0.17336  1.0000
  C   C112      1.0  0.01640  0.54424  0.22233  1.0000
  H   H112      1.0  0.12628  0.48287  0.21810  1.0000
  S   S40       1.0  0.00406  0.52194  0.22110  1.0000
  H   H113      1.0  0.15200  0.52609  0.28143  1.0000
  C   C113      1.0  0.99529  0.39525  0.19657  1.0000
  H   H114      1.0  0.15178  0.39454  0.07219  1.0000
  H   H115      1.0  0.11338  0.44358  0.36843  1.0000
  H   H116      1.0  0.99167  0.48797  0.25089  1.0000
  H   H117      1.0  0.16347  0.52117  0.42882  1.0000
  H   H118      1.0  0.13945  0.54135  0.25173  1.0000
  H   H119      1.0  0.13149  0.37919  0.06779  1.0000
  C   C114      1.0  0.99064  0.46117  0.24321  1.0000
  C   C115      1.0  0.17205  0.50289  0.45174  1.0000
  C   C116      1.0  0.16777  0.50877  0.43143  1.0000
  H   H120      1.0  0.02526  0.49749  0.24612  1.0000
  C   C117      1.0  0.01755  0.38252  0.15060  1.0000
  S   S41       1.0  0.20548  0.64591  0.38271  1.0000
  S   S42       1.0  0.11691  0.33935  0.04992  1.0000
  C   C118      1.0  0.01835  0.48387  0.24389  1.0000
  C   C119      1.0  0.15546  0.43664  0.36381  1.0000
  S   S43       1.0  0.07464  0.33248  0.04378  1.0000
  H   H121      1.0  0.18066  0.48204  0.47065  1.0000
  H   H122      1.0  0.13754  0.64613  0.06024  1.0000
  C   C120      1.0  0.02820  0.47167  0.23823  1.0000
  C   C121      1.0  0.14144  0.42767  0.33415  1.0000
  C   C122      1.0  0.20947  0.53600  0.39553  1.0000
  C   C123      1.0  0.16109  0.36964  0.09703  1.0000
  H   H123      1.0  0.02663  0.44488  0.23078  1.0000
  H   H124      1.0  0.16871  0.41268  0.32777  1.0000
  C   C124      1.0  0.15339  0.50326  0.26529  1.0000
  H   H125      1.0  0.18066  0.42241  0.34782  1.0000
  C   C125      1.0  0.04555  0.38566  0.16457  1.0000
  C   C126      1.0  0.14265  0.52848  0.25051  1.0000
  C   C127      1.0  0.14960  0.51991  0.26713  1.0000
  H   H126      1.0  0.13107  0.38946  0.09194  1.0000
  S   S44       1.0  0.21168  0.60888  0.34506  1.0000
  H   H127      1.0  0.13608  0.50386  0.19884  1.0000
  N   N9        1.0  0.14395  0.36804  0.09256  1.0000
  C   C128      1.0  0.05117  0.36032  0.18834  1.0000
  H   H128      1.0  0.14207  0.42280  0.31867  1.0000
  C   C129      1.0  0.13867  0.49452  0.21248  1.0000
  C   C130      1.0  0.03428  0.54692  0.22601  1.0000
  C   C131      1.0  0.14008  0.44153  0.37271  1.0000
  H   H129      1.0  0.15877  0.49641  0.27808  1.0000
  C   C132      1.0  0.21863  0.54658  0.37533  1.0000
  H   H130      1.0  0.15275  0.48227  0.24579  1.0000
  C   C133      1.0  0.12589  0.43253  0.34251  1.0000
  H   H131      1.0  0.19766  0.53900  0.40410  1.0000
  C   C134      1.0  0.17230  0.42509  0.33532  1.0000
  H   H132      1.0  0.18066  0.43661  0.32242  1.0000
  H   H133      1.0  0.18914  0.59676  0.42735  1.0000
  H   H134      1.0  0.16710  0.43875  0.37203  1.0000
  C   C135      1.0  0.18035  0.34068  0.06143  1.0000
  C   C136      1.0  0.01177  0.36431  0.16105  1.0000
  H   H135      1.0  0.11718  0.35071  0.09600  1.0000
  C   C137      1.0  0.13428  0.33710  0.11198  1.0000
  H   H136      1.0  0.11461  0.43125  0.33368  1.0000
  N   N10       1.0  0.15590  0.42962  0.34488  1.0000
  C   C138      1.0  0.99097  0.43134  0.23350  1.0000
  H   H137      1.0  0.10594  0.64601  0.10326  1.0000
  H   H138      1.0  0.20330  0.62378  0.44235  1.0000
  H   H139      1.0  0.01813  0.34317  0.18197  1.0000
  H   H140      1.0  0.23171  0.48691  0.35208  1.0000
  C   C139      1.0  0.19311  0.33240  0.06936  1.0000
  H   H141      1.0  0.15487  0.32680  0.12516  1.0000
  H   H142      1.0  0.21232  0.32472  0.99939  1.0000
  C   C140      1.0  0.16637  0.63374  0.47569  1.0000
  N   N11       1.0  0.06474  0.63463  0.16034  1.0000
  C   C141      1.0  0.06695  0.64574  0.14062  1.0000
  H   H143      1.0  0.21039  0.34188  0.01616  1.0000
  H   H144      1.0  0.12354  0.65486  0.16386  1.0000
  N   N12       1.0  0.19970  0.60902  0.47476  1.0000
  S   S45       1.0  0.19132  0.65043  0.33522  1.0000
  C   C142      1.0  0.15892  0.32802  0.00514  1.0000
  C   C143      1.0  0.16169  0.33144  0.06551  1.0000
  H   H145      1.0  0.08109  0.34220  0.99004  1.0000
  C   C144      1.0  0.23042  0.51736  0.39299  1.0000
  H   H146      1.0  0.02513  0.63808  0.98116  1.0000
  C   C145      1.0  0.06852  0.64199  0.17841  1.0000
  C   C146      1.0  0.18534  0.65718  0.44624  1.0000
  H   H147      1.0  0.23298  0.54977  0.33061  1.0000
  H   H148      1.0  0.12377  0.32429  0.11729  1.0000
  C   C147      1.0  0.18586  0.57669  0.48001  1.0000
  Fe  Fe23      1.0  0.20096  0.53959  0.52998  1.0000
  S   S46       1.0  0.17190  0.52997  0.52694  1.0000
  S   S47       1.0  0.21599  0.56932  0.52378  1.0000
  H   H149      1.0  0.15665  0.62052  0.48116  1.0000
  S   S48       1.0  0.17661  0.48854  0.53136  1.0000
  Fe  Fe24      1.0  0.18084  0.51244  0.50424  1.0000
  H   H150      1.0  0.14411  0.45287  0.50381  1.0000
  Fe  Fe25      1.0  0.16982  0.50703  0.55435  1.0000
  S   S49       1.0  0.14413  0.50219  0.57940  1.0000
  H   H151      1.0  0.09962  0.37239  0.84363  1.0000
  S   S50       1.0  0.19851  0.51844  0.55940  1.0000
  Fe  Fe26      1.0  0.19064  0.64108  0.57925  1.0000
  S   S51       1.0  0.16802  0.63942  0.56005  1.0000
  C   C148      1.0  0.14764  0.35494  0.83805  1.0000
  C   C149      1.0  0.99296  0.49989  0.72588  1.0000
  C   C150      1.0  0.15017  0.59980  0.66912  1.0000
  H   H152      1.0  0.12892  0.59113  0.69761  1.0000
  H   H153      1.0  0.15578  0.62026  0.60571  1.0000
  C   C151      1.0  0.01982  0.52464  0.72330  1.0000
  H   H154      1.0  0.10411  0.58784  0.67602  1.0000
  Fe  Fe27      1.0  0.08894  0.44229  0.68854  1.0000
  S   S52       1.0  0.09756  0.45252  0.71846  1.0000
  S   S53       1.0  0.11097  0.43921  0.66239  1.0000
  Fe  Fe28      1.0  0.04920  0.44088  0.70391  1.0000
  S   S54       1.0  0.05518  0.45191  0.73414  1.0000
  S   S55       1.0  0.02065  0.43782  0.69722  1.0000
  Fe  Fe29      1.0  0.07984  0.47134  0.71276  1.0000
  S   S56       1.0  0.09087  0.50204  0.70790  1.0000
  Fe  Fe30      1.0  0.07214  0.43189  0.73721  1.0000
  S   S57       1.0  0.06661  0.41524  0.77152  1.0000
  S   S58       1.0  0.07248  0.46206  0.68211  1.0000
  S   S59       1.0  0.06485  0.41983  0.70782  1.0000
  H   H155      1.0  0.18725  0.57546  0.59605  1.0000
  Fe  Fe31      1.0  0.08191  0.61377  0.72209  1.0000
  S   S60       1.0  0.07947  0.59998  0.75694  1.0000
  S   S61       1.0  0.11038  0.62536  0.70258  1.0000
  Fe  Fe32      1.0  0.04126  0.60743  0.72574  1.0000
  S   S62       1.0  0.03574  0.59351  0.76049  1.0000
  S   S63       1.0  0.01838  0.61262  0.70940  1.0000
  Fe  Fe33      1.0  0.05930  0.61587  0.76507  1.0000
  S   S64       1.0  0.05385  0.62850  0.79535  1.0000
  Fe  Fe34      1.0  0.05631  0.57905  0.74914  1.0000
  S   S65       1.0  0.04881  0.54851  0.76059  1.0000
  S   S66       1.0  0.06329  0.63108  0.73082  1.0000
  S   S67       1.0  0.06027  0.59152  0.71375  1.0000
  S   S68       1.0  0.10048  0.33165  0.86542  1.0000
  C   C152      1.0  0.13562  0.36465  0.83133  1.0000
  C   C153      1.0  0.00399  0.59443  0.70058  1.0000
  C   C154      1.0  0.99940  0.57634  0.71182  1.0000
  H   H156      1.0  0.13592  0.44393  0.54435  1.0000
  C   C155      1.0  0.12743  0.50659  0.50493  1.0000
  H   H157      1.0  0.00553  0.57308  0.72582  1.0000
  C   C156      1.0  0.07936  0.51473  0.72315  1.0000
  C   C157      1.0  0.08420  0.53382  0.71715  1.0000
  C   C158      1.0  0.07502  0.54434  0.72867  1.0000
  C   C159      1.0  0.06106  0.53580  0.74639  1.0000
  C   C160      1.0  0.05630  0.51671  0.75248  1.0000
  C   C161      1.0  0.06536  0.50617  0.74082  1.0000
  H   H158      1.0  0.09504  0.54051  0.70353  1.0000
  H   H159      1.0  0.07879  0.55904  0.72392  1.0000
  H   H160      1.0  0.04552  0.51005  0.76621  1.0000
  H   H161      1.0  0.06163  0.49147  0.74566  1.0000
  C   C162      1.0  0.07576  0.39725  0.78081  1.0000
  C   C163      1.0  0.08882  0.39201  0.76733  1.0000
  C   C164      1.0  0.09518  0.37712  0.77526  1.0000
  C   C165      1.0  0.08836  0.36722  0.79655  1.0000
  C   C166      1.0  0.07536  0.37252  0.81005  1.0000
  C   C167      1.0  0.06917  0.38753  0.80222  1.0000
  H   H162      1.0  0.09402  0.39944  0.75084  1.0000
  H   H163      1.0  0.10529  0.37312  0.76474  1.0000
  H   H164      1.0  0.06997  0.36500  0.82646  1.0000
  H   H165      1.0  0.05907  0.39154  0.81274  1.0000
  H   H166      1.0  0.12829  0.50732  0.48698  1.0000
  C   C168      1.0  0.00160  0.38257  0.70709  1.0000
  C   C169      1.0  0.01304  0.40026  0.70516  1.0000
  C   C170      1.0  0.00678  0.41549  0.69904  1.0000
  H   H167      1.0  0.12192  0.37743  0.87852  1.0000
  H   H168      1.0  0.98605  0.64931  0.95859  1.0000
  H   H169      1.0  0.00656  0.37084  0.71167  1.0000
  H   H170      1.0  0.02669  0.40209  0.70836  1.0000
  C   C171      1.0  0.99969  0.61654  0.85280  1.0000
  C   C172      1.0  0.13214  0.59385  0.67987  1.0000
  C   C173      1.0  0.11340  0.38205  0.83882  1.0000
  H   H171      1.0  0.06591  0.35420  0.74688  1.0000
  C   C174      1.0  0.03529  0.35546  0.78976  1.0000
  S   S69       1.0  0.09619  0.34818  0.80549  1.0000
  N   N13       1.0  0.04566  0.36012  0.76928  1.0000
  C   C175      1.0  0.11492  0.63218  0.67402  1.0000
  C   C176      1.0  0.98897  0.41292  0.69497  1.0000
  C   C177      1.0  0.17252  0.64441  0.49110  1.0000
  C   C178      1.0  0.99189  0.58770  0.80969  1.0000
  N   N14       1.0  0.01450  0.65471  0.95873  1.0000
  C   C179      1.0  0.11816  0.59197  0.66771  1.0000
  S   S70       1.0  0.19348  0.61411  0.59504  1.0000
  H   H172      1.0  0.16802  0.60880  0.63794  1.0000
  H   H173      1.0  0.03830  0.38514  0.76205  1.0000
  H   H174      1.0  0.13295  0.36507  0.81474  1.0000
  H   H175      1.0  0.09237  0.64739  0.77953  1.0000
  H   H176      1.0  0.03000  0.48218  0.68688  1.0000
  H   H177      1.0  0.08716  0.62445  0.66916  1.0000
  C   C180      1.0  0.13472  0.48367  0.60129  1.0000
  C   C181      1.0  0.11842  0.48329  0.61458  1.0000
  C   C182      1.0  0.11090  0.46957  0.63305  1.0000
  C   C183      1.0  0.11949  0.45595  0.63837  1.0000
  C   C184      1.0  0.13549  0.45594  0.62461  1.0000
  C   C185      1.0  0.14315  0.46981  0.60616  1.0000
  H   H178      1.0  0.11170  0.49384  0.61079  1.0000
  H   H179      1.0  0.09846  0.46959  0.64319  1.0000
  H   H180      1.0  0.14218  0.44538  0.62853  1.0000
  H   H181      1.0  0.15569  0.46992  0.59598  1.0000
  C   C186      1.0  0.20967  0.58149  0.54385  1.0000
  C   C187      1.0  0.19959  0.57239  0.56428  1.0000
  C   C188      1.0  0.19486  0.58247  0.58014  1.0000
  C   C189      1.0  0.19972  0.60161  0.57531  1.0000
  C   C190      1.0  0.20953  0.61066  0.55474  1.0000
  C   C191      1.0  0.21481  0.60061  0.53919  1.0000
  H   H182      1.0  0.19558  0.55762  0.56794  1.0000
  H   H183      1.0  0.14896  0.59650  0.60356  1.0000
  H   H184      1.0  0.09515  0.63388  0.62867  1.0000
  H   H185      1.0  0.05694  0.38305  0.74357  1.0000
  N   N15       1.0  0.00089  0.59794  0.82504  1.0000
  H   H186      1.0  0.02596  0.36324  0.79478  1.0000
  C   C192      1.0  0.01815  0.59762  0.82752  1.0000
  H   H187      1.0  0.11367  0.39433  0.84648  1.0000
  C   C193      1.0  0.02665  0.60692  0.84260  1.0000
  S   S71       1.0  0.22772  0.48714  0.53504  1.0000
  C   C194      1.0  0.03335  0.48535  0.70284  1.0000
  H   H188      1.0  0.11596  0.38658  0.82080  1.0000
  H   H189      1.0  0.02568  0.59056  0.81745  1.0000
  H   H190      1.0  0.00181  0.58459  0.79719  1.0000
  H   H191      1.0  0.14298  0.36030  0.89120  1.0000
  H   H192      1.0  0.19445  0.59111  0.50536  1.0000
  H   H193      1.0  0.99744  0.47590  0.71450  1.0000
  H   H194      1.0  0.20047  0.62523  0.49980  1.0000
  H   H195      1.0  0.05034  0.64578  0.83276  1.0000
  N   N16       1.0  0.12944  0.48914  0.51557  1.0000
  C   C195      1.0  0.13620  0.47800  0.50340  1.0000
  C   C196      1.0  0.12515  0.48445  0.53784  1.0000
  C   C197      1.0  0.13852  0.46152  0.51351  1.0000
  C   C198      1.0  0.12723  0.46805  0.54848  1.0000
  C   C199      1.0  0.13395  0.45653  0.53621  1.0000
  H   H196      1.0  0.22283  0.60767  0.52352  1.0000
  C   C200      1.0  0.99161  0.60712  0.83755  1.0000
  H   H197      1.0  0.12032  0.49354  0.54757  1.0000
  H   H198      1.0  0.04058  0.60713  0.84391  1.0000
  C   C201      1.0  0.06421  0.65113  0.82429  1.0000
  H   H199      1.0  0.12400  0.46453  0.56618  1.0000
  H   H200      1.0  0.11413  0.50859  0.51164  1.0000
  H   H201      1.0  0.13850  0.51799  0.50760  1.0000
  C   C202      1.0  0.01202  0.63983  0.97715  1.0000
  C   C203      1.0  0.14129  0.36181  0.87421  1.0000
  H   H202      1.0  0.06463  0.34746  0.95941  1.0000
  H   H203      1.0  0.16113  0.60141  0.67843  1.0000
  H   H204      1.0  0.02630  0.53824  0.72600  1.0000
  C   C204      1.0  0.03027  0.51406  0.71421  1.0000
  N   N17       1.0  0.14015  0.60266  0.63453  1.0000
  N   N18       1.0  0.12686  0.37296  0.84566  1.0000
  H   H205      1.0  0.04484  0.51980  0.70967  1.0000
  S   S72       1.0  0.21021  0.52375  0.50550  1.0000
  C   C205      1.0  0.00106  0.51744  0.72924  1.0000
  H   H206      1.0  0.15940  0.34559  0.86519  1.0000
  Fe  Fe35      1.0  0.20561  0.50161  0.53456  1.0000
  C   C206      1.0  0.12243  0.59648  0.64490  1.0000
  H   H207      1.0  0.21342  0.62543  0.55102  1.0000
  H   H208      1.0  0.02387  0.62396  0.86679  1.0000
  H   H209      1.0  0.13286  0.61026  0.60349  1.0000
  C   C207      1.0  0.13306  0.63945  0.66373  1.0000
  S   S73       1.0  0.06805  0.33880  0.91618  1.0000
  H   H210      1.0  0.98404  0.42466  0.69027  1.0000
  C   C208      1.0  0.15045  0.35349  0.85964  1.0000
  C   C209      1.0  0.07585  0.34141  0.95715  1.0000
  C   C210      1.0  0.08513  0.33842  0.97451  1.0000
  H   H211      1.0  0.11148  0.59558  0.63562  1.0000
  C   C211      1.0  0.13756  0.64465  0.64098  1.0000
  C   C212      1.0  0.06990  0.64482  0.80522  1.0000
  H   H212      1.0  0.14371  0.64106  0.67345  1.0000
  H   H213      1.0  0.14007  0.48192  0.48578  1.0000
  C   C213      1.0  0.03697  0.34095  0.80475  1.0000
  C   C214      1.0  0.05959  0.33584  0.77761  1.0000
  C   C215      1.0  0.10579  0.63538  0.63842  1.0000
  C   C216      1.0  0.14454  0.60753  0.61066  1.0000
  H   H214      1.0  0.98347  0.40173  0.74099  1.0000
  H   H215      1.0  0.03060  0.47224  0.71435  1.0000
  H   H216      1.0  0.15439  0.34817  0.82674  1.0000
  C   C217      1.0  0.08782  0.65211  0.79424  1.0000
  H   H217      1.0  0.15151  0.65063  0.63358  1.0000
  N   N19       1.0  0.13237  0.50230  0.65718  1.0000
  C   C218      1.0  0.14745  0.50584  0.64132  1.0000
  C   C219      1.0  0.12924  0.48846  0.67461  1.0000
  C   C220      1.0  0.15960  0.49504  0.64240  1.0000
  C   C221      1.0  0.14102  0.47730  0.67613  1.0000
  C   C222      1.0  0.15624  0.48059  0.65985  1.0000
  C   C223      1.0  0.11937  0.51329  0.65578  1.0000
  H   H218      1.0  0.14982  0.51660  0.62725  1.0000
  H   H219      1.0  0.11731  0.48572  0.68715  1.0000
  H   H220      1.0  0.17114  0.49744  0.62935  1.0000
  H   H221      1.0  0.13798  0.46579  0.68945  1.0000
  H   H222      1.0  0.16515  0.47166  0.66049  1.0000
  H   H223      1.0  0.12028  0.52207  0.66851  1.0000
  H   H224      1.0  0.12173  0.52197  0.63944  1.0000
  H   H225      1.0  0.10529  0.50419  0.65869  1.0000
  C   C224      1.0  0.05755  0.35040  0.76303  1.0000
  C   C225      1.0  0.10508  0.32616  0.95128  1.0000
  C   C226      1.0  0.15397  0.60406  0.64627  1.0000
  C   C227      1.0  0.10122  0.63012  0.66134  1.0000
  H   H226      1.0  0.99920  0.61253  0.67406  1.0000
  C   C228      1.0  0.12401  0.64270  0.62816  1.0000
  H   H227      1.0  0.99282  0.52543  0.73651  1.0000
  N   N20       1.0  0.02227  0.49667  0.71150  1.0000
  C   C229      1.0  0.12947  0.37155  0.86691  1.0000
  H   H228      1.0  0.99231  0.62394  0.86252  1.0000
  C   C230      1.0  0.04358  0.37517  0.75360  1.0000
  C   C231      1.0  0.99581  0.59860  0.68271  1.0000
  H   H229      1.0  0.22236  0.62487  0.48552  1.0000
  C   C232      1.0  0.98639  0.56260  0.70526  1.0000
  H   H230      1.0  0.04816  0.49207  0.70059  1.0000
  C   C233      1.0  0.01735  0.61648  0.85526  1.0000
  H   H231      1.0  0.16754  0.63942  0.50837  1.0000
  S   S74       1.0  0.12944  0.65022  0.59954  1.0000
  H   H232      1.0  0.18116  0.56350  0.49072  1.0000
  C   C234      1.0  0.20833  0.62506  0.48362  1.0000
  C   C235      1.0  0.00383  0.48961  0.71694  1.0000
  H   H233      1.0  0.03419  0.36980  0.74265  1.0000
  C   C236      1.0  0.08085  0.33631  0.93703  1.0000
  H   H234      1.0  0.02909  0.33753  0.82117  1.0000
  H   H235      1.0  0.00431  0.62669  0.97328  1.0000
  H   H236      1.0  0.22910  0.50697  0.57154  1.0000
  C   C237      1.0  0.04926  0.33114  0.79861  1.0000
  H   H237      1.0  0.09940  0.32461  0.91872  1.0000
  C   C238      1.0  0.19351  0.59236  0.48819  1.0000
  S   S75       1.0  0.05795  0.32541  0.85977  1.0000
  C   C239      1.0  0.09981  0.33083  0.97158  1.0000
  C   C240      1.0  0.98342  0.58487  0.67575  1.0000
  H   H238      1.0  0.06960  0.32865  0.77296  1.0000
  C   C241      1.0  0.98379  0.37998  0.70307  1.0000
  Fe  Fe36      1.0  0.07357  0.32492  0.88744  1.0000
  Fe  Fe37      1.0  0.08461  0.32910  0.83808  1.0000
  C   C242      1.0  0.09548  0.32865  0.93414  1.0000
  Fe  Fe38      1.0  0.15886  0.65711  0.58255  1.0000
  H   H239      1.0  0.98399  0.59568  0.80090  1.0000
  H   H240      1.0  0.98362  0.61095  0.73977  1.0000
  S   S76       1.0  0.98349  0.65643  0.84377  1.0000
  C   C243      1.0  0.14910  0.66098  0.08380  1.0000
  C   C244      1.0  0.07477  0.66092  0.17699  1.0000
  H   H241      1.0  0.14977  0.70402  0.04367  1.0000
  S   S77       1.0  0.21056  0.69788  0.35356  1.0000
  H   H242      1.0  0.14667  0.68229  0.01529  1.0000
  S   S78       1.0  0.20687  0.85827  0.07767  1.0000
  H   H243      1.0  0.07480  0.67355  0.12301  1.0000
  C   C245      1.0  0.09160  0.69568  0.98205  1.0000
  Fe  Fe39      1.0  0.13537  0.76306  0.05332  1.0000
  S   S79       1.0  0.14516  0.73771  0.05641  1.0000
  S   S80       1.0  0.15984  0.78907  0.04331  1.0000
  Fe  Fe40      1.0  0.09530  0.73848  0.05569  1.0000
  S   S81       1.0  0.10338  0.71224  0.05885  1.0000
  S   S82       1.0  0.06595  0.73875  0.05330  1.0000
  Fe  Fe41      1.0  0.12047  0.72451  0.08212  1.0000
  S   S83       1.0  0.12338  0.70991  0.11477  1.0000
  Fe  Fe42      1.0  0.12709  0.72810  0.03291  1.0000
  C   C246      1.0  0.06507  0.74072  0.99754  1.0000
  S   S84       1.0  0.11123  0.75027  0.08074  1.0000
  S   S85       1.0  0.11835  0.75379  0.02812  1.0000
  H   H244      1.0  0.02249  0.67814  0.05268  1.0000
  C   C247      1.0  0.04461  0.72285  0.05322  1.0000
  C   C248      1.0  0.04195  0.70397  0.05337  1.0000
  C   C249      1.0  0.01261  0.71898  0.05066  1.0000
  C   C250      1.0  0.02975  0.73010  0.05181  1.0000
  H   H245      1.0  0.05327  0.69813  0.05428  1.0000
  H   H246      1.0  0.03150  0.74457  0.05157  1.0000
  H   H247      1.0  0.19696  0.83887  0.12516  1.0000
  C   C251      1.0  0.12298  0.67896  0.14213  1.0000
  C   C252      1.0  0.11948  0.68607  0.12186  1.0000
  C   C253      1.0  0.15541  0.67820  0.08921  1.0000
  C   C254      1.0  0.22950  0.81411  0.09377  1.0000
  H   H248      1.0  0.12789  0.68812  0.15299  1.0000
  H   H249      1.0  0.19037  0.66217  0.42897  1.0000
  C   C255      1.0  0.19428  0.83877  0.06805  1.0000
  C   C256      1.0  0.17640  0.82975  0.07886  1.0000
  C   C257      1.0  0.16591  0.81421  0.07213  1.0000
  C   C258      1.0  0.17304  0.80749  0.05419  1.0000
  C   C259      1.0  0.19104  0.81637  0.04359  1.0000
  C   C260      1.0  0.20161  0.83176  0.05050  1.0000
  H   H250      1.0  0.17049  0.83493  0.09247  1.0000
  H   H251      1.0  0.15211  0.80775  0.08044  1.0000
  H   H252      1.0  0.19693  0.81130  0.02989  1.0000
  H   H253      1.0  0.21535  0.83834  0.04204  1.0000
  C   C261      1.0  0.02447  0.69263  0.05240  1.0000
  H   H254      1.0  0.22484  0.80490  0.08279  1.0000
  C   C262      1.0  0.11316  0.67413  0.10790  1.0000
  C   C263      1.0  0.00966  0.70018  0.05105  1.0000
  C   C264      1.0  0.12123  0.67092  0.32251  1.0000
  H   H255      1.0  0.12392  0.67843  0.02977  1.0000
  H   H256      1.0  0.21573  0.85816  0.12391  1.0000
  H   H257      1.0  0.16124  0.78364  0.99831  1.0000
  C   C265      1.0  0.15562  0.69378  0.07473  1.0000
  H   H258      1.0  0.03523  0.71407  0.00455  1.0000
  C   C266      1.0  0.14288  0.65959  0.06399  1.0000
  H   H259      1.0  0.05521  0.74174  0.01102  1.0000
  C   C267      1.0  0.17889  0.81036  0.98427  1.0000
  C   C268      1.0  0.15195  0.67908  0.30068  1.0000
  H   H260      1.0  0.07751  0.68916  0.98911  1.0000
  H   H261      1.0  0.20336  0.81859  0.10281  1.0000
  C   C269      1.0  0.12218  0.71060  0.98655  1.0000
  C   C270      1.0  0.10386  0.70251  0.99550  1.0000
  H   H262      1.0  0.08686  0.76009  0.00677  1.0000
  C   C271      1.0  0.14958  0.69189  0.05492  1.0000
  H   H263      1.0  0.13961  0.68321  0.35281  1.0000
  H   H264      1.0  0.11037  0.67949  0.09227  1.0000
  S   S86       1.0  0.13808  0.71808  0.00324  1.0000
  H   H265      1.0  0.22785  0.73285  0.36271  1.0000
  C   C272      1.0  0.16804  0.79311  0.98331  1.0000
  S   S87       1.0  0.98714  0.68757  0.04945  1.0000
  H   H266      1.0  0.22720  0.85797  0.98745  1.0000
  H   H267      1.0  0.00149  0.72511  0.04951  1.0000
  H   H268      1.0  0.18042  0.81433  0.00001  1.0000
  C   C273      1.0  0.14827  0.68417  0.33732  1.0000
  H   H269      1.0  0.20125  0.68103  0.45610  1.0000
  C   C274      1.0  0.16705  0.69126  0.33537  1.0000
  H   H270      1.0  0.20966  0.83972  0.14730  1.0000
  C   C275      1.0  0.17838  0.69186  0.31583  1.0000
  N   N21       1.0  0.14326  0.67497  0.04981  1.0000
  N   N22       1.0  0.14097  0.67808  0.32013  1.0000
  H   H271      1.0  0.09920  0.70115  0.01285  1.0000
  H   H272      1.0  0.19300  0.69682  0.31445  1.0000
  C   C276      1.0  0.17082  0.68577  0.29832  1.0000
  H   H273      1.0  0.17950  0.68593  0.28313  1.0000
  H   H274      1.0  0.15951  0.67944  0.10493  1.0000
  H   H275      1.0  0.15999  0.70719  0.07912  1.0000
  H   H276      1.0  0.17286  0.69587  0.34912  1.0000
  H   H277      1.0  0.07811  0.66663  0.19127  1.0000
  C   C277      1.0  0.21740  0.82200  0.10507  1.0000
  H   H278      1.0  0.14619  0.67412  0.28708  1.0000
  H   H279      1.0  0.08221  0.68705  0.15545  1.0000
  C   C278      1.0  0.12041  0.66010  0.14839  1.0000
  C   C279      1.0  0.19148  0.66784  0.46163  1.0000
  C   C280      1.0  0.08299  0.75134  0.99501  1.0000
  C   C281      1.0  0.23276  0.70701  0.35832  1.0000
  C   C282      1.0  0.13637  0.67356  0.02928  1.0000
  Fe  Fe43      1.0  0.19723  0.66735  0.36134  1.0000
  C   C283      1.0  0.07696  0.67235  0.15697  1.0000
  C   C284      1.0  0.21077  0.84310  0.12932  1.0000
  N   N23       1.0  0.06012  0.72903  0.98347  1.0000
  N   N24       1.0  0.22329  0.83426  0.11822  1.0000
  H   H280      1.0  0.13306  0.65934  0.02603  1.0000
  H   H281      1.0  0.11478  0.68234  0.32090  1.0000
  C   C285      1.0  0.07283  0.66475  0.13871  1.0000
  H   H282      1.0  0.23134  0.72623  0.44824  1.0000
  H   H283      1.0  0.11560  0.66194  0.33872  1.0000
  H   H284      1.0  0.11752  0.66226  0.31011  1.0000
  C   C286      1.0  0.04137  0.71757  0.98686  1.0000
  S   S88       1.0  0.16807  0.65917  0.37858  1.0000
  H   H285      1.0  0.04087  0.70441  0.98108  1.0000
  H   H286      1.0  0.04038  0.66038  0.78331  1.0000
  S   S89       1.0  0.17445  0.68305  0.55960  1.0000
  C   C287      1.0  0.00141  0.67194  0.93363  1.0000
  H   H287      1.0  0.06839  0.71961  0.95427  1.0000
  C   C288      1.0  0.22758  0.71880  0.49067  1.0000
  S   S90       1.0  0.19908  0.83859  0.85661  1.0000
  H   H288      1.0  0.20350  0.80551  0.82438  1.0000
  Fe  Fe44      1.0  0.07127  0.71987  0.87383  1.0000
  S   S91       1.0  0.07450  0.69183  0.88219  1.0000
  S   S92       1.0  0.04241  0.72034  0.86979  1.0000
  Fe  Fe45      1.0  0.11187  0.73884  0.87664  1.0000
  S   S93       1.0  0.11682  0.71108  0.88459  1.0000
  S   S94       1.0  0.13772  0.76124  0.87910  1.0000
  Fe  Fe46      1.0  0.10068  0.70282  0.85848  1.0000
  S   S95       1.0  0.10968  0.68927  0.83057  1.0000
  Fe  Fe47      1.0  0.08995  0.70321  0.90727  1.0000
  S   S96       1.0  0.08170  0.68969  0.94277  1.0000
  S   S97       1.0  0.09723  0.73090  0.84888  1.0000
  S   S98       1.0  0.08527  0.73090  0.90054  1.0000
  C   C289      1.0  0.02552  0.70111  0.86575  1.0000
  C   C290      1.0  0.00748  0.70211  0.86667  1.0000
  C   C291      1.0  0.18781  0.82236  0.96486  1.0000
  C   C292      1.0  0.99842  0.67229  0.85580  1.0000
  C   C293      1.0  0.01635  0.67107  0.85550  1.0000
  C   C294      1.0  0.02975  0.68524  0.86070  1.0000
  H   H289      1.0  0.00400  0.71429  0.87051  1.0000
  H   H290      1.0  0.07295  0.72238  0.79827  1.0000
  H   H291      1.0  0.16360  0.68818  0.66654  1.0000
  H   H292      1.0  0.04353  0.68423  0.85966  1.0000
  C   C295      1.0  0.03405  0.70156  0.80956  1.0000
  S   S99       1.0  0.19381  0.67503  0.50273  1.0000
  H   H293      1.0  0.15533  0.73283  0.85859  1.0000
  C   C296      1.0  0.09420  0.67193  0.82133  1.0000
  C   C297      1.0  0.01869  0.68305  0.92412  1.0000
  Fe  Fe48      1.0  0.19726  0.68216  0.57796  1.0000
  H   H294      1.0  0.18404  0.69997  0.63037  1.0000
  H   H295      1.0  0.10511  0.67109  0.65010  1.0000
  H   H296      1.0  0.03210  0.71286  0.81743  1.0000
  C   C298      1.0  0.22422  0.71668  0.51348  1.0000
  C   C299      1.0  0.09747  0.69753  0.95949  1.0000
  C   C300      1.0  0.07238  0.72850  0.96580  1.0000
  C   C301      1.0  0.19750  0.77754  0.84070  1.0000
  C   C302      1.0  0.17820  0.78902  0.81855  1.0000
  C   C303      1.0  0.12807  0.71227  0.96405  1.0000
  C   C304      1.0  0.11569  0.70605  0.95048  1.0000
  S   S100      1.0  0.22751  0.87598  0.88573  1.0000
  H   H297      1.0  0.14224  0.71846  0.95705  1.0000
  H   H298      1.0  0.12035  0.70752  0.93312  1.0000
  C   C305      1.0  0.18181  0.81722  0.86447  1.0000
  C   C306      1.0  0.16594  0.81495  0.85519  1.0000
  C   C307      1.0  0.15223  0.79817  0.85988  1.0000
  C   C308      1.0  0.15412  0.78320  0.87394  1.0000
  C   C309      1.0  0.16986  0.78552  0.88353  1.0000
  C   C310      1.0  0.18360  0.80235  0.87884  1.0000
  H   H299      1.0  0.16428  0.82627  0.84410  1.0000
  H   H300      1.0  0.14027  0.79677  0.85238  1.0000
  H   H301      1.0  0.17161  0.77409  0.89434  1.0000
  H   H302      1.0  0.19575  0.80368  0.88596  1.0000
  H   H303      1.0  0.22758  0.73024  0.54111  1.0000
  N   N25       1.0  0.16912  0.75770  0.83677  1.0000
  H   H304      1.0  0.15329  0.76963  0.81689  1.0000
  H   H305      1.0  0.11377  0.67110  0.79373  1.0000
  N   N26       1.0  0.18553  0.81749  0.94503  1.0000
  C   C311      1.0  0.07626  0.66463  0.83228  1.0000
  C   C312      1.0  0.19528  0.83006  0.92487  1.0000
  C   C313      1.0  0.09991  0.66557  0.80231  1.0000
  H   H306      1.0  0.10833  0.67492  0.62099  1.0000
  H   H307      1.0  0.22309  0.70696  0.48309  1.0000
  H   H308      1.0  0.19734  0.84454  0.92701  1.0000
  H   H309      1.0  0.07165  0.66936  0.84691  1.0000
  C   C314      1.0  0.16580  0.77169  0.82340  1.0000
  H   H310      1.0  0.06209  0.71626  0.82671  1.0000
  H   H311      1.0  0.10022  0.73818  0.94894  1.0000
  C   C315      1.0  0.99399  0.68776  0.86188  1.0000
  H   H312      1.0  0.17526  0.80027  0.80858  1.0000
  H   H313      1.0  0.18771  0.82821  0.91111  1.0000
  H   H314      1.0  0.07664  0.70350  0.81602  1.0000
  H   H315      1.0  0.17355  0.79651  0.92819  1.0000
  H   H316      1.0  0.20971  0.77978  0.84787  1.0000
  C   C316      1.0  0.19409  0.79196  0.82739  1.0000
  H   H317      1.0  0.23232  0.74470  0.58789  1.0000
  C   C317      1.0  0.02116  0.67453  0.79528  1.0000
  C   C318      1.0  0.03846  0.67201  0.79054  1.0000
  H   H318      1.0  0.13737  0.69357  0.59918  1.0000
  H   H319      1.0  0.20883  0.82774  0.92035  1.0000
  C   C319      1.0  0.18482  0.76037  0.84520  1.0000
  C   C320      1.0  0.15613  0.73954  0.84149  1.0000
  H   H320      1.0  0.18743  0.74928  0.85581  1.0000
  H   H321      1.0  0.16017  0.73081  0.83006  1.0000
  Fe  Fe49      1.0  0.22630  0.85318  0.86608  1.0000
  H   H322      1.0  0.14216  0.74044  0.84011  1.0000
  N   N27       1.0  0.05084  0.69850  0.80575  1.0000
  C   C321      1.0  0.15793  0.68967  0.65172  1.0000
  C   C322      1.0  0.14304  0.69270  0.61407  1.0000
  C   C323      1.0  0.13909  0.68485  0.65269  1.0000
  H   H323      1.0  0.15793  0.77458  0.96215  1.0000
  C   C324      1.0  0.05328  0.68435  0.79565  1.0000
  C   C325      1.0  0.06640  0.71081  0.81191  1.0000
  H   H324      1.0  0.13027  0.67955  0.66846  1.0000
  C   C326      1.0  0.16190  0.69789  0.61257  1.0000
  C   C327      1.0  0.11215  0.68131  0.63519  1.0000
  H   H325      1.0  0.17072  0.70305  0.59680  1.0000
  C   C328      1.0  0.23009  0.73173  0.52345  1.0000
  S   S101      1.0  0.20980  0.70896  0.58800  1.0000
  C   C329      1.0  0.03153  0.66549  0.94941  1.0000
  H   H326      1.0  0.06669  0.68226  0.79196  1.0000
  H   H327      1.0  0.10717  0.69369  0.63533  1.0000
  N   N28       1.0  0.13190  0.68618  0.63395  1.0000
  H   H328      1.0  0.00548  0.69147  0.80855  1.0000
  C   C330      1.0  0.01895  0.68958  0.80447  1.0000
  C   C331      1.0  0.16938  0.69623  0.63149  1.0000
  C   C332      1.0  0.99955  0.65780  0.95112  1.0000
  H   H329      1.0  0.04737  0.68832  0.92460  1.0000
  C   C333      1.0  0.09042  0.73907  0.96264  1.0000
  C   C334      1.0  0.16615  0.78808  0.96302  1.0000
  C   C335      1.0  0.17504  0.80052  0.94391  1.0000
  Fe  Fe50      1.0  0.18616  0.66537  0.53929  1.0000
  H   H330      1.0  0.02034  0.69417  0.91069  1.0000
  H   H331      1.0  0.02013  0.65945  0.85025  1.0000
  H   H332      1.0  0.03303  0.72489  0.97798  1.0000
  C   C336      1.0  0.03386  0.67982  0.93199  1.0000
  H   H333      1.0  0.21713  0.70342  0.52333  1.0000
  H   H334      1.0  0.98952  0.67423  0.92749  1.0000
  H   H335      1.0  0.04347  0.66311  0.95532  1.0000
  H   H336      1.0  0.19662  0.83558  0.96577  1.0000
  C   C337      1.0  0.18514  0.66148  0.48408  1.0000
  S   S102      1.0  0.20982  0.66564  0.55673  1.0000
  H   H337      1.0  0.00942  0.66475  0.79212  1.0000
  C   C338      1.0  0.09579  0.75030  0.97759  1.0000
  H   H338      1.0  0.10984  0.75815  0.97571  1.0000
  S   S103      1.0  0.18081  0.65771  0.60242  1.0000
  C   C339      1.0  0.42451  0.10623  0.10378  1.0000
  Fe  Fe51      1.0  0.34517  0.04126  0.06935  1.0000
  S   S104      1.0  0.37094  0.04708  0.04485  1.0000
  C   C340      1.0  0.31967  0.31074  0.12290  1.0000
  Fe  Fe52      1.0  0.35345  0.08271  0.07400  1.0000
  S   S105      1.0  0.37943  0.09005  0.05001  1.0000
  S   S106      1.0  0.34514  0.10546  0.08975  1.0000
  Fe  Fe53      1.0  0.36337  0.07190  0.03021  1.0000
  S   S107      1.0  0.36148  0.08218  0.99520  1.0000
  Fe  Fe54      1.0  0.38402  0.06441  0.06766  1.0000
  S   S108      1.0  0.41135  0.06324  0.07672  1.0000
  S   S109      1.0  0.33686  0.06543  0.05347  1.0000
  S   S110      1.0  0.35879  0.05777  0.09283  1.0000
  H   H339      1.0  0.34721  0.00425  0.03325  1.0000
  H   H340      1.0  0.45044  0.30402  0.22803  1.0000
  H   H341      1.0  0.32951  0.25142  0.04938  1.0000
  Fe  Fe55      1.0  0.45192  0.03228  0.22921  1.0000
  S   S111      1.0  0.45533  0.03003  0.19383  1.0000
  H   H342      1.0  0.33471  0.25446  0.01984  1.0000
  Fe  Fe56      1.0  0.45203  0.05858  0.18867  1.0000
  S   S112      1.0  0.42983  0.06648  0.17209  1.0000
  C   C341      1.0  0.40008  0.21975  0.01814  1.0000
  S   S113      1.0  0.44731  0.06023  0.22457  1.0000
  C   C342      1.0  0.30828  0.32228  0.12148  1.0000
  S   S114      1.0  0.26228  0.28114  0.09419  1.0000
  C   C343      1.0  0.45678  0.26783  0.16184  1.0000
  C   C344      1.0  0.42106  0.10801  0.12568  1.0000
  Fe  Fe57      1.0  0.34907  0.23866  0.08813  1.0000
  S   S115      1.0  0.36869  0.26595  0.07524  1.0000
  S   S116      1.0  0.31902  0.23413  0.09979  1.0000
  Fe  Fe58      1.0  0.37767  0.21747  0.07937  1.0000
  S   S117      1.0  0.39968  0.24401  0.06634  1.0000
  S   S118      1.0  0.38599  0.19118  0.07457  1.0000
  Fe  Fe59      1.0  0.38781  0.25540  0.09457  1.0000
  S   S119      1.0  0.39961  0.27339  0.11867  1.0000
  Fe  Fe60      1.0  0.37873  0.25222  0.04847  1.0000
  S   S120      1.0  0.38439  0.26591  0.01285  1.0000
  S   S121      1.0  0.36726  0.22825  0.10895  1.0000
  S   S122      1.0  0.35763  0.22556  0.06008  1.0000
  C   C345      1.0  0.36551  0.23533  0.99875  1.0000
  H   H343      1.0  0.36914  0.18327  0.00965  1.0000
  H   H344      1.0  0.31918  0.31569  0.01287  1.0000
  H   H345      1.0  0.37042  0.10763  0.15027  1.0000
  C   C346      1.0  0.31213  0.29208  0.13110  1.0000
  H   H346      1.0  0.42319  0.29052  0.21246  1.0000
  N   N29       1.0  0.39025  0.10760  0.12270  1.0000
  C   C347      1.0  0.43637  0.28903  0.20585  1.0000
  H   H347      1.0  0.29576  0.01018  0.06829  1.0000
  C   C348      1.0  0.33390  0.02312  0.01836  1.0000
  N   N30       1.0  0.29373  0.28509  0.13732  1.0000
  H   H348      1.0  0.27235  0.26047  0.14229  1.0000
  H   H349      1.0  0.37880  0.05266  0.99232  1.0000
  C   C349      1.0  0.47002  0.28569  0.18799  1.0000
  C   C350      1.0  0.43828  0.27965  0.18840  1.0000
  H   H350      1.0  0.40118  0.10999  0.15199  1.0000
  H   H351      1.0  0.43764  0.10496  0.09657  1.0000
  H   H352      1.0  0.36014  0.22966  0.01566  1.0000
  S   S123      1.0  0.33185  0.01019  0.07861  1.0000
  C   C351      1.0  0.42113  0.28643  0.12279  1.0000
  C   C352      1.0  0.43762  0.28584  0.11089  1.0000
  C   C353      1.0  0.45427  0.29569  0.11568  1.0000
  C   C354      1.0  0.45472  0.30634  0.13233  1.0000
  C   C355      1.0  0.43823  0.30728  0.14388  1.0000
  C   C356      1.0  0.42160  0.29730  0.13923  1.0000
  H   H353      1.0  0.43756  0.27760  0.09821  1.0000
  H   H354      1.0  0.46690  0.29483  0.10661  1.0000
  H   H355      1.0  0.32056  0.05213  0.98338  1.0000
  H   H356      1.0  0.40895  0.29793  0.14849  1.0000
  C   C357      1.0  0.27926  0.26934  0.09303  1.0000
  C   C358      1.0  0.29799  0.27796  0.08732  1.0000
  C   C359      1.0  0.31071  0.26746  0.08868  1.0000
  C   C360      1.0  0.30458  0.24843  0.09570  1.0000
  C   C361      1.0  0.28592  0.24006  0.10086  1.0000
  C   C362      1.0  0.27341  0.25039  0.09949  1.0000
  H   H357      1.0  0.30263  0.29264  0.08234  1.0000
  H   H358      1.0  0.32513  0.27406  0.08475  1.0000
  H   H359      1.0  0.28105  0.22542  0.10633  1.0000
  H   H360      1.0  0.25903  0.24359  0.10395  1.0000
  C   C363      1.0  0.41227  0.23601  0.00660  1.0000
  H   H361      1.0  0.46235  0.09465  0.30405  1.0000
  C   C364      1.0  0.37771  0.00177  0.22458  1.0000
  H   H362      1.0  0.36989  0.19337  0.03367  1.0000
  S   S124      1.0  0.43417  0.00994  0.25594  1.0000
  C   C365      1.0  0.40398  0.02558  0.20772  1.0000
  H   H363      1.0  0.26788  0.29079  0.14069  1.0000
  H   H364      1.0  0.38981  0.99849  0.17141  1.0000
  H   H365      1.0  0.34752  0.27028  0.03440  1.0000
  H   H366      1.0  0.43154  0.10818  0.13561  1.0000
  H   H367      1.0  0.32104  0.28316  0.13207  1.0000
  C   C366      1.0  0.41069  0.10519  0.09144  1.0000
  N   N31       1.0  0.32874  0.02996  0.99969  1.0000
  H   H368      1.0  0.44495  0.26628  0.15323  1.0000
  C   C367      1.0  0.28608  0.26560  0.14636  1.0000
  C   C368      1.0  0.35614  0.12947  0.08403  1.0000
  C   C369      1.0  0.34767  0.14151  0.09365  1.0000
  C   C370      1.0  0.35630  0.16045  0.09052  1.0000
  C   C371      1.0  0.37377  0.16760  0.07810  1.0000
  C   C372      1.0  0.38224  0.15557  0.06848  1.0000
  C   C373      1.0  0.37342  0.13674  0.07111  1.0000
  H   H369      1.0  0.33432  0.13614  0.10368  1.0000
  H   H370      1.0  0.34957  0.16944  0.09812  1.0000
  H   H371      1.0  0.39576  0.16085  0.05891  1.0000
  H   H372      1.0  0.38013  0.12788  0.06330  1.0000
  C   C374      1.0  0.37217  0.10858  0.13226  1.0000
  H   H373      1.0  0.38272  0.10457  0.09177  1.0000
  C   C375      1.0  0.40376  0.10877  0.13491  1.0000
  C   C376      1.0  0.47485  0.10056  0.29243  1.0000
  H   H374      1.0  0.36983  0.12168  0.12500  1.0000
  H   H375      1.0  0.42638  0.27387  0.18162  1.0000
  C   C377      1.0  0.37847  0.19011  0.01982  1.0000
  C   C378      1.0  0.36114  0.22468  0.98276  1.0000
  C   C379      1.0  0.41562  0.06181  0.10390  1.0000
  C   C380      1.0  0.40249  0.06236  0.12133  1.0000
  C   C381      1.0  0.40694  0.06317  0.14227  1.0000
  C   C382      1.0  0.42446  0.06317  0.14610  1.0000
  C   C383      1.0  0.43739  0.06187  0.12892  1.0000
  C   C384      1.0  0.43300  0.06131  0.10788  1.0000
  H   H376      1.0  0.38908  0.06276  0.11855  1.0000
  H   H377      1.0  0.39685  0.06417  0.15546  1.0000
  H   H378      1.0  0.45094  0.06192  0.13162  1.0000
  H   H379      1.0  0.44324  0.06085  0.09450  1.0000
  Fe  Fe61      1.0  0.47757  0.07121  0.22112  1.0000
  S   S125      1.0  0.25319  0.31767  0.05054  1.0000
  H   H380      1.0  0.41386  0.02623  0.17366  1.0000
  H   H381      1.0  0.41309  0.10322  0.07459  1.0000
  H   H382      1.0  0.33422  0.31620  0.11761  1.0000
  H   H383      1.0  0.36151  0.09719  0.12871  1.0000
  H   H384      1.0  0.38577  0.18050  0.02670  1.0000
  C   C385      1.0  0.39352  0.10582  0.10126  1.0000
  N   N32       1.0  0.32074  0.27267  0.03205  1.0000
  C   C386      1.0  0.30258  0.26466  0.03923  1.0000
  C   C387      1.0  0.32674  0.29069  0.02235  1.0000
  C   C388      1.0  0.28996  0.27491  0.03752  1.0000
  C   C389      1.0  0.46854  0.29487  0.20566  1.0000
  C   C390      1.0  0.37711  0.25300  0.99281  1.0000
  C   C391      1.0  0.33371  0.26167  0.03398  1.0000
  N   N33       1.0  0.45499  0.27819  0.17963  1.0000
  H   H385      1.0  0.41455  0.03759  0.20861  1.0000
  H   H386      1.0  0.30478  0.03833  0.00727  1.0000
  H   H387      1.0  0.45793  0.25406  0.16834  1.0000
  H   H388      1.0  0.34109  0.29695  0.01621  1.0000
  H   H389      1.0  0.29462  0.25729  0.13934  1.0000
  N   N34       1.0  0.39158  0.20677  0.00729  1.0000
  C   C392      1.0  0.39184  0.02389  0.24627  1.0000
  C   C393      1.0  0.29778  0.99680  0.06758  1.0000
  H   H390      1.0  0.33121  0.02838  0.03331  1.0000
  H   H391      1.0  0.38542  0.03535  0.24594  1.0000
  C   C394      1.0  0.40363  0.01920  0.18789  1.0000
  C   C395      1.0  0.41598  0.23878  0.98384  1.0000
  C   C396      1.0  0.39553  0.20915  0.98498  1.0000
  C   C397      1.0  0.31935  0.04438  0.00007  1.0000
  H   H392      1.0  0.27563  0.26869  0.04394  1.0000
  H   H393      1.0  0.48047  0.30085  0.21227  1.0000
  H   H394      1.0  0.46901  0.27516  0.14934  1.0000
  C   C398      1.0  0.28959  0.31505  0.12817  1.0000
  H   H395      1.0  0.46625  0.08416  0.26835  1.0000
  H   H396      1.0  0.41827  0.24664  0.01526  1.0000
  H   H397      1.0  0.28506  0.26330  0.16438  1.0000
  H   H398      1.0  0.42918  0.99256  0.21731  1.0000
  H   H399      1.0  0.39711  0.21775  0.03580  1.0000
  H   H400      1.0  0.29779  0.25038  0.04694  1.0000
  C   C399      1.0  0.34290  0.00938  0.01844  1.0000
  H   H401      1.0  0.32555  0.05451  0.00986  1.0000
  C   C400      1.0  0.28249  0.29632  0.13605  1.0000
  C   C401      1.0  0.39008  0.00373  0.18661  1.0000
  Fe  Fe62      1.0  0.26522  0.31059  0.08008  1.0000
  C   C402      1.0  0.31448  0.30133  0.02035  1.0000
  H   H402      1.0  0.40612  0.02888  0.24871  1.0000
  C   C403      1.0  0.29600  0.29338  0.02810  1.0000
  N   N35       1.0  0.39127  0.01674  0.22579  1.0000
  C   C404      1.0  0.45162  0.29660  0.21457  1.0000
  C   C405      1.0  0.47704  0.09457  0.27223  1.0000
  S   S126      1.0  0.48202  0.07196  0.18472  1.0000
  S   S127      1.0  0.47608  0.31653  0.13949  1.0000
  H   H403      1.0  0.48119  0.32325  0.45252  1.0000
  H   H404      1.0  0.28640  0.30156  0.02683  1.0000
  H   H405      1.0  0.43829  0.31538  0.15670  1.0000
  C   C406      1.0  0.34641  0.00249  0.99932  1.0000
  C   C407      1.0  0.31442  0.99361  0.07064  1.0000
  H   H406      1.0  0.35255  0.21084  0.98765  1.0000
  H   H407      1.0  0.38479  0.01310  0.26063  1.0000
  C   C408      1.0  0.37699  0.99496  0.20504  1.0000
  C   C409      1.0  0.41702  0.99204  0.25050  1.0000
  H   H408      1.0  0.36771  0.99457  0.23894  1.0000
  C   C410      1.0  0.33174  0.02298  0.98100  1.0000
  H   H409      1.0  0.47631  0.99122  0.20412  1.0000
  H   H410      1.0  0.35364  0.99205  0.99905  1.0000
  C   C411      1.0  0.34073  0.00924  0.98048  1.0000
  S   S128      1.0  0.48159  0.04329  0.22946  1.0000
  C   C412      1.0  0.35588  0.16884  0.92409  1.0000
  Fe  Fe63      1.0  0.32191  0.02094  0.87458  1.0000
  S   S129      1.0  0.35046  0.01826  0.87043  1.0000
  H   H411      1.0  0.41119  0.29553  0.79122  1.0000
  Fe  Fe64      1.0  0.33540  0.06347  0.87232  1.0000
  S   S130      1.0  0.36465  0.06330  0.86799  1.0000
  S   S131      1.0  0.32554  0.08935  0.87218  1.0000
  Fe  Fe65      1.0  0.35754  0.04371  0.84482  1.0000
  S   S132      1.0  0.37224  0.04866  0.80968  1.0000
  Fe  Fe66      1.0  0.35480  0.03806  0.89402  1.0000
  S   S133      1.0  0.36841  0.03282  0.92301  1.0000
  S   S134      1.0  0.32859  0.04535  0.84747  1.0000
  S   S135      1.0  0.32589  0.03928  0.89985  1.0000
  C   C413      1.0  0.33694  0.10300  0.81712  1.0000
  C   C414      1.0  0.38199  0.13370  0.92739  1.0000
  Fe  Fe67      1.0  0.46374  0.03247  0.74874  1.0000
  S   S136      1.0  0.45709  0.04139  0.71588  1.0000
  S   S137      1.0  0.44706  0.02959  0.78242  1.0000
  Fe  Fe68      1.0  0.46421  0.01598  0.70766  1.0000
  C   C415      1.0  0.41240  0.00727  0.72019  1.0000
  C   C416      1.0  0.40770  0.22521  0.97291  1.0000
  C   C417      1.0  0.41369  0.00659  0.74230  1.0000
  C   C418      1.0  0.37063  0.29661  0.81754  1.0000
  H   H412      1.0  0.29187  0.02068  0.83876  1.0000
  H   H413      1.0  0.39916  0.99342  0.69675  1.0000
  H   H414      1.0  0.41004  0.22744  0.95518  1.0000
  S   S138      1.0  0.26727  0.27789  0.88781  1.0000
  H   H415      1.0  0.38994  0.08553  0.81727  1.0000
  Fe  Fe69      1.0  0.35239  0.23551  0.86590  1.0000
  S   S139      1.0  0.37407  0.25143  0.88184  1.0000
  S   S140      1.0  0.33594  0.25228  0.84873  1.0000
  Fe  Fe70      1.0  0.36732  0.20097  0.86972  1.0000
  S   S141      1.0  0.39019  0.21576  0.88481  1.0000
  S   S142      1.0  0.37104  0.17235  0.86681  1.0000
  Fe  Fe71      1.0  0.36899  0.22481  0.90515  1.0000
  S   S143      1.0  0.36514  0.21629  0.94193  1.0000
  Fe  Fe72      1.0  0.39315  0.24083  0.85988  1.0000
  S   S144      1.0  0.42008  0.25601  0.83715  1.0000
  S   S145      1.0  0.34585  0.20946  0.89079  1.0000
  S   S146      1.0  0.37177  0.22551  0.84327  1.0000
  C   C419      1.0  0.29472  0.01131  0.82750  1.0000
  C   C420      1.0  0.37929  0.24952  0.95442  1.0000
  H   H416      1.0  0.33030  0.11158  0.82658  1.0000
  C   C421      1.0  0.37494  0.04449  0.96128  1.0000
  C   C422      1.0  0.39970  0.99346  0.71394  1.0000
  H   H417      1.0  0.39251  0.27395  0.96573  1.0000
  S   S147      1.0  0.29594  0.99695  0.88145  1.0000
  H   H418      1.0  0.42385  0.01715  0.74704  1.0000
  H   H419      1.0  0.39159  0.14101  0.82399  1.0000
  N   N36       1.0  0.27946  0.99497  0.83010  1.0000
  C   C423      1.0  0.38284  0.27021  0.81621  1.0000
  C   C424      1.0  0.28743  0.27214  0.87760  1.0000
  C   C425      1.0  0.29821  0.28090  0.85739  1.0000
  C   C426      1.0  0.31313  0.27481  0.84896  1.0000
  C   C427      1.0  0.31778  0.26021  0.86085  1.0000
  C   C428      1.0  0.30733  0.25182  0.88135  1.0000
  C   C429      1.0  0.29212  0.25760  0.88952  1.0000
  H   H420      1.0  0.29472  0.29201  0.84794  1.0000
  H   H421      1.0  0.32098  0.28130  0.83300  1.0000
  H   H422      1.0  0.31063  0.24050  0.89063  1.0000
  H   H423      1.0  0.28384  0.25065  0.90512  1.0000
  H   H424      1.0  0.36754  0.18024  0.91503  1.0000
  C   C430      1.0  0.45211  0.30248  0.79731  1.0000
  C   C431      1.0  0.44380  0.28409  0.80710  1.0000
  C   C432      1.0  0.42993  0.27948  0.82561  1.0000
  C   C433      1.0  0.42459  0.29355  0.83439  1.0000
  C   C434      1.0  0.43311  0.31197  0.82479  1.0000
  H   H425      1.0  0.46265  0.30574  0.78299  1.0000
  H   H426      1.0  0.44810  0.27332  0.80024  1.0000
  H   H427      1.0  0.41409  0.29025  0.84875  1.0000
  H   H428      1.0  0.42486  0.25162  0.97468  1.0000
  C   C435      1.0  0.36833  0.23155  0.96061  1.0000
  S   S148      1.0  0.25689  0.31759  0.84569  1.0000
  H   H429      1.0  0.38492  0.25494  0.93737  1.0000
  C   C436      1.0  0.44683  0.31654  0.80612  1.0000
  Fe  Fe73      1.0  0.26089  0.30513  0.87853  1.0000
  S   S149      1.0  0.44883  0.99647  0.68848  1.0000
  C   C437      1.0  0.37624  0.14907  0.92019  1.0000
  N   N37       1.0  0.36195  0.15293  0.93225  1.0000
  C   C438      1.0  0.48255  0.15307  0.57985  1.0000
  H   H430      1.0  0.35737  0.07961  0.81524  1.0000
  C   C439      1.0  0.36576  0.12376  0.82063  1.0000
  H   H431      1.0  0.38864  0.19902  0.97627  1.0000
  H   H432      1.0  0.45498  0.31823  0.64927  1.0000
  H   H433      1.0  0.29778  0.01895  0.81049  1.0000
  H   H434      1.0  0.40731  0.11636  0.82181  1.0000
  H   H435      1.0  0.34972  0.08211  0.95392  1.0000
  C   C440      1.0  0.35682  0.07165  0.95603  1.0000
  C   C441      1.0  0.33816  0.11213  0.87258  1.0000
  C   C442      1.0  0.35681  0.11676  0.87288  1.0000
  C   C443      1.0  0.36651  0.13521  0.87141  1.0000
  C   C444      1.0  0.35771  0.14927  0.86998  1.0000
  C   C445      1.0  0.33896  0.14459  0.87035  1.0000
  C   C446      1.0  0.32930  0.12616  0.87150  1.0000
  H   H436      1.0  0.36384  0.10618  0.87374  1.0000
  H   H437      1.0  0.38100  0.13862  0.87112  1.0000
  H   H438      1.0  0.33196  0.15519  0.86923  1.0000
  H   H439      1.0  0.31487  0.12276  0.87134  1.0000
  C   C447      1.0  0.39320  0.04359  0.80238  1.0000
  C   C448      1.0  0.40131  0.03524  0.81794  1.0000
  C   C449      1.0  0.41792  0.03128  0.81152  1.0000
  C   C450      1.0  0.42661  0.03567  0.78954  1.0000
  C   C451      1.0  0.41854  0.04410  0.77396  1.0000
  C   C452      1.0  0.40187  0.04797  0.78037  1.0000
  H   H440      1.0  0.39481  0.03181  0.83493  1.0000
  H   H441      1.0  0.42407  0.02477  0.82369  1.0000
  H   H442      1.0  0.42520  0.04778  0.75704  1.0000
  H   H443      1.0  0.39572  0.05452  0.76824  1.0000
  C   C453      1.0  0.40207  0.31975  0.79170  1.0000
  H   H444      1.0  0.34923  0.17425  0.93760  1.0000
  S   S150      1.0  0.46906  0.00628  0.74091  1.0000
  N   N38       1.0  0.38445  0.28968  0.80972  1.0000
  C   C454      1.0  0.40003  0.30096  0.79696  1.0000
  H   H445      1.0  0.41878  0.99598  0.78257  1.0000
  C   C455      1.0  0.36740  0.04728  0.94239  1.0000
  H   H446      1.0  0.38198  0.03398  0.96334  1.0000
  H   H447      1.0  0.46790  0.15225  0.58392  1.0000
  H   H448      1.0  0.33538  0.10576  0.79978  1.0000
  N   N39       1.0  0.35624  0.10663  0.81868  1.0000
  H   H449      1.0  0.37737  0.11032  0.95294  1.0000
  H   H450      1.0  0.30695  0.00731  0.83154  1.0000
  C   C456      1.0  0.38363  0.26023  0.97052  1.0000
  H   H451      1.0  0.42163  0.01806  0.70784  1.0000
  S   S151      1.0  0.23481  0.30921  0.89570  1.0000
  N   N40       1.0  0.40264  0.99251  0.75773  1.0000
  H   H452      1.0  0.35896  0.13448  0.82197  1.0000
  H   H453      1.0  0.35840  0.28767  0.82798  1.0000
  C   C457      1.0  0.40424  0.99224  0.78078  1.0000
  C   C458      1.0  0.36403  0.06862  0.97511  1.0000
  C   C459      1.0  0.38425  0.12753  0.82183  1.0000
  H   H454      1.0  0.38465  0.26749  0.83348  1.0000
  C   C460      1.0  0.37300  0.12224  0.94704  1.0000
  C   C461      1.0  0.36481  0.09312  0.81714  1.0000
  H   H455      1.0  0.34626  0.16512  0.91273  1.0000
  C   C462      1.0  0.39302  0.11371  0.82070  1.0000
  H   H456      1.0  0.47849  0.32181  0.63699  1.0000
  H   H457      1.0  0.39327  0.26562  0.80610  1.0000
  H   H458      1.0  0.32777  0.02843  0.96611  1.0000
  H   H459      1.0  0.39328  0.13064  0.91774  1.0000
  H   H460      1.0  0.36924  0.26180  0.81471  1.0000
  C   C463      1.0  0.35826  0.12610  0.95907  1.0000
  C   C464      1.0  0.38329  0.09642  0.81822  1.0000
  H   H461      1.0  0.23935  0.28475  0.82371  1.0000
  H   H462      1.0  0.34378  0.00436  0.96531  1.0000
  H   H463      1.0  0.32956  0.08858  0.82440  1.0000
  C   C465      1.0  0.37209  0.31530  0.81236  1.0000
  C   C466      1.0  0.35840  0.06095  0.93977  1.0000
  H   H464      1.0  0.38325  0.15789  0.90485  1.0000
  H   H465      1.0  0.35258  0.06322  0.92525  1.0000
  H   H466      1.0  0.24170  0.27062  0.85821  1.0000
  H   H467      1.0  0.47993  0.06740  0.65780  1.0000
  C   C467      1.0  0.35278  0.14153  0.95130  1.0000
  H   H468      1.0  0.47965  0.07799  0.61866  1.0000
  H   H469      1.0  0.35114  0.11709  0.97429  1.0000
  H   H470      1.0  0.34118  0.14433  0.96061  1.0000
  H   H471      1.0  0.39775  0.00228  0.78739  1.0000
  H   H472      1.0  0.26350  0.00222  0.85627  1.0000
  C   C468      1.0  0.26427  0.99237  0.84553  1.0000
  H   H473      1.0  0.47208  0.31662  0.66600  1.0000
  C   C469      1.0  0.37307  0.05498  0.97775  1.0000
  H   H474      1.0  0.42896  0.32273  0.83183  1.0000
  H   H475      1.0  0.36105  0.32070  0.81857  1.0000
  Fe  Fe74      1.0  0.24314  0.33785  0.06820  1.0000
  C   C470      1.0  0.32832  0.45846  0.45066  1.0000
  C   C471      1.0  0.24624  0.49279  0.34782  1.0000
  H   H476      1.0  0.41037  0.53681  0.33731  1.0000
  H   H477      1.0  0.31852  0.46645  0.24220  1.0000
  Fe  Fe75      1.0  0.32085  0.49738  0.35987  1.0000
  S   S152      1.0  0.33654  0.47685  0.36665  1.0000
  S   S153      1.0  0.29071  0.48686  0.37237  1.0000
  Fe  Fe76      1.0  0.35486  0.52752  0.33993  1.0000
  S   S154      1.0  0.37295  0.50912  0.34466  1.0000
  S   S155      1.0  0.36987  0.55684  0.32653  1.0000
  Fe  Fe77      1.0  0.35215  0.48870  0.33271  1.0000
  S   S156      1.0  0.36020  0.46928  0.31168  1.0000
  Fe  Fe78      1.0  0.35574  0.49932  0.37794  1.0000
  S   S157      1.0  0.36991  0.49645  0.40697  1.0000
  S   S158      1.0  0.33520  0.50787  0.32504  1.0000
  S   S159      1.0  0.33881  0.51892  0.37393  1.0000
  S   S160      1.0  0.41008  0.59175  0.39812  1.0000
  H   H478      1.0  0.28634  0.48493  0.30172  1.0000
  S   S161      1.0  0.46213  0.59783  0.38933  1.0000
  C   C472      1.0  0.43650  0.59946  0.46616  1.0000
  H   H479      1.0  0.45124  0.48014  0.22144  1.0000
  Fe  Fe79      1.0  0.27955  0.35017  0.08569  1.0000
  S   S162      1.0  0.29204  0.36328  0.11296  1.0000
  Fe  Fe80      1.0  0.37034  0.45962  0.19088  1.0000
  S   S163      1.0  0.37871  0.46971  0.15458  1.0000
  S   S164      1.0  0.35658  0.47662  0.21074  1.0000
  Fe  Fe81      1.0  0.38828  0.42899  0.18906  1.0000
  S   S165      1.0  0.39848  0.43720  0.15308  1.0000
  S   S166      1.0  0.39393  0.40418  0.20704  1.0000
  Fe  Fe82      1.0  0.40577  0.46586  0.15998  1.0000
  S   S167      1.0  0.43279  0.48618  0.14438  1.0000
  Fe  Fe83      1.0  0.37038  0.43997  0.15113  1.0000
  S   S168      1.0  0.35836  0.42980  0.12209  1.0000
  S   S169      1.0  0.39788  0.45730  0.19624  1.0000
  S   S170      1.0  0.35971  0.43022  0.18711  1.0000
  H   H480      1.0  0.39346  0.61538  0.30484  1.0000
  H   H481      1.0  0.28064  0.32393  0.12711  1.0000
  H   H482      1.0  0.40568  0.62968  0.39094  1.0000
  S   S171      1.0  0.46607  0.55520  0.18565  1.0000
  C   C473      1.0  0.44300  0.50433  0.15707  1.0000
  C   C474      1.0  0.43571  0.50596  0.17813  1.0000
  C   C475      1.0  0.44370  0.52105  0.18732  1.0000
  C   C476      1.0  0.45901  0.53466  0.17556  1.0000
  C   C477      1.0  0.46671  0.53267  0.15485  1.0000
  C   C478      1.0  0.45872  0.51756  0.14565  1.0000
  H   H483      1.0  0.42365  0.49585  0.18712  1.0000
  H   H484      1.0  0.43765  0.52249  0.20335  1.0000
  H   H485      1.0  0.32572  0.44774  0.25448  1.0000
  H   H486      1.0  0.46447  0.51638  0.12936  1.0000
  C   C479      1.0  0.41618  0.40302  0.19842  1.0000
  C   C480      1.0  0.42121  0.38702  0.20494  1.0000
  C   C481      1.0  0.43847  0.38541  0.19650  1.0000
  C   C482      1.0  0.45067  0.39985  0.18158  1.0000
  C   C483      1.0  0.44577  0.41597  0.17548  1.0000
  C   C484      1.0  0.42859  0.41758  0.18392  1.0000
  H   H487      1.0  0.41164  0.37575  0.21623  1.0000
  H   H488      1.0  0.44223  0.37297  0.20133  1.0000
  H   H489      1.0  0.45519  0.42715  0.16391  1.0000
  H   H490      1.0  0.42491  0.43002  0.17903  1.0000
  H   H491      1.0  0.44224  0.55626  0.33198  1.0000
  S   S172      1.0  0.44968  0.63362  0.40078  1.0000
  H   H492      1.0  0.25107  0.52526  0.36430  1.0000
  S   S173      1.0  0.44984  0.62330  0.35138  1.0000
  C   C485      1.0  0.33986  0.41115  0.12000  1.0000
  C   C486      1.0  0.33702  0.40755  0.09914  1.0000
  C   C487      1.0  0.32255  0.39300  0.09658  1.0000
  C   C488      1.0  0.31067  0.38183  0.11493  1.0000
  C   C489      1.0  0.31361  0.38534  0.13580  1.0000
  C   C490      1.0  0.32805  0.39989  0.13836  1.0000
  H   H493      1.0  0.34598  0.41618  0.08479  1.0000
  H   H494      1.0  0.32051  0.39057  0.08041  1.0000
  H   H495      1.0  0.30446  0.37689  0.15013  1.0000
  H   H496      1.0  0.32979  0.40256  0.15452  1.0000
  C   C491      1.0  0.35930  0.49990  0.43216  1.0000
  C   C492      1.0  0.34289  0.50465  0.43395  1.0000
  H   H497      1.0  0.33693  0.50707  0.41964  1.0000
  C   C493      1.0  0.40513  0.53743  0.37187  1.0000
  C   C494      1.0  0.36096  0.47292  0.28317  1.0000
  C   C495      1.0  0.35480  0.48690  0.27263  1.0000
  C   C496      1.0  0.35401  0.48827  0.25021  1.0000
  C   C497      1.0  0.35948  0.47578  0.23821  1.0000
  C   C498      1.0  0.36601  0.46208  0.24865  1.0000
  C   C499      1.0  0.36666  0.46063  0.27106  1.0000
  H   H498      1.0  0.35028  0.49637  0.28185  1.0000
  H   H499      1.0  0.34884  0.49883  0.24225  1.0000
  H   H500      1.0  0.37008  0.45227  0.23962  1.0000
  H   H501      1.0  0.37135  0.44974  0.27914  1.0000
  C   C500      1.0  0.38112  0.56645  0.34637  1.0000
  C   C501      1.0  0.39923  0.57692  0.34066  1.0000
  C   C502      1.0  0.40833  0.58448  0.35654  1.0000
  C   C503      1.0  0.39922  0.58199  0.37804  1.0000
  C   C504      1.0  0.38108  0.57166  0.38369  1.0000
  C   C505      1.0  0.37209  0.56382  0.36792  1.0000
  H   H502      1.0  0.40631  0.57891  0.32403  1.0000
  H   H503      1.0  0.42241  0.59205  0.35209  1.0000
  H   H504      1.0  0.37391  0.56972  0.40027  1.0000
  H   H505      1.0  0.35799  0.55614  0.37235  1.0000
  C   C506      1.0  0.25356  0.50668  0.32963  1.0000
  C   C507      1.0  0.27239  0.51435  0.32438  1.0000
  C   C508      1.0  0.28390  0.50826  0.33735  1.0000
  C   C509      1.0  0.27660  0.49451  0.35566  1.0000
  C   C510      1.0  0.25777  0.48676  0.36085  1.0000
  S   S174      1.0  0.46491  0.34270  0.18949  1.0000
  H   H506      1.0  0.27808  0.52521  0.31042  1.0000
  H   H507      1.0  0.29839  0.51446  0.33338  1.0000
  H   H508      1.0  0.25206  0.47609  0.37501  1.0000
  H   H509      1.0  0.31936  0.45280  0.32811  1.0000
  H   H510      1.0  0.43266  0.55745  0.16290  1.0000
  C   C511      1.0  0.36687  0.49681  0.45096  1.0000
  C   C512      1.0  0.41593  0.54166  0.35107  1.0000
  H   H511      1.0  0.40005  0.65052  0.38072  1.0000
  H   H512      1.0  0.38027  0.61412  0.37373  1.0000
  N   N41       1.0  0.41019  0.53945  0.18564  1.0000
  H   H513      1.0  0.40928  0.54043  0.21962  1.0000
  C   C513      1.0  0.29505  0.47589  0.29968  1.0000
  C   C514      1.0  0.39230  0.51435  0.17222  1.0000
  C   C515      1.0  0.41818  0.53573  0.14847  1.0000
  C   C516      1.0  0.40375  0.51999  0.15193  1.0000
  H   H514      1.0  0.29389  0.47622  0.26563  1.0000
  H   H515      1.0  0.30626  0.47012  0.40991  1.0000
  C   C517      1.0  0.41187  0.63520  0.31832  1.0000
  H   H516      1.0  0.38095  0.50223  0.17509  1.0000
  C   C518      1.0  0.42110  0.54549  0.16553  1.0000
  H   H517      1.0  0.40164  0.51199  0.13903  1.0000
  C   C519      1.0  0.42445  0.59429  0.45197  1.0000
  Fe  Fe84      1.0  0.46302  0.64698  0.36643  1.0000
  C   C520      1.0  0.24206  0.55328  0.34262  1.0000
  H   H518      1.0  0.32629  0.44412  0.29214  1.0000
  C   C521      1.0  0.38907  0.62030  0.35815  1.0000
  S   S175      1.0  0.23946  0.51564  0.31411  1.0000
  N   N42       1.0  0.40443  0.63412  0.35702  1.0000
  H   H519      1.0  0.29900  0.47302  0.33318  1.0000
  C   C522      1.0  0.30211  0.46918  0.31738  1.0000
  C   C523      1.0  0.31432  0.45425  0.25545  1.0000
  H   H520      1.0  0.42786  0.60052  0.43484  1.0000
  C   C524      1.0  0.34062  0.50118  0.47348  1.0000
  H   H521      1.0  0.45815  0.45490  0.19243  1.0000
  H   H522      1.0  0.47835  0.54319  0.14551  1.0000
  H   H523      1.0  0.42853  0.55610  0.20204  1.0000
  H   H524      1.0  0.40647  0.56046  0.20304  1.0000
  C   C525      1.0  0.31730  0.45288  0.29414  1.0000
  C   C526      1.0  0.41559  0.64184  0.33737  1.0000
  N   N43       1.0  0.41181  0.54407  0.38911  1.0000
  C   C527      1.0  0.42938  0.55446  0.38641  1.0000
  C   C528      1.0  0.44059  0.55890  0.36586  1.0000
  C   C529      1.0  0.40027  0.53937  0.41076  1.0000
  H   H525      1.0  0.43471  0.55964  0.40011  1.0000
  H   H526      1.0  0.45446  0.56735  0.36363  1.0000
  H   H527      1.0  0.40376  0.55051  0.42034  1.0000
  H   H528      1.0  0.38571  0.53736  0.40939  1.0000
  H   H529      1.0  0.40175  0.52644  0.41970  1.0000
  H   H530      1.0  0.44923  0.60975  0.45976  1.0000
  C   C530      1.0  0.46304  0.48837  0.20972  1.0000
  C   C531      1.0  0.29938  0.47092  0.27936  1.0000
  Fe  Fe85      1.0  0.27930  0.33968  0.04010  1.0000
  C   C532      1.0  0.43375  0.55257  0.34807  1.0000
  S   S176      1.0  0.29377  0.34160  0.00566  1.0000
  H   H531      1.0  0.34073  0.45491  0.45322  1.0000
  H   H532      1.0  0.44060  0.46652  0.18965  1.0000
  H   H533      1.0  0.37957  0.49311  0.44969  1.0000
  S   S177      1.0  0.29208  0.33106  0.06854  1.0000
  C   C533      1.0  0.31337  0.45769  0.31461  1.0000
  N   N44       1.0  0.31043  0.45961  0.27679  1.0000
  H   H534      1.0  0.28575  0.47421  0.44156  1.0000
  Fe  Fe86      1.0  0.48032  0.37229  0.17787  1.0000
  H   H535      1.0  0.42740  0.54001  0.13290  1.0000
  H   H536      1.0  0.39125  0.52910  0.37414  1.0000
  C   C534      1.0  0.33355  0.50520  0.45454  1.0000
  H   H537      1.0  0.42296  0.64869  0.37505  1.0000
  H   H538      1.0  0.37283  0.60224  0.34039  1.0000
  H   H539      1.0  0.47414  0.65173  0.43426  1.0000
  C   C535      1.0  0.29754  0.46949  0.44430  1.0000
  H   H540      1.0  0.45697  0.46747  0.16637  1.0000
  H   H541      1.0  0.25887  0.34917  0.00513  1.0000
  N   N45       1.0  0.38464  0.39118  0.14948  1.0000
  C   C536      1.0  0.39675  0.38423  0.15951  1.0000
  C   C537      1.0  0.38917  0.39933  0.12795  1.0000
  C   C538      1.0  0.41421  0.38606  0.14821  1.0000
  C   C539      1.0  0.40654  0.40147  0.11620  1.0000
  C   C540      1.0  0.41915  0.39488  0.12649  1.0000
  C   C541      1.0  0.36648  0.38939  0.16159  1.0000
  H   H542      1.0  0.39309  0.37757  0.17650  1.0000
  H   H543      1.0  0.37944  0.40455  0.11988  1.0000
  H   H544      1.0  0.42393  0.38091  0.15638  1.0000
  C   C542      1.0  0.30910  0.46719  0.42631  1.0000
  H   H545      1.0  0.43276  0.39660  0.11770  1.0000
  H   H546      1.0  0.35659  0.37736  0.15819  1.0000
  H   H547      1.0  0.36638  0.38804  0.17950  1.0000
  H   H548      1.0  0.36197  0.40179  0.15671  1.0000
  H   H549      1.0  0.32044  0.50804  0.45588  1.0000
  C   C543      1.0  0.39573  0.52427  0.18902  1.0000
  H   H550      1.0  0.38687  0.51952  0.20484  1.0000
  N   N46       1.0  0.30126  0.46627  0.46495  1.0000
  H   H551      1.0  0.41018  0.40835  0.09929  1.0000
  C   C544      1.0  0.38478  0.61354  0.33936  1.0000
  C   C545      1.0  0.45516  0.46734  0.18429  1.0000
  Fe  Fe87      1.0  0.43865  0.60927  0.38583  1.0000
  S   S178      1.0  0.26901  0.36073  0.05595  1.0000
  H   H552      1.0  0.33408  0.46049  0.41571  1.0000
  Fe  Fe88      1.0  0.47439  0.61340  0.35544  1.0000
  C   C546      1.0  0.41373  0.54963  0.20346  1.0000
  H   H553      1.0  0.30213  0.44447  0.25229  1.0000
  S   S179      1.0  0.48222  0.32621  0.24381  1.0000
  N   N47       1.0  0.46685  0.48380  0.18960  1.0000
  S   S180      1.0  0.25287  0.32877  0.09900  1.0000
  H   H554      1.0  0.39840  0.57728  0.44922  1.0000
  C   C547      1.0  0.26340  0.34587  0.98945  1.0000
  C   C548      1.0  0.39640  0.62090  0.31939  1.0000
  C   C549      1.0  0.40796  0.58117  0.46005  1.0000
  S   S181      1.0  0.47192  0.39817  0.16949  1.0000
  C   C550      1.0  0.40843  0.64111  0.37692  1.0000
  C   C551      1.0  0.32460  0.46167  0.42956  1.0000
  C   C552      1.0  0.31645  0.46086  0.46828  1.0000
  C   C553      1.0  0.47559  0.65704  0.46706  1.0000
  C   C554      1.0  0.35755  0.49747  0.47162  1.0000
  H   H555      1.0  0.25506  0.55024  0.33666  1.0000
  C   C555      1.0  0.47411  0.50388  0.21530  1.0000
  H   H556      1.0  0.24500  0.56815  0.34296  1.0000
  H   H557      1.0  0.31384  0.33680  0.11513  1.0000
  C   C556      1.0  0.27976  0.34110  0.98567  1.0000
  H   H558      1.0  0.23502  0.50580  0.39952  1.0000
  H   H559      1.0  0.47091  0.50770  0.23109  1.0000
  C   C557      1.0  0.23936  0.52834  0.37295  1.0000
  Fe  Fe89      1.0  0.47441  0.62345  0.40139  1.0000
  H   H560      1.0  0.42763  0.65301  0.33638  1.0000
  H   H561      1.0  0.42104  0.64105  0.30290  1.0000
  C   C558      1.0  0.47742  0.64719  0.44992  1.0000
  C   C559      1.0  0.48174  0.49417  0.17480  1.0000
  N   N48       1.0  0.23333  0.54262  0.36429  1.0000
  Fe  Fe90      1.0  0.45294  0.62196  0.58196  1.0000
  H   H562      1.0  0.28031  0.37868  0.88097  1.0000
  H   H563      1.0  0.30918  0.39403  0.75474  1.0000
  Fe  Fe91      1.0  0.33678  0.50523  0.52920  1.0000
  S   S182      1.0  0.33074  0.53110  0.53634  1.0000
  S   S183      1.0  0.32629  0.49722  0.49898  1.0000
  Fe  Fe92      1.0  0.35035  0.49870  0.57263  1.0000
  S   S184      1.0  0.34492  0.52410  0.58288  1.0000
  S   S185      1.0  0.36401  0.48073  0.59244  1.0000
  Fe  Fe93      1.0  0.31883  0.51545  0.56995  1.0000
  S   S186      1.0  0.29156  0.51813  0.58502  1.0000
  Fe  Fe94      1.0  0.35730  0.53720  0.54812  1.0000
  S   S187      1.0  0.37646  0.56535  0.53632  1.0000
  S   S188      1.0  0.32321  0.48897  0.56247  1.0000
  S   S189      1.0  0.36450  0.51247  0.53832  1.0000
  S   S190      1.0  0.43460  0.59360  0.59456  1.0000
  Fe  Fe95      1.0  0.37365  0.46329  0.71750  1.0000
  S   S191      1.0  0.37906  0.47766  0.74587  1.0000
  S   S192      1.0  0.35707  0.47555  0.69538  1.0000
  Fe  Fe96      1.0  0.39102  0.43357  0.73422  1.0000
  S   S193      1.0  0.39754  0.44575  0.76359  1.0000
  S   S194      1.0  0.39627  0.40618  0.73240  1.0000
  Fe  Fe97      1.0  0.36934  0.44938  0.76648  1.0000
  S   S195      1.0  0.34822  0.44186  0.79772  1.0000
  Fe  Fe98      1.0  0.40677  0.47268  0.74024  1.0000
  S   S196      1.0  0.43555  0.49180  0.73332  1.0000
  S   S197      1.0  0.36229  0.43554  0.73851  1.0000
  S   S198      1.0  0.40183  0.45996  0.71042  1.0000
  H   H564      1.0  0.32490  0.46052  0.72755  1.0000
  H   H565      1.0  0.47078  0.51671  0.71991  1.0000
  H   H566      1.0  0.24125  0.54620  0.52666  1.0000
  S   S199      1.0  0.24855  0.35147  0.86787  1.0000
  H   H567      1.0  0.43985  0.59075  0.51957  1.0000
  Fe  Fe99      1.0  0.25252  0.33625  0.89942  1.0000
  S   S200      1.0  0.24718  0.34723  0.93070  1.0000
  Fe  Fe100     1.0  0.27338  0.34418  0.85278  1.0000
  S   S201      1.0  0.29688  0.36036  0.82550  1.0000
  S   S202      1.0  0.47081  0.35278  0.73037  1.0000
  C   C560      1.0  0.44710  0.51007  0.74519  1.0000
  C   C561      1.0  0.43952  0.51462  0.76453  1.0000
  C   C562      1.0  0.44962  0.52900  0.77343  1.0000
  C   C563      1.0  0.46729  0.53903  0.76303  1.0000
  C   C564      1.0  0.39434  0.51082  0.66011  1.0000
  C   C565      1.0  0.46478  0.52007  0.73488  1.0000
  H   H568      1.0  0.42596  0.50702  0.77270  1.0000
  C   C566      1.0  0.27522  0.33792  0.94850  1.0000
  H   H569      1.0  0.37666  0.51985  0.68313  1.0000
  C   C567      1.0  0.41891  0.40602  0.72443  1.0000
  C   C568      1.0  0.43143  0.42098  0.71066  1.0000
  C   C569      1.0  0.44944  0.42046  0.70445  1.0000
  C   C570      1.0  0.45508  0.40519  0.71247  1.0000
  C   C571      1.0  0.44258  0.39026  0.72629  1.0000
  C   C572      1.0  0.42446  0.39060  0.73202  1.0000
  H   H570      1.0  0.42716  0.43284  0.70460  1.0000
  H   H571      1.0  0.45908  0.43201  0.69371  1.0000
  H   H572      1.0  0.44683  0.37849  0.73263  1.0000
  H   H573      1.0  0.41477  0.37899  0.74262  1.0000
  C   C573      1.0  0.33447  0.41904  0.80612  1.0000
  C   C574      1.0  0.33756  0.40506  0.79524  1.0000
  C   C575      1.0  0.32593  0.38724  0.80153  1.0000
  C   C576      1.0  0.31108  0.38310  0.81879  1.0000
  C   C577      1.0  0.30794  0.39708  0.82971  1.0000
  C   C578      1.0  0.31963  0.41495  0.82343  1.0000
  H   H574      1.0  0.34894  0.40794  0.78194  1.0000
  H   H575      1.0  0.32849  0.37655  0.79296  1.0000
  H   H576      1.0  0.29640  0.39421  0.84273  1.0000
  H   H577      1.0  0.31706  0.42570  0.83187  1.0000
  C   C579      1.0  0.32237  0.43410  0.71858  1.0000
  C   C580      1.0  0.47971  0.65117  0.48749  1.0000
  S   S203      1.0  0.46433  0.63732  0.60706  1.0000
  H   H578      1.0  0.37311  0.53351  0.61557  1.0000
  C   C581      1.0  0.36108  0.47827  0.62124  1.0000
  C   C582      1.0  0.34899  0.48592  0.63292  1.0000
  C   C583      1.0  0.34758  0.48447  0.65572  1.0000
  C   C584      1.0  0.35835  0.47554  0.66702  1.0000
  C   C585      1.0  0.37028  0.46767  0.65541  1.0000
  C   C586      1.0  0.37159  0.46900  0.63259  1.0000
  H   H579      1.0  0.34073  0.49296  0.62439  1.0000
  H   H580      1.0  0.33828  0.49056  0.66458  1.0000
  H   H581      1.0  0.37861  0.46072  0.66394  1.0000
  H   H582      1.0  0.38091  0.46297  0.62366  1.0000
  C   C587      1.0  0.39200  0.57332  0.55316  1.0000
  C   C588      1.0  0.40390  0.59091  0.54697  1.0000
  C   C589      1.0  0.41703  0.59724  0.55958  1.0000
  C   C590      1.0  0.41817  0.58606  0.57858  1.0000
  C   C591      1.0  0.40618  0.56852  0.58488  1.0000
  C   C592      1.0  0.39316  0.56213  0.57213  1.0000
  H   H583      1.0  0.40297  0.59966  0.53237  1.0000
  H   H584      1.0  0.42620  0.61078  0.55463  1.0000
  H   H585      1.0  0.40702  0.55994  0.59962  1.0000
  H   H586      1.0  0.38401  0.54859  0.57683  1.0000
  H   H587      1.0  0.30021  0.39962  0.94866  1.0000
  H   H588      1.0  0.40972  0.52852  0.59203  1.0000
  H   H589      1.0  0.40932  0.50263  0.63367  1.0000
  H   H590      1.0  0.41307  0.57204  0.51281  1.0000
  H   H591      1.0  0.26367  0.56890  0.57890  1.0000
  N   N49       1.0  0.47251  0.34363  0.65178  1.0000
  H   H592      1.0  0.46785  0.59961  0.81133  1.0000
  C   C593      1.0  0.24220  0.50465  0.56688  1.0000
  C   C594      1.0  0.25637  0.51113  0.57810  1.0000
  C   C595      1.0  0.27351  0.50829  0.57219  1.0000
  C   C596      1.0  0.27629  0.49859  0.55527  1.0000
  C   C597      1.0  0.26198  0.49168  0.54446  1.0000
  H   H593      1.0  0.45805  0.47055  0.71097  1.0000
  H   H594      1.0  0.25414  0.51863  0.59116  1.0000
  H   H595      1.0  0.28947  0.49643  0.55045  1.0000
  H   H596      1.0  0.26423  0.48413  0.53146  1.0000
  N   N50       1.0  0.39178  0.51800  0.62238  1.0000
  N   N51       1.0  0.46280  0.45164  0.73602  1.0000
  H   H597      1.0  0.44368  0.53236  0.78844  1.0000
  S   S204      1.0  0.45689  0.33996  0.79449  1.0000
  H   H598      1.0  0.23855  0.56270  0.55758  1.0000
  C   C598      1.0  0.28558  0.33700  0.96521  1.0000
  H   H599      1.0  0.38936  0.34148  0.79542  1.0000
  H   H600      1.0  0.47079  0.48058  0.73032  1.0000
  H   H601      1.0  0.29135  0.55860  0.56852  1.0000
  C   C599      1.0  0.26893  0.53365  0.51173  1.0000
  H   H602      1.0  0.46833  0.37201  0.68789  1.0000
  C   C600      1.0  0.47130  0.36763  0.67241  1.0000
  C   C601      1.0  0.26485  0.56193  0.56506  1.0000
  H   H603      1.0  0.46402  0.33909  0.68634  1.0000
  C   C602      1.0  0.37375  0.52822  0.64986  1.0000
  H   H604      1.0  0.42548  0.42469  0.77072  1.0000
  H   H605      1.0  0.31939  0.40606  0.71483  1.0000
  C   C603      1.0  0.31807  0.41532  0.72619  1.0000
  N   N52       1.0  0.29779  0.38016  0.92749  1.0000
  H   H606      1.0  0.45821  0.59474  0.49689  1.0000
  H   H607      1.0  0.29367  0.54252  0.53730  1.0000
  H   H608      1.0  0.32260  0.37412  0.93254  1.0000
  H   H609      1.0  0.27320  0.54361  0.49618  1.0000
  S   S205      1.0  0.27864  0.33115  0.88478  1.0000
  C   C604      1.0  0.24497  0.49491  0.55001  1.0000
  H   H610      1.0  0.32714  0.43960  0.70130  1.0000
  C   C605      1.0  0.38129  0.51984  0.66601  1.0000
  C   C606      1.0  0.31237  0.40858  0.74853  1.0000
  C   C607      1.0  0.46872  0.34908  0.67136  1.0000
  C   C608      1.0  0.46867  0.46917  0.72093  1.0000
  C   C609      1.0  0.32115  0.44590  0.73353  1.0000
  H   H611      1.0  0.30499  0.45956  0.76753  1.0000
  C   C610      1.0  0.38795  0.32693  0.79938  1.0000
  H   H612      1.0  0.32882  0.46193  0.76860  1.0000
  H   H613      1.0  0.27990  0.33494  0.93271  1.0000
  C   C611      1.0  0.45117  0.41832  0.76451  1.0000
  H   H614      1.0  0.24096  0.35151  0.97540  1.0000
  C   C612      1.0  0.25326  0.34716  0.97261  1.0000
  C   C613      1.0  0.47792  0.38061  0.65337  1.0000
  N   N53       1.0  0.31581  0.43921  0.75541  1.0000
  C   C614      1.0  0.25919  0.34334  0.95205  1.0000
  N   N54       1.0  0.26754  0.54332  0.53023  1.0000
  C   C615      1.0  0.28165  0.54719  0.54140  1.0000
  H   H615      1.0  0.27356  0.38506  0.91829  1.0000
  C   C616      1.0  0.28045  0.55637  0.55911  1.0000
  C   C617      1.0  0.31522  0.45204  0.77062  1.0000
  H   H616      1.0  0.47091  0.59497  0.60856  1.0000
  H   H617      1.0  0.31184  0.44499  0.78796  1.0000
  C   C618      1.0  0.29410  0.38483  0.94925  1.0000
  C   C619      1.0  0.39951  0.51008  0.63807  1.0000
  C   C620      1.0  0.40385  0.57316  0.48211  1.0000
  C   C621      1.0  0.47865  0.35624  0.63290  1.0000
  H   H618      1.0  0.40042  0.50385  0.59771  1.0000
  H   H619      1.0  0.36341  0.53505  0.65429  1.0000
  N   N55       1.0  0.43230  0.59168  0.48780  1.0000
  H   H620      1.0  0.27924  0.38154  0.95533  1.0000
  C   C622      1.0  0.25233  0.54900  0.53571  1.0000
  S   S206      1.0  0.44721  0.64641  0.56344  1.0000
  C   C623      1.0  0.31116  0.42078  0.76297  1.0000
  H   H621      1.0  0.29968  0.37683  0.96141  1.0000
  C   C624      1.0  0.37924  0.52721  0.62797  1.0000
  H   H622      1.0  0.27887  0.52540  0.51293  1.0000
  H   H623      1.0  0.46648  0.57606  0.81031  1.0000
  H   H624      1.0  0.39986  0.50383  0.67265  1.0000
  H   H625      1.0  0.39100  0.56302  0.48877  1.0000
  H   H626      1.0  0.38648  0.51792  0.58986  1.0000
  C   C625      1.0  0.44508  0.59768  0.50231  1.0000
  C   C626      1.0  0.25072  0.55835  0.55322  1.0000
  H   H627      1.0  0.30678  0.41540  0.78029  1.0000
  C   C627      1.0  0.46089  0.59505  0.64214  1.0000
  H   H628      1.0  0.43635  0.45462  0.74586  1.0000
  C   C628      1.0  0.39749  0.51714  0.59937  1.0000
  H   H629      1.0  0.32975  0.36754  0.89522  1.0000
  C   C629      1.0  0.28610  0.38157  0.91321  1.0000
  C   C630      1.0  0.31337  0.37531  0.92119  1.0000
  C   C631      1.0  0.28982  0.37795  0.89206  1.0000
  C   C632      1.0  0.31752  0.37160  0.90013  1.0000
  C   C633      1.0  0.30569  0.37303  0.88546  1.0000
  H   H630      1.0  0.47799  0.41557  0.75403  1.0000
  H   H631      1.0  0.44756  0.61264  0.50198  1.0000
  C   C634      1.0  0.41634  0.57848  0.49577  1.0000
  H   H632      1.0  0.48025  0.39504  0.65421  1.0000
  H   H633      1.0  0.30863  0.37002  0.86913  1.0000
  C   C635      1.0  0.43942  0.42935  0.76210  1.0000
  C   C636      1.0  0.47479  0.53447  0.74367  1.0000
  H   H634      1.0  0.29819  0.33325  0.96221  1.0000
  C   C637      1.0  0.47451  0.44102  0.73849  1.0000
  C   C638      1.0  0.44556  0.44616  0.74786  1.0000
  H   H635      1.0  0.44642  0.40501  0.77498  1.0000
  H   H636      1.0  0.36297  0.49409  0.48619  1.0000
  S   S207      1.0  0.47801  0.40547  0.70585  1.0000
  H   H637      1.0  0.45483  0.59511  0.67671  1.0000
  H   H638      1.0  0.44782  0.59660  0.63893  1.0000
  H   H639      1.0  0.29248  0.46436  0.49935  1.0000
  Fe  Fe101     1.0  0.47510  0.65134  0.54384  1.0000
  C   C639      1.0  0.46479  0.59414  0.66327  1.0000
  C   C640      1.0  0.46889  0.42425  0.75282  1.0000
  C   C641      1.0  0.47404  0.59413  0.62495  1.0000
  H   H640      1.0  0.41468  0.32869  0.78206  1.0000
  H   H641      1.0  0.25564  0.52391  0.51153  1.0000
  C   C642      1.0  0.47524  0.59027  0.80464  1.0000
  Fe  Fe102     1.0  0.47852  0.35189  0.76366  1.0000
  H   H642      1.0  0.48019  0.35542  0.82479  1.0000
  H   H643      1.0  0.31990  0.45917  0.48449  1.0000
  H   H644      1.0  0.27491  0.46315  0.48311  1.0000
  H   H645      1.0  0.47716  0.59304  0.78649  1.0000
  C   C643      1.0  0.28940  0.46971  0.48333  1.0000
  H   H646      1.0  0.48139  0.47049  0.70942  1.0000
  H   H647      1.0  0.48192  0.35193  0.61740  1.0000
  H   H648      1.0  0.29151  0.48468  0.48245  1.0000
  S   S208      1.0  0.47974  0.55692  0.77478  1.0000
  C   C644      1.0  0.48163  0.37492  0.63344  1.0000
  S   S209      1.0  0.47985  0.62551  0.56072  1.0000
  C   C645      1.0  0.48163  0.59205  0.66702  1.0000
  C   C646      1.0  0.46927  0.32410  0.65094  1.0000
  Fe  Fe103     1.0  0.30096  0.76283  0.36911  1.0000
  S   S210      1.0  0.28196  0.78045  0.37332  1.0000
  S   S211      1.0  0.29247  0.73532  0.35851  1.0000
  Fe  Fe104     1.0  0.33150  0.78971  0.38377  1.0000
  S   S212      1.0  0.31446  0.80905  0.38909  1.0000
  S   S213      1.0  0.35838  0.79967  0.39429  1.0000
  Fe  Fe105     1.0  0.29232  0.78396  0.40465  1.0000
  S   S214      1.0  0.27472  0.77900  0.43776  1.0000
  Fe  Fe106     1.0  0.30632  0.80362  0.35710  1.0000
  S   S215      1.0  0.30443  0.82708  0.33216  1.0000
  S   S216      1.0  0.30985  0.76489  0.40152  1.0000
  S   S217      1.0  0.32487  0.78586  0.35067  1.0000
  Fe  Fe107     1.0  0.45080  0.78016  0.37220  1.0000
  S   S218      1.0  0.42599  0.77348  0.35639  1.0000
  H   H649      1.0  0.36328  0.77758  0.36086  1.0000
  S   S219      1.0  0.28783  0.90551  0.06025  1.0000
  H   H650      1.0  0.39017  0.76776  0.34597  1.0000
  Fe  Fe108     1.0  0.27244  0.88272  0.08772  1.0000
  S   S220      1.0  0.28199  0.87267  0.11872  1.0000
  H   H651      1.0  0.28771  0.96510  0.11157  1.0000
  S   S221      1.0  0.28658  0.88588  0.00549  1.0000
  Fe  Fe109     1.0  0.36852  0.88649  0.22441  1.0000
  S   S222      1.0  0.38214  0.88981  0.18935  1.0000
  S   S223      1.0  0.36290  0.85828  0.24497  1.0000
  Fe  Fe110     1.0  0.37190  0.92695  0.22067  1.0000
  S   S224      1.0  0.38527  0.93325  0.18573  1.0000
  S   S225      1.0  0.36795  0.94980  0.23812  1.0000
  Fe  Fe111     1.0  0.36444  0.90827  0.18152  1.0000
  S   S226      1.0  0.35527  0.91238  0.14850  1.0000
  Fe  Fe112     1.0  0.40165  0.91442  0.19625  1.0000
  S   S227      1.0  0.43176  0.92475  0.18346  1.0000
  S   S228      1.0  0.34935  0.90336  0.21616  1.0000
  S   S229      1.0  0.38970  0.90977  0.23172  1.0000
  C   C647      1.0  0.38787  0.96446  0.24316  1.0000
  H   H652      1.0  0.26334  0.72247  0.31354  1.0000
  C   C648      1.0  0.38742  0.97031  0.26332  1.0000
  C   C649      1.0  0.32357  0.96186  0.13610  1.0000
  H   H653      1.0  0.37561  0.96452  0.27605  1.0000
  C   C650      1.0  0.45656  0.81812  0.32349  1.0000
  C   C651      1.0  0.44733  0.82392  0.44771  1.0000
  H   H654      1.0  0.36024  0.87066  0.30676  1.0000
  C   C652      1.0  0.30263  0.88356  0.12655  1.0000
  C   C653      1.0  0.30549  0.87834  0.14787  1.0000
  C   C654      1.0  0.32154  0.88694  0.15488  1.0000
  C   C655      1.0  0.33497  0.90076  0.14053  1.0000
  C   C656      1.0  0.33216  0.90590  0.11916  1.0000
  C   C657      1.0  0.31606  0.89740  0.11220  1.0000
  H   H655      1.0  0.29520  0.86764  0.15909  1.0000
  H   H656      1.0  0.32351  0.88286  0.17138  1.0000
  H   H657      1.0  0.34246  0.91658  0.10792  1.0000
  H   H658      1.0  0.31409  0.90151  0.09572  1.0000
  C   C658      1.0  0.28516  0.96450  0.06524  1.0000
  C   C659      1.0  0.28325  0.98232  0.06504  1.0000
  C   C660      1.0  0.29641  0.95873  0.12028  1.0000
  C   C661      1.0  0.46938  0.69396  0.36028  1.0000
  C   C662      1.0  0.31653  0.97593  0.07011  1.0000
  C   C663      1.0  0.30209  0.96152  0.06722  1.0000
  C   C664      1.0  0.34086  0.85830  0.34701  1.0000
  H   H659      1.0  0.30383  0.76104  0.30928  1.0000
  H   H660      1.0  0.30390  0.94798  0.06729  1.0000
  C   C665      1.0  0.44734  0.88147  0.21093  1.0000
  C   C666      1.0  0.43661  0.89291  0.20451  1.0000
  C   C667      1.0  0.44482  0.91009  0.19162  1.0000
  C   C668      1.0  0.46374  0.91575  0.18507  1.0000
  H   H661      1.0  0.33584  0.97035  0.13988  1.0000
  H   H662      1.0  0.42201  0.88844  0.20958  1.0000
  H   H663      1.0  0.47013  0.92898  0.17491  1.0000
  S   S230      1.0  0.45745  0.76072  0.39768  1.0000
  C   C669      1.0  0.26914  0.72408  0.36085  1.0000
  C   C670      1.0  0.26395  0.70576  0.35805  1.0000
  H   H664      1.0  0.26655  0.93558  0.11559  1.0000
  Fe  Fe113     1.0  0.26312  0.91587  0.06477  1.0000
  C   C671      1.0  0.37677  0.85203  0.30450  1.0000
  C   C672      1.0  0.25589  0.73358  0.36316  1.0000
  H   H665      1.0  0.27410  0.69828  0.35623  1.0000
  H   H666      1.0  0.33421  0.83044  0.45990  1.0000
  H   H667      1.0  0.25963  0.74765  0.36528  1.0000
  C   C673      1.0  0.28446  0.79161  0.45661  1.0000
  H   H668      1.0  0.45724  0.72579  0.43005  1.0000
  H   H669      1.0  0.24249  0.91011  0.99494  1.0000
  C   C674      1.0  0.46453  0.69544  0.42021  1.0000
  H   H670      1.0  0.38330  0.85815  0.28777  1.0000
  H   H671      1.0  0.39499  0.92694  0.13338  1.0000
  H   H672      1.0  0.28703  0.72878  0.31417  1.0000
  S   S231      1.0  0.47812  0.78656  0.35072  1.0000
  H   H673      1.0  0.44095  0.86816  0.22088  1.0000
  C   C675      1.0  0.47466  0.85135  0.27088  1.0000
  C   C676      1.0  0.32035  0.83534  0.30755  1.0000
  C   C677      1.0  0.33249  0.82562  0.30045  1.0000
  C   C678      1.0  0.34499  0.83258  0.28083  1.0000
  C   C679      1.0  0.34592  0.84959  0.26851  1.0000
  C   C680      1.0  0.33386  0.85939  0.27563  1.0000
  C   C681      1.0  0.32098  0.85217  0.29497  1.0000
  H   H674      1.0  0.33237  0.81279  0.31001  1.0000
  H   H675      1.0  0.35431  0.82495  0.27541  1.0000
  H   H676      1.0  0.33442  0.87249  0.26622  1.0000
  H   H677      1.0  0.31160  0.85976  0.30031  1.0000
  C   C682      1.0  0.37664  0.79151  0.38418  1.0000
  C   C683      1.0  0.39270  0.79602  0.39268  1.0000
  C   C684      1.0  0.40777  0.79025  0.38452  1.0000
  C   C685      1.0  0.40698  0.78018  0.36754  1.0000
  C   C686      1.0  0.39088  0.77565  0.35903  1.0000
  C   C687      1.0  0.37567  0.78119  0.36743  1.0000
  H   H678      1.0  0.39349  0.80399  0.40565  1.0000
  H   H679      1.0  0.41998  0.79362  0.39135  1.0000
  H   H680      1.0  0.43027  0.80166  0.43628  1.0000
  N   N56       1.0  0.47242  0.96238  0.21215  1.0000
  C   C688      1.0  0.33847  0.81796  0.46216  1.0000
  H   H681      1.0  0.37501  0.81684  0.34476  1.0000
  H   H682      1.0  0.26760  0.83458  0.11205  1.0000
  C   C689      1.0  0.47169  0.72567  0.36374  1.0000
  C   C690      1.0  0.47145  0.72616  0.42922  1.0000
  Fe  Fe114     1.0  0.23654  0.87641  0.06935  1.0000
  C   C691      1.0  0.42320  0.80006  0.47106  1.0000
  C   C692      1.0  0.25323  0.86960  0.99584  1.0000
  C   C693      1.0  0.24764  0.81853  0.09637  1.0000
  H   H683      1.0  0.30253  0.79202  0.31506  1.0000
  H   H684      1.0  0.35293  0.77322  0.47039  1.0000
  H   H685      1.0  0.25726  0.81277  0.08743  1.0000
  H   H686      1.0  0.27024  0.98483  0.06354  1.0000
  C   C694      1.0  0.46202  0.70897  0.35912  1.0000
  C   C695      1.0  0.45258  0.95838  0.21474  1.0000
  C   C696      1.0  0.24579  0.69718  0.35700  1.0000
  C   C697      1.0  0.25317  0.91338  0.98072  1.0000
  C   C698      1.0  0.28626  0.78248  0.47676  1.0000
  H   H687      1.0  0.44879  0.70772  0.35461  1.0000
  C   C699      1.0  0.33411  0.80538  0.44823  1.0000
  H   H688      1.0  0.32666  0.80809  0.43528  1.0000
  H   H689      1.0  0.40357  0.96781  0.21098  1.0000
  H   H690      1.0  0.27458  0.92337  0.99837  1.0000
  H   H691      1.0  0.47183  0.86318  0.26197  1.0000
  C   C700      1.0  0.38081  0.83668  0.31503  1.0000
  S   S232      1.0  0.26004  0.86406  0.06567  1.0000
  C   C701      1.0  0.28894  0.81070  0.45247  1.0000
  C   C702      1.0  0.41766  0.98621  0.23023  1.0000
  C   C703      1.0  0.37191  0.82870  0.33628  1.0000
  C   C704      1.0  0.25876  0.75502  0.31419  1.0000
  H   H692      1.0  0.47091  0.66921  0.46454  1.0000
  C   C705      1.0  0.46412  0.84239  0.29117  1.0000
  H   H693      1.0  0.24912  0.76358  0.47788  1.0000
  C   C706      1.0  0.25344  0.83073  0.11019  1.0000
  H   H694      1.0  0.35203  0.82975  0.36314  1.0000
  C   C707      1.0  0.36360  0.85900  0.31530  1.0000
  C   C708      1.0  0.34884  0.78578  0.46796  1.0000
  H   H695      1.0  0.32848  0.93644  0.14948  1.0000
  C   C709      1.0  0.29476  0.82059  0.46864  1.0000
  H   H696      1.0  0.47148  0.68594  0.41303  1.0000
  H   H697      1.0  0.36665  0.98261  0.20449  1.0000
  H   H698      1.0  0.45546  0.82994  0.43168  1.0000
  C   C710      1.0  0.29019  0.78168  0.31481  1.0000
  H   H699      1.0  0.46272  0.84361  0.46401  1.0000
  C   C711      1.0  0.48111  0.80620  0.46351  1.0000
  S   S233      1.0  0.24896  0.89995  0.04129  1.0000
  H   H700      1.0  0.28230  0.92547  0.10143  1.0000
  H   H701      1.0  0.24636  0.74459  0.31424  1.0000
  H   H702      1.0  0.25469  0.73771  0.44896  1.0000
  H   H703      1.0  0.27126  0.91552  0.12918  1.0000
  H   H704      1.0  0.47876  0.75355  0.43632  1.0000
  C   C712      1.0  0.25764  0.77229  0.31807  1.0000
  C   C713      1.0  0.48195  0.82129  0.29391  1.0000
  C   C714      1.0  0.29081  0.76420  0.31137  1.0000
  H   H705      1.0  0.41544  0.92994  0.11373  1.0000
  H   H706      1.0  0.24456  0.77520  0.32106  1.0000
  C   C715      1.0  0.48057  0.94848  0.21492  1.0000
  N   N57       1.0  0.40782  0.90527  0.13676  1.0000
  C   C716      1.0  0.42221  0.90027  0.14373  1.0000
  C   C717      1.0  0.39279  0.89226  0.13453  1.0000
  C   C718      1.0  0.42131  0.88184  0.15015  1.0000
  C   C719      1.0  0.39150  0.87368  0.14055  1.0000
  C   C720      1.0  0.40579  0.86848  0.14865  1.0000
  C   C721      1.0  0.40878  0.92470  0.13102  1.0000
  H   H707      1.0  0.43436  0.91056  0.14487  1.0000
  H   H708      1.0  0.38149  0.89621  0.12863  1.0000
  H   H709      1.0  0.43249  0.87804  0.15657  1.0000
  H   H710      1.0  0.37930  0.86344  0.13941  1.0000
  H   H711      1.0  0.40479  0.85415  0.15389  1.0000
  N   N58       1.0  0.23630  0.73553  0.47814  1.0000
  C   C722      1.0  0.27625  0.73314  0.30651  1.0000
  H   H712      1.0  0.47248  0.93437  0.21936  1.0000
  C   C723      1.0  0.27741  0.92861  0.11758  1.0000
  H   H713      1.0  0.30082  0.91741  0.13987  1.0000
  N   N59       1.0  0.27521  0.75112  0.31114  1.0000
  H   H714      1.0  0.32926  0.97320  0.07262  1.0000
  S   S234      1.0  0.45681  0.67335  0.35423  1.0000
  C   C724      1.0  0.23786  0.72517  0.36160  1.0000
  H   H715      1.0  0.44856  0.96172  0.19866  1.0000
  H   H716      1.0  0.33379  0.86462  0.33508  1.0000
  N   N60       1.0  0.46765  0.82736  0.30221  1.0000
  C   C725      1.0  0.27350  0.78571  0.31828  1.0000
  C   C726      1.0  0.46630  0.88724  0.20471  1.0000
  S   S235      1.0  0.24809  0.89367  0.09337  1.0000
  H   H717      1.0  0.41653  0.93278  0.14178  1.0000
  C   C727      1.0  0.30383  0.93215  0.13587  1.0000
  H   H718      1.0  0.44736  0.96644  0.22630  1.0000
  N   N61       1.0  0.29264  0.94011  0.12524  1.0000
  C   C728      1.0  0.47449  0.90444  0.19180  1.0000
  C   C729      1.0  0.31193  0.96988  0.12558  1.0000
  H   H719      1.0  0.28729  0.81781  0.43709  1.0000
  H   H720      1.0  0.29782  0.83534  0.46556  1.0000
  H   H721      1.0  0.46372  0.82263  0.33680  1.0000
  H   H722      1.0  0.33011  0.84734  0.35838  1.0000
  H   H723      1.0  0.23828  0.75057  0.44636  1.0000
  Fe  Fe115     1.0  0.27285  0.88814  0.03872  1.0000
  H   H724      1.0  0.27293  0.79918  0.32137  1.0000
  H   H725      1.0  0.39073  0.83091  0.30669  1.0000
  C   C730      1.0  0.31946  0.94287  0.14144  1.0000
  C   C731      1.0  0.40323  0.97212  0.22671  1.0000
  H   H726      1.0  0.34731  0.86870  0.35628  1.0000
  S   S236      1.0  0.26569  0.94634  0.06468  1.0000
  C   C732      1.0  0.35883  0.83604  0.34660  1.0000
  N   N62       1.0  0.35458  0.85078  0.33592  1.0000
  C   C733      1.0  0.24166  0.86310  0.98152  1.0000
  S   S237      1.0  0.45759  0.77767  0.45043  1.0000
  H   H727      1.0  0.24765  0.86942  0.01266  1.0000
  H   H728      1.0  0.27926  0.73363  0.28862  1.0000
  C   C734      1.0  0.46698  0.79011  0.46974  1.0000
  H   H729      1.0  0.46590  0.73717  0.36276  1.0000
  S   S238      1.0  0.45786  0.80377  0.38971  1.0000
  C   C735      1.0  0.27194  0.87642  0.98831  1.0000
  C   C736      1.0  0.40208  0.98369  0.26713  1.0000
  Fe  Fe116     1.0  0.46704  0.78498  0.41368  1.0000
  H   H730      1.0  0.45551  0.68799  0.43577  1.0000
  H   H731      1.0  0.24576  0.84846  0.13117  1.0000
  H   H732      1.0  0.31516  0.98465  0.12097  1.0000
  H   H733      1.0  0.44575  0.94368  0.22119  1.0000
  S   S239      1.0  0.47935  0.87267  0.21327  1.0000
  H   H734      1.0  0.45393  0.80304  0.32503  1.0000
  H   H735      1.0  0.44308  0.82096  0.32581  1.0000
  H   H736      1.0  0.41246  0.78748  0.47327  1.0000
  H   H737      1.0  0.33614  0.77944  0.44031  1.0000
  C   C737      1.0  0.27117  0.92086  0.98263  1.0000
  N   N63       1.0  0.34767  0.81444  0.47868  1.0000
  H   H738      1.0  0.24202  0.68319  0.35438  1.0000
  H   H739      1.0  0.45314  0.84756  0.29800  1.0000
  C   C738      1.0  0.33935  0.78921  0.45117  1.0000
  C   C739      1.0  0.43315  0.80808  0.45027  1.0000
  C   C740      1.0  0.24029  0.73751  0.45428  1.0000
  C   C741      1.0  0.24103  0.83859  0.12095  1.0000
  H   H740      1.0  0.40156  0.98800  0.28287  1.0000
  N   N64       1.0  0.47752  0.71166  0.42414  1.0000
  C   C742      1.0  0.45141  0.83152  0.46608  1.0000
  H   H741      1.0  0.45622  0.69952  0.40829  1.0000
  C   C743      1.0  0.48271  0.98016  0.20645  1.0000
  Fe  Fe117     1.0  0.31176  0.80893  0.53750  1.0000
  S   S240      1.0  0.32389  0.78601  0.53183  1.0000
  S   S241      1.0  0.30406  0.82429  0.50864  1.0000
  Fe  Fe118     1.0  0.31768  0.80653  0.58483  1.0000
  S   S242      1.0  0.33010  0.78318  0.58257  1.0000
  S   S243      1.0  0.31372  0.81488  0.61816  1.0000
  Fe  Fe119     1.0  0.34506  0.79920  0.54991  1.0000
  S   S244      1.0  0.37449  0.80384  0.53535  1.0000
  Fe  Fe120     1.0  0.30768  0.77203  0.56475  1.0000
  S   S245      1.0  0.29524  0.74156  0.56942  1.0000
  S   S246      1.0  0.33428  0.82345  0.55331  1.0000
  S   S247      1.0  0.29381  0.79408  0.56940  1.0000
  S   S248      1.0  0.41914  0.77930  0.60529  1.0000
  Fe  Fe121     1.0  0.25450  0.89133  0.86447  1.0000
  S   S249      1.0  0.27053  0.87822  0.88557  1.0000
  C   C744      1.0  0.35282  0.82817  0.49245  1.0000
  C   C745      1.0  0.28038  0.92029  0.94447  1.0000
  Fe  Fe122     1.0  0.24372  0.86149  0.90533  1.0000
  C   C746      1.0  0.47902  0.96382  0.70893  1.0000
  Fe  Fe123     1.0  0.26708  0.85676  0.86418  1.0000
  S   S250      1.0  0.29355  0.85028  0.85235  1.0000
  S   S251      1.0  0.25168  0.87018  0.84232  1.0000
  Fe  Fe124     1.0  0.39373  0.86511  0.71930  1.0000
  S   S252      1.0  0.39818  0.89093  0.69553  1.0000
  S   S253      1.0  0.41869  0.85457  0.71632  1.0000
  Fe  Fe125     1.0  0.35349  0.86302  0.73442  1.0000
  S   S254      1.0  0.35554  0.88859  0.71085  1.0000
  S   S255      1.0  0.32473  0.84999  0.75308  1.0000
  Fe  Fe126     1.0  0.37160  0.87683  0.68659  1.0000
  S   S256      1.0  0.37114  0.87606  0.65058  1.0000
  Fe  Fe127     1.0  0.38178  0.89962  0.72234  1.0000
  S   S257      1.0  0.38870  0.92525  0.73714  1.0000
  S   S258      1.0  0.36790  0.85055  0.70920  1.0000
  S   S259      1.0  0.37901  0.87458  0.74708  1.0000
  C   C747      1.0  0.40737  0.94328  0.72338  1.0000
  H   H742      1.0  0.29117  0.92271  0.93053  1.0000
  H   H743      1.0  0.26886  0.76137  0.63280  1.0000
  C   C748      1.0  0.41734  0.95484  0.73553  1.0000
  H   H744      1.0  0.42699  0.96693  0.67235  1.0000
  H   H745      1.0  0.41438  0.95169  0.75319  1.0000
  C   C749      1.0  0.30206  0.85061  0.82458  1.0000
  C   C750      1.0  0.29065  0.84862  0.80907  1.0000
  C   C751      1.0  0.29782  0.84834  0.78729  1.0000
  C   C752      1.0  0.31651  0.85062  0.78064  1.0000
  C   C753      1.0  0.32799  0.85309  0.79603  1.0000
  C   C754      1.0  0.32074  0.85284  0.81797  1.0000
  H   H746      1.0  0.27624  0.84676  0.81399  1.0000
  H   H747      1.0  0.28885  0.84631  0.77549  1.0000
  H   H748      1.0  0.34237  0.85472  0.79115  1.0000
  H   H749      1.0  0.32963  0.85428  0.82990  1.0000
  C   C755      1.0  0.27759  0.94020  0.86165  1.0000
  C   C756      1.0  0.29477  0.95208  0.85208  1.0000
  H   H750      1.0  0.46194  0.74773  0.60748  1.0000
  H   H751      1.0  0.30287  0.94848  0.83878  1.0000
  C   C757      1.0  0.38830  0.97927  0.72981  1.0000
  C   C758      1.0  0.24870  0.86343  0.95960  1.0000
  H   H752      1.0  0.26489  0.96640  0.89747  1.0000
  C   C759      1.0  0.44911  0.88241  0.75465  1.0000
  C   C760      1.0  0.43425  0.87457  0.74521  1.0000
  C   C761      1.0  0.43710  0.86792  0.72576  1.0000
  C   C762      1.0  0.45492  0.87025  0.71502  1.0000
  H   H753      1.0  0.26963  0.91419  0.90816  1.0000
  H   H754      1.0  0.42055  0.87283  0.75359  1.0000
  H   H755      1.0  0.45722  0.86537  0.69978  1.0000
  H   H756      1.0  0.45899  0.68794  0.65012  1.0000
  C   C763      1.0  0.27147  0.73302  0.57320  1.0000
  C   C764      1.0  0.26390  0.71466  0.57192  1.0000
  C   C765      1.0  0.24497  0.70717  0.57612  1.0000
  C   C766      1.0  0.44917  0.82739  0.72496  1.0000
  C   C767      1.0  0.46632  0.82481  0.69092  1.0000
  C   C768      1.0  0.26002  0.74388  0.57871  1.0000
  H   H757      1.0  0.27272  0.70618  0.56775  1.0000
  N   N65       1.0  0.44171  0.82345  0.48645  1.0000
  C   C769      1.0  0.47337  0.69482  0.64528  1.0000
  H   H758      1.0  0.26572  0.75800  0.57984  1.0000
  C   C770      1.0  0.33038  0.83137  0.62698  1.0000
  C   C771      1.0  0.32801  0.83331  0.64906  1.0000
  C   C772      1.0  0.34063  0.84663  0.65662  1.0000
  C   C773      1.0  0.35558  0.85837  0.64205  1.0000
  C   C774      1.0  0.35811  0.85625  0.62003  1.0000
  C   C775      1.0  0.34566  0.84270  0.61254  1.0000
  H   H759      1.0  0.31621  0.82469  0.66035  1.0000
  H   H760      1.0  0.33849  0.84817  0.67359  1.0000
  H   H761      1.0  0.36959  0.86533  0.60862  1.0000
  H   H762      1.0  0.34760  0.84141  0.59549  1.0000
  C   C776      1.0  0.38685  0.79655  0.55458  1.0000
  C   C777      1.0  0.40567  0.80396  0.55127  1.0000
  C   C778      1.0  0.41576  0.79832  0.56649  1.0000
  C   C779      1.0  0.40696  0.78558  0.58535  1.0000
  C   C780      1.0  0.38815  0.77811  0.58862  1.0000
  C   C781      1.0  0.37815  0.78344  0.57312  1.0000
  H   H763      1.0  0.41233  0.81430  0.53717  1.0000
  H   H764      1.0  0.43029  0.80396  0.56371  1.0000
  H   H765      1.0  0.38135  0.76805  0.60303  1.0000
  H   H766      1.0  0.36381  0.77710  0.57534  1.0000
  H   H767      1.0  0.27302  0.87005  0.93536  1.0000
  C   C782      1.0  0.24111  0.73629  0.58336  1.0000
  H   H768      1.0  0.40389  0.80944  0.62175  1.0000
  C   C783      1.0  0.40789  0.82386  0.61311  1.0000
  C   C784      1.0  0.42584  0.85840  0.65774  1.0000
  C   C785      1.0  0.48129  0.83391  0.72059  1.0000
  N   N66       1.0  0.41416  0.83618  0.62809  1.0000
  H   H769      1.0  0.29350  0.88154  0.96066  1.0000
  S   S260      1.0  0.48122  0.84161  0.62650  1.0000
  H   H770      1.0  0.39611  0.82686  0.60645  1.0000
  S   S261      1.0  0.26795  0.92150  0.84894  1.0000
  H   H771      1.0  0.44140  0.83399  0.62199  1.0000
  H   H772      1.0  0.45210  0.85410  0.64781  1.0000
  C   C786      1.0  0.26713  0.94537  0.87844  1.0000
  C   C787      1.0  0.42447  0.96348  0.69001  1.0000
  N   N67       1.0  0.31760  0.89651  0.80581  1.0000
  C   C788      1.0  0.33570  0.90047  0.80693  1.0000
  C   C789      1.0  0.31190  0.89388  0.78649  1.0000
  C   C790      1.0  0.34861  0.90164  0.78844  1.0000
  C   C791      1.0  0.32443  0.89486  0.76772  1.0000
  C   C792      1.0  0.34288  0.89878  0.76877  1.0000
  C   C793      1.0  0.30429  0.89574  0.82521  1.0000
  H   H773      1.0  0.34020  0.90241  0.82228  1.0000
  H   H774      1.0  0.29754  0.89040  0.78567  1.0000
  H   H775      1.0  0.36296  0.90447  0.78929  1.0000
  H   H776      1.0  0.31986  0.89190  0.75266  1.0000
  H   H777      1.0  0.35271  0.89932  0.75445  1.0000
  H   H778      1.0  0.30196  0.90939  0.82586  1.0000
  H   H779      1.0  0.29114  0.88580  0.82513  1.0000
  H   H780      1.0  0.30884  0.89087  0.84045  1.0000
  H   H781      1.0  0.43036  0.86715  0.66926  1.0000
  C   C794      1.0  0.43799  0.85105  0.64578  1.0000
  H   H782      1.0  0.33543  0.77371  0.65528  1.0000
  H   H783      1.0  0.38803  0.84040  0.63774  1.0000
  S   S262      1.0  0.47757  0.66407  0.50844  1.0000
  C   C795      1.0  0.40779  0.85443  0.65488  1.0000
  H   H784      1.0  0.24056  0.95057  0.83825  1.0000
  C   C796      1.0  0.26744  0.86997  0.95215  1.0000
  H   H785      1.0  0.33646  0.79013  0.63111  1.0000
  H   H786      1.0  0.23813  0.97430  0.86109  1.0000
  H   H787      1.0  0.29297  0.78235  0.64635  1.0000
  H   H788      1.0  0.40363  0.93853  0.69108  1.0000
  H   H789      1.0  0.32198  0.78975  0.65613  1.0000
  C   C797      1.0  0.27351  0.96229  0.88512  1.0000
  C   C798      1.0  0.30125  0.96897  0.85893  1.0000
  H   H790      1.0  0.26814  0.95545  0.81049  1.0000
  C   C799      1.0  0.40212  0.84326  0.63988  1.0000
  H   H791      1.0  0.44740  0.93513  0.73315  1.0000
  H   H792      1.0  0.39824  0.86003  0.66420  1.0000
  H   H793      1.0  0.44837  0.77164  0.49686  1.0000
  C   C800      1.0  0.43064  0.97083  0.72496  1.0000
  H   H794      1.0  0.45467  0.91996  0.71646  1.0000
  H   H795      1.0  0.37883  0.96810  0.72503  1.0000
  H   H796      1.0  0.33013  0.75182  0.62836  1.0000
  H   H797      1.0  0.44934  0.93989  0.70381  1.0000
  C   C801      1.0  0.26674  0.96604  0.81991  1.0000
  C   C802      1.0  0.46687  0.88381  0.74458  1.0000
  C   C803      1.0  0.29041  0.97442  0.87513  1.0000
  C   C804      1.0  0.48222  0.82973  0.69951  1.0000
  C   C805      1.0  0.41130  0.94736  0.70057  1.0000
  S   S263      1.0  0.24179  0.83837  0.88642  1.0000
  N   N68       1.0  0.26267  0.91306  0.94272  1.0000
  S   S264      1.0  0.45021  0.68336  0.60050  1.0000
  H   H798      1.0  0.36041  0.79595  0.49461  1.0000
  C   C806      1.0  0.24213  0.75035  0.48781  1.0000
  S   S265      1.0  0.46605  0.78260  0.56912  1.0000
  C   C807      1.0  0.43186  0.83977  0.63107  1.0000
  H   H799      1.0  0.25357  0.93691  0.88524  1.0000
  H   H800      1.0  0.27537  0.73501  0.61734  1.0000
  H   H801      1.0  0.29342  0.78522  0.50842  1.0000
  C   C808      1.0  0.27902  0.87641  0.96650  1.0000
  H   H802      1.0  0.41878  0.82526  0.59891  1.0000
  C   C809      1.0  0.43389  0.97545  0.70217  1.0000
  H   H803      1.0  0.45224  0.84234  0.75984  1.0000
  H   H804      1.0  0.46699  0.82209  0.67431  1.0000
  S   S266      1.0  0.46058  0.82149  0.58129  1.0000
  C   C810      1.0  0.45672  0.71949  0.60356  1.0000
  C   C811      1.0  0.46271  0.73430  0.54718  1.0000
  H   H805      1.0  0.41994  0.80157  0.50519  1.0000
  H   H806      1.0  0.46331  0.82468  0.76697  1.0000
  H   H807      1.0  0.47993  0.67168  0.63407  1.0000
  C   C812      1.0  0.24990  0.97655  0.84842  1.0000
  H   H808      1.0  0.48217  0.76819  0.52950  1.0000
  C   C813      1.0  0.44599  0.83164  0.50555  1.0000
  C   C814      1.0  0.46982  0.87824  0.72438  1.0000
  C   C815      1.0  0.45555  0.93454  0.71738  1.0000
  H   H809      1.0  0.30621  0.73053  0.61465  1.0000
  C   C816      1.0  0.46778  0.73728  0.60207  1.0000
  H   H810      1.0  0.43616  0.82665  0.73467  1.0000
  H   H811      1.0  0.44677  0.88681  0.77021  1.0000
  H   H812      1.0  0.44538  0.82089  0.51965  1.0000
  N   N69       1.0  0.48027  0.73972  0.53624  1.0000
  C   C817      1.0  0.46566  0.79402  0.50784  1.0000
  N   N70       1.0  0.31277  0.76792  0.63888  1.0000
  C   C818      1.0  0.31653  0.75361  0.63008  1.0000
  C   C819      1.0  0.29584  0.77069  0.64001  1.0000
  C   C820      1.0  0.30310  0.74150  0.62237  1.0000
  C   C821      1.0  0.28211  0.75886  0.63240  1.0000
  C   C822      1.0  0.28577  0.74412  0.62367  1.0000
  C   C823      1.0  0.32738  0.78095  0.64576  1.0000
  C   C824      1.0  0.38989  0.97905  0.75179  1.0000
  C   C825      1.0  0.47863  0.70882  0.53139  1.0000
  H   H813      1.0  0.47637  0.84806  0.75616  1.0000
  H   H814      1.0  0.44235  0.71631  0.61002  1.0000
  C   C826      1.0  0.44966  0.82360  0.70372  1.0000
  C   C827      1.0  0.25800  0.90848  0.92192  1.0000
  Fe  Fe128     1.0  0.44905  0.79174  0.59481  1.0000
  C   C828      1.0  0.47990  0.71312  0.64704  1.0000
  H   H815      1.0  0.45928  0.78947  0.52477  1.0000
  C   C829      1.0  0.46417  0.83710  0.75510  1.0000
  C   C830      1.0  0.35302  0.79869  0.48157  1.0000
  C   C831      1.0  0.23921  0.74867  0.51058  1.0000
  C   C832      1.0  0.23355  0.71793  0.58211  1.0000
  C   C833      1.0  0.24916  0.90938  0.96057  1.0000
  Fe  Fe129     1.0  0.46165  0.66230  0.58624  1.0000
  C   C834      1.0  0.45941  0.78400  0.49196  1.0000
  H   H816      1.0  0.46005  0.84081  0.50238  1.0000
  C   C835      1.0  0.46423  0.70576  0.59706  1.0000
  C   C836      1.0  0.28080  0.98209  0.81734  1.0000
  S   S267      1.0  0.46752  0.79087  0.61923  1.0000
  N   N71       1.0  0.46491  0.83289  0.73293  1.0000
  H   H817      1.0  0.25383  0.89344  0.92310  1.0000
  C   C837      1.0  0.47963  0.81024  0.50166  1.0000
  C   C838      1.0  0.45262  0.71601  0.55024  1.0000
  C   C839      1.0  0.29233  0.79239  0.49282  1.0000
  H   H818      1.0  0.36618  0.83780  0.48496  1.0000
  C   C840      1.0  0.25122  0.96328  0.83558  1.0000
  H   H819      1.0  0.45312  0.68892  0.54497  1.0000
  H   H820      1.0  0.45652  0.74406  0.55397  1.0000
  C   C841      1.0  0.42762  0.80803  0.48907  1.0000
  H   H821      1.0  0.29897  0.92942  0.96607  1.0000
  H   H822      1.0  0.38126  0.96774  0.76393  1.0000
  H   H823      1.0  0.43719  0.82005  0.69719  1.0000
  H   H824      1.0  0.43885  0.71163  0.55942  1.0000
  H   H825      1.0  0.39783  0.97851  0.79087  1.0000
  H   H826      1.0  0.24405  0.76043  0.51818  1.0000
  Fe  Fe130     1.0  0.47938  0.81237  0.55731  1.0000
  H   H827      1.0  0.31428  0.97809  0.85104  1.0000
  Fe  Fe131     1.0  0.48037  0.82037  0.60433  1.0000
  H   H828      1.0  0.24655  0.91390  0.91794  1.0000
  H   H829      1.0  0.46897  0.97056  0.70426  1.0000
  C   C842      1.0  0.46067  0.70322  0.54228  1.0000
  C   C843      1.0  0.29646  0.81147  0.48886  1.0000
  H   H830      1.0  0.47065  0.72057  0.65332  1.0000
  H   H831      1.0  0.43780  0.97990  0.73451  1.0000
  H   H832      1.0  0.43627  0.83958  0.51015  1.0000
  H   H833      1.0  0.34251  0.83595  0.49474  1.0000
  H   H834      1.0  0.23927  0.69300  0.57514  1.0000
  C   C844      1.0  0.28489  0.92426  0.96446  1.0000
  H   H835      1.0  0.35372  0.82166  0.50901  1.0000
  N   N72       1.0  0.47441  0.94529  0.71571  1.0000
  C   C845      1.0  0.48280  0.71000  0.58867  1.0000
  H   H836      1.0  0.29305  0.98392  0.80556  1.0000
  H   H837      1.0  0.23523  0.90290  0.95939  1.0000
  S   S268      1.0  0.23358  0.85634  0.94182  1.0000
  H   H838      1.0  0.28287  0.76772  0.48005  1.0000
  Fe  Fe132     1.0  0.54060  0.29475  0.36128  1.0000
  S   S269      1.0  0.52140  0.26647  0.37143  1.0000
  S   S270      1.0  0.56021  0.30473  0.32965  1.0000
  S   S271      1.0  0.56093  0.30552  0.38183  1.0000
  Fe  Fe133     1.0  0.62293  0.02719  0.21233  1.0000
  S   S272      1.0  0.61196  0.03800  0.18348  1.0000
  C   C846      1.0  0.70290  0.08982  0.17911  1.0000
  Fe  Fe134     1.0  0.64520  0.06519  0.21668  1.0000
  S   S273      1.0  0.63550  0.07870  0.18830  1.0000
  S   S274      1.0  0.66839  0.08174  0.23053  1.0000
  Fe  Fe135     1.0  0.60798  0.05960  0.20298  1.0000
  S   S275      1.0  0.58294  0.07011  0.20764  1.0000
  Fe  Fe136     1.0  0.64048  0.05578  0.17167  1.0000
  S   S276      1.0  0.65377  0.06036  0.13605  1.0000
  S   S277      1.0  0.61733  0.04774  0.23279  1.0000
  S   S278      1.0  0.65174  0.04335  0.19904  1.0000
  H   H839      1.0  0.59443  0.12522  0.44128  1.0000
  S   S279      1.0  0.50886  0.03463  0.17844  1.0000
  H   H840      1.0  0.49818  0.32277  0.46966  1.0000
  S   S280      1.0  0.61731  0.99697  0.22489  1.0000
  Fe  Fe137     1.0  0.67305  0.13440  0.33277  1.0000
  S   S281      1.0  0.67407  0.16414  0.32522  1.0000
  S   S282      1.0  0.65458  0.11332  0.31793  1.0000
  Fe  Fe138     1.0  0.68910  0.13925  0.37459  1.0000
  S   S283      1.0  0.69058  0.16899  0.37059  1.0000
  S   S284      1.0  0.69437  0.12330  0.40472  1.0000
  Fe  Fe139     1.0  0.66330  0.16115  0.36080  1.0000
  S   S285      1.0  0.64004  0.17212  0.37269  1.0000
  Fe  Fe140     1.0  0.70145  0.16930  0.33551  1.0000
  H   H841      1.0  0.49655  0.14185  0.46365  1.0000
  S   S286      1.0  0.66074  0.13132  0.36808  1.0000
  S   S287      1.0  0.70163  0.13966  0.33991  1.0000
  C   C847      1.0  0.50484  0.12161  0.28264  1.0000
  Fe  Fe141     1.0  0.54487  0.14274  0.34964  1.0000
  S   S288      1.0  0.51725  0.12557  0.36621  1.0000
  S   S289      1.0  0.56793  0.12982  0.34517  1.0000
  S   S290      1.0  0.53550  0.15422  0.31993  1.0000
  S   S291      1.0  0.54380  0.16623  0.36693  1.0000
  C   C848      1.0  0.61971  0.15907  0.36699  1.0000
  C   C849      1.0  0.61978  0.14523  0.35461  1.0000
  C   C850      1.0  0.60371  0.13602  0.34840  1.0000
  C   C851      1.0  0.58755  0.14065  0.35448  1.0000
  C   C852      1.0  0.58735  0.15401  0.36755  1.0000
  C   C853      1.0  0.60341  0.16322  0.37379  1.0000
  H   H842      1.0  0.63231  0.14203  0.34907  1.0000
  H   H843      1.0  0.60396  0.12559  0.33841  1.0000
  H   H844      1.0  0.57491  0.15727  0.37293  1.0000
  H   H845      1.0  0.60327  0.17379  0.38356  1.0000
  H   H846      1.0  0.53611  0.10733  0.32961  1.0000
  C   C854      1.0  0.71832  0.15289  0.41515  1.0000
  C   C855      1.0  0.70560  0.13591  0.42273  1.0000
  C   C856      1.0  0.70211  0.12848  0.44504  1.0000
  C   C857      1.0  0.57950  0.12127  0.41488  1.0000
  H   H847      1.0  0.51664  0.29166  0.32739  1.0000
  C   C858      1.0  0.54659  0.19622  0.42653  1.0000
  C   C859      1.0  0.66435  0.09122  0.25428  1.0000
  C   C860      1.0  0.64684  0.08786  0.26616  1.0000
  C   C861      1.0  0.64410  0.09521  0.28529  1.0000
  C   C862      1.0  0.65879  0.10604  0.29266  1.0000
  C   C863      1.0  0.67631  0.10956  0.28071  1.0000
  C   C864      1.0  0.67907  0.10212  0.26160  1.0000
  H   H848      1.0  0.63542  0.07950  0.26068  1.0000
  H   H849      1.0  0.63050  0.09237  0.29449  1.0000
  H   H850      1.0  0.68772  0.11782  0.28629  1.0000
  H   H851      1.0  0.69266  0.10479  0.25245  1.0000
  C   C865      1.0  0.56204  0.05759  0.20225  1.0000
  C   C866      1.0  0.56107  0.04461  0.18847  1.0000
  C   C867      1.0  0.54451  0.03702  0.18189  1.0000
  C   C868      1.0  0.52889  0.04238  0.18904  1.0000
  C   C869      1.0  0.52977  0.05480  0.20350  1.0000
  C   C870      1.0  0.54623  0.06226  0.21016  1.0000
  H   H852      1.0  0.57319  0.04091  0.18226  1.0000
  H   H853      1.0  0.54395  0.02739  0.17072  1.0000
  H   H854      1.0  0.51800  0.05933  0.20884  1.0000
  H   H855      1.0  0.54688  0.07229  0.22079  1.0000
  C   C871      1.0  0.67605  0.05823  0.12898  1.0000
  C   C872      1.0  0.68476  0.06287  0.10701  1.0000
  C   C873      1.0  0.70280  0.06211  0.10109  1.0000
  C   C874      1.0  0.71220  0.05665  0.11717  1.0000
  C   C875      1.0  0.70340  0.05177  0.13904  1.0000
  C   C876      1.0  0.68544  0.05257  0.14493  1.0000
  H   H856      1.0  0.67760  0.06728  0.09453  1.0000
  H   H857      1.0  0.70948  0.06595  0.08416  1.0000
  H   H858      1.0  0.71061  0.04759  0.15158  1.0000
  H   H859      1.0  0.67903  0.04906  0.16187  1.0000
  C   C877      1.0  0.52890  0.24918  0.36027  1.0000
  C   C878      1.0  0.54594  0.25313  0.34696  1.0000
  C   C879      1.0  0.55102  0.23965  0.33647  1.0000
  H   H860      1.0  0.55515  0.26662  0.34445  1.0000
  H   H861      1.0  0.51443  0.24703  0.31645  1.0000
  H   H862      1.0  0.53368  0.10539  0.42148  1.0000
  H   H863      1.0  0.50413  0.22826  0.37419  1.0000
  H   H864      1.0  0.56696  0.11407  0.46999  1.0000
  N   N73       1.0  0.66448  0.07704  0.34135  1.0000
  H   H865      1.0  0.52835  0.08693  0.46758  1.0000
  C   C880      1.0  0.52443  0.25790  0.30498  1.0000
  C   C881      1.0  0.53771  0.30830  0.45909  1.0000
  C   C882      1.0  0.68752  0.09689  0.14947  1.0000
  H   H866      1.0  0.51561  0.13199  0.28656  1.0000
  C   C883      1.0  0.49583  0.29061  0.45906  1.0000
  H   H867      1.0  0.59150  0.12618  0.40218  1.0000
  C   C884      1.0  0.54311  0.31715  0.43719  1.0000
  H   H868      1.0  0.50523  0.31969  0.41124  1.0000
  H   H869      1.0  0.56101  0.19564  0.45349  1.0000
  H   H870      1.0  0.70831  0.13202  0.47687  1.0000
  C   C885      1.0  0.65021  0.06701  0.33090  1.0000
  H   H871      1.0  0.72130  0.15861  0.39792  1.0000
  C   C886      1.0  0.53783  0.25337  0.29114  1.0000
  N   N74       1.0  0.61661  0.18443  0.31945  1.0000
  C   C887      1.0  0.59964  0.17895  0.31435  1.0000
  C   C888      1.0  0.62040  0.19766  0.33204  1.0000
  C   C889      1.0  0.58592  0.18672  0.32200  1.0000
  C   C890      1.0  0.60696  0.20564  0.34005  1.0000
  C   C891      1.0  0.58963  0.20015  0.33492  1.0000
  C   C892      1.0  0.63108  0.17683  0.31040  1.0000
  H   H872      1.0  0.59656  0.16834  0.30456  1.0000
  H   H873      1.0  0.63379  0.20182  0.33633  1.0000
  H   H874      1.0  0.57246  0.18238  0.31799  1.0000
  H   H875      1.0  0.60998  0.21597  0.35023  1.0000
  H   H876      1.0  0.57906  0.20624  0.34092  1.0000
  H   H877      1.0  0.62559  0.16239  0.30855  1.0000
  H   H878      1.0  0.63820  0.18507  0.29425  1.0000
  H   H879      1.0  0.64115  0.17679  0.32149  1.0000
  H   H880      1.0  0.64471  0.31580  0.34764  1.0000
  C   C893      1.0  0.52251  0.21784  0.35360  1.0000
  H   H881      1.0  0.56273  0.15236  0.43998  1.0000
  C   C894      1.0  0.60987  0.99764  0.14350  1.0000
  H   H882      1.0  0.53690  0.30357  0.28965  1.0000
  H   H883      1.0  0.58691  0.00563  0.20763  1.0000
  H   H884      1.0  0.66984  0.09226  0.38892  1.0000
  C   C895      1.0  0.52234  0.14394  0.47417  1.0000
  S   S292      1.0  0.50311  0.16219  0.35424  1.0000
  H   H885      1.0  0.50597  0.26355  0.42310  1.0000
  H   H886      1.0  0.51329  0.20431  0.35597  1.0000
  C   C896      1.0  0.50696  0.11575  0.26235  1.0000
  C   C897      1.0  0.49857  0.27494  0.45160  1.0000
  H   H887      1.0  0.67509  0.09086  0.18349  1.0000
  N   N75       1.0  0.55006  0.08840  0.16156  1.0000
  C   C898      1.0  0.56343  0.09704  0.17177  1.0000
  C   C899      1.0  0.53284  0.09026  0.16619  1.0000
  C   C900      1.0  0.55951  0.10724  0.18777  1.0000
  C   C901      1.0  0.52850  0.10051  0.18194  1.0000
  C   C902      1.0  0.54187  0.10887  0.19294  1.0000
  C   C903      1.0  0.55431  0.07752  0.14508  1.0000
  H   H888      1.0  0.57705  0.09538  0.16835  1.0000
  H   H889      1.0  0.52221  0.08333  0.15818  1.0000
  H   H890      1.0  0.56999  0.11335  0.19648  1.0000
  H   H891      1.0  0.51476  0.10167  0.18598  1.0000
  H   H892      1.0  0.53843  0.11638  0.20563  1.0000
  H   H893      1.0  0.56560  0.07156  0.14855  1.0000
  H   H894      1.0  0.54243  0.06579  0.14521  1.0000
  H   H895      1.0  0.55819  0.08618  0.12861  1.0000
  C   C904      1.0  0.51732  0.23142  0.36386  1.0000
  Fe  Fe142     1.0  0.53204  0.17650  0.33873  1.0000
  H   H896      1.0  0.62723  0.02513  0.13176  1.0000
  C   C905      1.0  0.53921  0.22207  0.33949  1.0000
  H   H897      1.0  0.50079  0.18761  0.43172  1.0000
  H   H898      1.0  0.50054  0.28488  0.30960  1.0000
  N   N76       1.0  0.53250  0.19018  0.46435  1.0000
  H   H899      1.0  0.67527  0.09841  0.14364  1.0000
  H   H900      1.0  0.49710  0.26258  0.46316  1.0000
  C   C906      1.0  0.50359  0.27550  0.42924  1.0000
  H   H901      1.0  0.64593  0.07644  0.37008  1.0000
  C   C907      1.0  0.72049  0.00950  0.09808  1.0000
  C   C908      1.0  0.51513  0.06840  0.26886  1.0000
  H   H902      1.0  0.63863  0.07326  0.33188  1.0000
  H   H903      1.0  0.60061  0.99902  0.13225  1.0000
  C   C909      1.0  0.65999  0.08041  0.36196  1.0000
  C   C910      1.0  0.72785  0.21134  0.43044  1.0000
  C   C911      1.0  0.70963  0.99233  0.09677  1.0000
  H   H904      1.0  0.55863  0.10605  0.29805  1.0000
  C   C912      1.0  0.67340  0.08931  0.37269  1.0000
  H   H905      1.0  0.50275  0.26871  0.33222  1.0000
  H   H906      1.0  0.48331  0.28486  0.18074  1.0000
  C   C913      1.0  0.52960  0.19396  0.42036  1.0000
  C   C914      1.0  0.54101  0.14680  0.46755  1.0000
  C   C915      1.0  0.53251  0.10209  0.46446  1.0000
  C   C916      1.0  0.72386  0.15488  0.45225  1.0000
  H   H907      1.0  0.70194  0.10189  0.37032  1.0000
  C   C917      1.0  0.49309  0.10222  0.25707  1.0000
  Fe  Fe143     1.0  0.50752  0.13884  0.33769  1.0000
  C   C918      1.0  0.69802  0.18867  0.41886  1.0000
  H   H908      1.0  0.56087  0.11622  0.39234  1.0000
  H   H909      1.0  0.52835  0.19484  0.40323  1.0000
  C   C919      1.0  0.51580  0.18827  0.45844  1.0000
  H   H910      1.0  0.73171  0.17757  0.35980  1.0000
  H   H911      1.0  0.68641  0.17980  0.41420  1.0000
  H   H912      1.0  0.69245  0.11527  0.45099  1.0000
  N   N77       1.0  0.70028  0.18691  0.44022  1.0000
  S   S293      1.0  0.60802  0.31476  0.34614  1.0000
  H   H913      1.0  0.53540  0.29365  0.46304  1.0000
  C   C920      1.0  0.58457  0.99099  0.21063  1.0000
  C   C921      1.0  0.50841  0.07936  0.30329  1.0000
  C   C922      1.0  0.53703  0.28940  0.29010  1.0000
  H   H914      1.0  0.52113  0.10725  0.45949  1.0000
  H   H915      1.0  0.50981  0.99850  0.19904  1.0000
  C   C923      1.0  0.55066  0.28539  0.27610  1.0000
  C   C924      1.0  0.71083  0.20163  0.40270  1.0000
  C   C925      1.0  0.54701  0.10948  0.42592  1.0000
  H   H916      1.0  0.50371  0.09022  0.33295  1.0000
  H   H917      1.0  0.54857  0.08786  0.26992  1.0000
  H   H918      1.0  0.55870  0.19904  0.41421  1.0000
  Fe  Fe144     1.0  0.48490  0.04358  0.19349  1.0000
  C   C926      1.0  0.49541  0.32276  0.45270  1.0000
  C   C927      1.0  0.68732  0.09241  0.17181  1.0000
  H   H919      1.0  0.56402  0.24297  0.32571  1.0000
  C   C928      1.0  0.56232  0.11567  0.40936  1.0000
  H   H920      1.0  0.70268  0.08624  0.19653  1.0000
  H   H921      1.0  0.71656  0.19692  0.46307  1.0000
  S   S294      1.0  0.54511  0.20616  0.32417  1.0000
  C   C929      1.0  0.54828  0.15005  0.44520  1.0000
  H   H922      1.0  0.51883  0.05526  0.27135  1.0000
  H   H923      1.0  0.54268  0.15242  0.41239  1.0000
  S   S295      1.0  0.48565  0.12038  0.32384  1.0000
  C   C930      1.0  0.51031  0.28044  0.31910  1.0000
  C   C931      1.0  0.51409  0.18999  0.43638  1.0000
  Fe  Fe145     1.0  0.57969  0.31793  0.34996  1.0000
  Fe  Fe146     1.0  0.51532  0.15008  0.38124  1.0000
  C   C932      1.0  0.53694  0.15008  0.42953  1.0000
  H   H924      1.0  0.60288  0.31889  0.39554  1.0000
  H   H925      1.0  0.52169  0.07613  0.25224  1.0000
  C   C933      1.0  0.62487  0.01240  0.14308  1.0000
  H   H926      1.0  0.48528  0.31447  0.28853  1.0000
  C   C934      1.0  0.49835  0.32329  0.28028  1.0000
  H   H927      1.0  0.70339  0.10197  0.11731  1.0000
  C   C935      1.0  0.53185  0.09922  0.31740  1.0000
  C   C936      1.0  0.51826  0.14719  0.43612  1.0000
  C   C937      1.0  0.54448  0.09858  0.29957  1.0000
  C   C938      1.0  0.68678  0.17315  0.45686  1.0000
  H   H928      1.0  0.64821  0.02225  0.15779  1.0000
  C   C939      1.0  0.56556  0.11425  0.45298  1.0000
  C   C940      1.0  0.55108  0.26724  0.27672  1.0000
  H   H929      1.0  0.49420  0.07217  0.30477  1.0000
  C   C941      1.0  0.71102  0.13802  0.45977  1.0000
  C   C942      1.0  0.68217  0.08259  0.33080  1.0000
  H   H930      1.0  0.64538  0.05249  0.33904  1.0000
  C   C943      1.0  0.51101  0.14416  0.45847  1.0000
  C   C944      1.0  0.50573  0.29160  0.41467  1.0000
  H   H931      1.0  0.50023  0.06546  0.26920  1.0000
  N   N78       1.0  0.52431  0.27576  0.30451  1.0000
  H   H932      1.0  0.70989  0.09619  0.33255  1.0000
  C   C945      1.0  0.48873  0.11406  0.29777  1.0000
  N   N79       1.0  0.49835  0.30647  0.44465  1.0000
  C   C946      1.0  0.70344  0.09879  0.13467  1.0000
  S   S296      1.0  0.49668  0.09497  0.23162  1.0000
  C   C947      1.0  0.51373  0.08948  0.31938  1.0000
  H   H933      1.0  0.67543  0.17874  0.46293  1.0000
  H   H934      1.0  0.54494  0.30927  0.42449  1.0000
  C   C948      1.0  0.71478  0.19827  0.44616  1.0000
  C   C949      1.0  0.69592  0.09154  0.34105  1.0000
  S   S297      1.0  0.50376  0.14793  0.41688  1.0000
  H   H935      1.0  0.68130  0.16061  0.45019  1.0000
  C   C950      1.0  0.54780  0.19427  0.44875  1.0000
  C   C951      1.0  0.69147  0.09477  0.36220  1.0000
  C   C952      1.0  0.58116  0.12063  0.43682  1.0000
  H   H936      1.0  0.71492  0.02121  0.09765  1.0000
  C   C953      1.0  0.72586  0.21295  0.40858  1.0000
  N   N80       1.0  0.54876  0.10893  0.44740  1.0000
  H   H937      1.0  0.51942  0.12175  0.25072  1.0000
  H   H938      1.0  0.53813  0.23920  0.29200  1.0000
  C   C954      1.0  0.53418  0.31811  0.47572  1.0000
  C   C955      1.0  0.53869  0.08833  0.28375  1.0000
  H   H939      1.0  0.65508  0.06758  0.31323  1.0000
  H   H940      1.0  0.50365  0.18488  0.47079  1.0000
  N   N81       1.0  0.52080  0.07911  0.28560  1.0000
  H   H941      1.0  0.70927  0.20278  0.38568  1.0000
  C   C956      1.0  0.63671  0.01080  0.15768  1.0000
  H   H942      1.0  0.68569  0.08035  0.31424  1.0000
  C   C957      1.0  0.50305  0.30707  0.42267  1.0000
  H   H943      1.0  0.50964  0.29208  0.39731  1.0000
  S   S298      1.0  0.52936  0.31926  0.35869  1.0000
  H   H944      1.0  0.56091  0.29634  0.26503  1.0000
  H   H945      1.0  0.56170  0.26393  0.26615  1.0000
  H   H946      1.0  0.69288  0.16875  0.47100  1.0000
  H   H947      1.0  0.49235  0.29020  0.47652  1.0000
  N   N82       1.0  0.71867  0.09612  0.14196  1.0000
  S   S299      1.0  0.72482  0.19325  0.31840  1.0000
  C   C958      1.0  0.71859  0.09180  0.16387  1.0000
  C   C959      1.0  0.72769  0.16217  0.42983  1.0000
  H   H948      1.0  0.73067  0.08976  0.16966  1.0000
  H   H949      1.0  0.51087  0.32154  0.30907  1.0000
  H   H950      1.0  0.64225  0.99341  0.18438  1.0000
  C   C960      1.0  0.63349  0.99456  0.17242  1.0000
  H   H951      1.0  0.73249  0.09594  0.11006  1.0000
  H   H952      1.0  0.53496  0.10692  0.48001  1.0000
  C   C961      1.0  0.56307  0.00308  0.78071  1.0000
  S   S300      1.0  0.54760  0.26541  0.58682  1.0000
  Fe  Fe147     1.0  0.66145  0.06012  0.73504  1.0000
  S   S301      1.0  0.66398  0.05352  0.70093  1.0000
  S   S302      1.0  0.68853  0.06526  0.74726  1.0000
  Fe  Fe148     1.0  0.62038  0.05555  0.73765  1.0000
  S   S303      1.0  0.62033  0.04877  0.70415  1.0000
  S   S304      1.0  0.59363  0.05653  0.75666  1.0000
  Fe  Fe149     1.0  0.63815  0.03120  0.71413  1.0000
  H   H953      1.0  0.59907  0.10951  0.62284  1.0000
  Fe  Fe150     1.0  0.64586  0.07178  0.69437  1.0000
  S   S305      1.0  0.64716  0.09494  0.66695  1.0000
  S   S306      1.0  0.63677  0.03658  0.74846  1.0000
  S   S307      1.0  0.64488  0.07986  0.72757  1.0000
  S   S308      1.0  0.52153  0.01062  0.73156  1.0000
  Fe  Fe151     1.0  0.70086  0.13998  0.55042  1.0000
  S   S309      1.0  0.68676  0.16096  0.55906  1.0000
  S   S310      1.0  0.69798  0.11385  0.57389  1.0000
  H   H954      1.0  0.59826  0.30421  0.54471  1.0000
  S   S311      1.0  0.70647  0.18502  0.51079  1.0000
  N   N83       1.0  0.71024  0.14610  0.62085  1.0000
  Fe  Fe152     1.0  0.71369  0.18093  0.54411  1.0000
  H   H955      1.0  0.69530  0.16300  0.63489  1.0000
  Fe  Fe153     1.0  0.68110  0.16286  0.52485  1.0000
  S   S312      1.0  0.65581  0.16305  0.51118  1.0000
  S   S313      1.0  0.49357  0.03031  0.69466  1.0000
  S   S314      1.0  0.69281  0.14004  0.51733  1.0000
  Fe  Fe154     1.0  0.53223  0.17339  0.54826  1.0000
  Fe  Fe155     1.0  0.56178  0.15711  0.56210  1.0000
  S   S315      1.0  0.55070  0.13055  0.55120  1.0000
  S   S316      1.0  0.58643  0.16146  0.57810  1.0000
  Fe  Fe156     1.0  0.54654  0.14813  0.52160  1.0000
  C   C962      1.0  0.71515  0.13010  0.62383  1.0000
  S   S317      1.0  0.56002  0.17459  0.53124  1.0000
  S   S318      1.0  0.53512  0.15842  0.58030  1.0000
  Fe  Fe157     1.0  0.52378  0.13296  0.56736  1.0000
  C   C963      1.0  0.48998  0.07955  0.64882  1.0000
  C   C964      1.0  0.58867  0.29668  0.59865  1.0000
  C   C965      1.0  0.63697  0.16388  0.52963  1.0000
  C   C966      1.0  0.61999  0.16064  0.52316  1.0000
  C   C967      1.0  0.60447  0.16014  0.53795  1.0000
  C   C968      1.0  0.60593  0.16307  0.55921  1.0000
  C   C969      1.0  0.62295  0.16651  0.56565  1.0000
  C   C970      1.0  0.63849  0.16688  0.55087  1.0000
  H   H956      1.0  0.61877  0.15826  0.50675  1.0000
  H   H957      1.0  0.59137  0.15734  0.53291  1.0000
  H   H958      1.0  0.62410  0.16880  0.58210  1.0000
  H   H959      1.0  0.65158  0.16954  0.55590  1.0000
  H   H960      1.0  0.51485  0.32348  0.80194  1.0000
  C   C971      1.0  0.66123  0.09961  0.64116  1.0000
  C   C972      1.0  0.67080  0.08753  0.63423  1.0000
  C   C973      1.0  0.68190  0.09196  0.61344  1.0000
  C   C974      1.0  0.68356  0.10849  0.59958  1.0000
  C   C975      1.0  0.67398  0.12053  0.60658  1.0000
  C   C976      1.0  0.66281  0.11606  0.62723  1.0000
  H   H961      1.0  0.66963  0.07479  0.64486  1.0000
  H   H962      1.0  0.68928  0.08256  0.60813  1.0000
  H   H963      1.0  0.67511  0.13327  0.59617  1.0000
  H   H964      1.0  0.65543  0.12546  0.63252  1.0000
  C   C977      1.0  0.57374  0.04442  0.74868  1.0000
  C   C978      1.0  0.57425  0.03132  0.73531  1.0000
  C   C979      1.0  0.55816  0.02130  0.72984  1.0000
  C   C980      1.0  0.54150  0.02451  0.73735  1.0000
  C   C981      1.0  0.54094  0.03778  0.75047  1.0000
  C   C982      1.0  0.55702  0.04757  0.75632  1.0000
  H   H965      1.0  0.58689  0.02836  0.72981  1.0000
  H   H966      1.0  0.55859  0.01085  0.71999  1.0000
  H   H967      1.0  0.52806  0.04006  0.75670  1.0000
  H   H968      1.0  0.55651  0.05755  0.76687  1.0000
  H   H969      1.0  0.60174  0.01104  0.70065  1.0000
  C   C983      1.0  0.71710  0.07187  0.79675  1.0000
  C   C984      1.0  0.71216  0.07062  0.77611  1.0000
  C   C985      1.0  0.69407  0.06864  0.77322  1.0000
  C   C986      1.0  0.68102  0.06849  0.79110  1.0000
  C   C987      1.0  0.68604  0.07007  0.81171  1.0000
  Fe  Fe158     1.0  0.71865  0.16211  0.50483  1.0000
  H   H970      1.0  0.58365  0.28440  0.56261  1.0000
  H   H971      1.0  0.66708  0.06707  0.78910  1.0000
  C   C988      1.0  0.54026  0.24659  0.57388  1.0000
  C   C989      1.0  0.54493  0.23031  0.58011  1.0000
  C   C990      1.0  0.53911  0.21512  0.57006  1.0000
  Fe  Fe159     1.0  0.49791  0.02266  0.72880  1.0000
  C   C991      1.0  0.52966  0.24757  0.55761  1.0000
  H   H972      1.0  0.55321  0.22952  0.59261  1.0000
  H   H973      1.0  0.54293  0.20269  0.57481  1.0000
  S   S319      1.0  0.55544  0.14512  0.48668  1.0000
  C   C992      1.0  0.70859  0.11760  0.64343  1.0000
  C   C993      1.0  0.51578  0.10530  0.64755  1.0000
  C   C994      1.0  0.50284  0.08952  0.65940  1.0000
  H   H974      1.0  0.61989  0.12829  0.55446  1.0000
  C   C995      1.0  0.67926  0.02389  0.81420  1.0000
  H   H975      1.0  0.70356  0.02747  0.76383  1.0000
  S   S320      1.0  0.73086  0.03695  0.86724  1.0000
  S   S321      1.0  0.72403  0.20435  0.56118  1.0000
  H   H976      1.0  0.52580  0.11304  0.65561  1.0000
  C   C996      1.0  0.71101  0.02750  0.81535  1.0000
  C   C997      1.0  0.50852  0.18142  0.61514  1.0000
  H   H977      1.0  0.66182  0.11427  0.55720  1.0000
  H   H978      1.0  0.56784  0.01478  0.78843  1.0000
  C   C998      1.0  0.60891  0.11017  0.60844  1.0000
  C   C999      1.0  0.52826  0.21603  0.55404  1.0000
  H   H979      1.0  0.57899  0.28335  0.60116  1.0000
  C   C1000     1.0  0.59008  0.30611  0.61621  1.0000
  C   C1001     1.0  0.69917  0.15030  0.63721  1.0000
  H   H980      1.0  0.71196  0.10462  0.64544  1.0000
  H   H981      1.0  0.62370  0.09392  0.62543  1.0000
  S   S322      1.0  0.51919  0.30000  0.56557  1.0000
  H   H982      1.0  0.59713  0.12655  0.58699  1.0000
  H   H983      1.0  0.64415  0.10304  0.54357  1.0000
  H   H984      1.0  0.51656  0.14115  0.49136  1.0000
  C   C1002     1.0  0.63540  0.10271  0.59116  1.0000
  S   S323      1.0  0.50277  0.08315  0.68756  1.0000
  S   S324      1.0  0.63403  0.00144  0.71144  1.0000
  H   H985      1.0  0.72366  0.12663  0.61071  1.0000
  C   C1003     1.0  0.54442  0.99640  0.78115  1.0000
  H   H986      1.0  0.50828  0.30488  0.66648  1.0000
  N   N84       1.0  0.59895  0.30439  0.57848  1.0000
  H   H987      1.0  0.52593  0.12325  0.61630  1.0000
  H   H988      1.0  0.69084  0.02570  0.84353  1.0000
  S   S325      1.0  0.55756  0.31796  0.58166  1.0000
  N   N85       1.0  0.63470  0.11282  0.57174  1.0000
  H   H989      1.0  0.51653  0.17173  0.64516  1.0000
  H   H990      1.0  0.69124  0.11168  0.67499  1.0000
  Fe  Fe160     1.0  0.54489  0.29222  0.56987  1.0000
  C   C1004     1.0  0.69698  0.12157  0.66002  1.0000
  S   S326      1.0  0.50141  0.10925  0.58742  1.0000
  C   C1005     1.0  0.60784  0.11976  0.58835  1.0000
  C   C1006     1.0  0.59865  0.99636  0.70487  1.0000
  S   S327      1.0  0.70962  0.07245  0.84114  1.0000
  H   H991      1.0  0.59952  0.99537  0.78159  1.0000
  S   S328      1.0  0.49335  0.04803  0.73960  1.0000
  S   S329      1.0  0.51850  0.14802  0.53663  1.0000
  H   H992      1.0  0.68297  0.14103  0.66966  1.0000
  C   C1007     1.0  0.70077  0.02647  0.78144  1.0000
  H   H993      1.0  0.60245  0.00273  0.75239  1.0000
  C   C1008     1.0  0.50275  0.10138  0.61480  1.0000
  H   H994      1.0  0.51701  0.31174  0.62602  1.0000
  H   H995      1.0  0.58146  0.30018  0.63197  1.0000
  H   H996      1.0  0.72238  0.07090  0.76234  1.0000
  N   N86       1.0  0.71458  0.02840  0.79322  1.0000
  C   C1009     1.0  0.69227  0.13804  0.65697  1.0000
  H   H997      1.0  0.49894  0.18682  0.58507  1.0000
  C   C1010     1.0  0.59714  0.29457  0.56009  1.0000
  C   C1011     1.0  0.64847  0.11446  0.55248  1.0000
  H   H998      1.0  0.65067  0.12762  0.54117  1.0000
  H   H999      1.0  0.72194  0.02902  0.82466  1.0000
  H   H1000     1.0  0.52598  0.26005  0.55272  1.0000
  C   C1012     1.0  0.50929  0.16798  0.63209  1.0000
  H   H1001     1.0  0.70894  0.16872  0.59744  1.0000
  H   H1002     1.0  0.51513  0.19572  0.61487  1.0000
  H   H1003     1.0  0.53490  0.00288  0.78898  1.0000
  H   H1004     1.0  0.57112  0.99184  0.69911  1.0000
  C   C1013     1.0  0.49942  0.17629  0.59822  1.0000
  S   S330      1.0  0.52182  0.30611  0.50142  1.0000
  C   C1014     1.0  0.52352  0.23225  0.54790  1.0000
  H   H1005     1.0  0.70977  0.00422  0.94507  1.0000
  C   C1015     1.0  0.51587  0.11111  0.62527  1.0000
  N   N87       1.0  0.55069  0.07616  0.71094  1.0000
  C   C1016     1.0  0.56885  0.07911  0.71139  1.0000
  C   C1017     1.0  0.54235  0.06394  0.69905  1.0000
  C   C1018     1.0  0.57924  0.07002  0.69934  1.0000
  C   C1019     1.0  0.55228  0.05442  0.68703  1.0000
  C   C1020     1.0  0.57085  0.05752  0.68719  1.0000
  C   C1021     1.0  0.53979  0.08512  0.72445  1.0000
  H   H1006     1.0  0.57535  0.08817  0.72156  1.0000
  H   H1007     1.0  0.52789  0.06131  0.69905  1.0000
  H   H1008     1.0  0.59357  0.07218  0.70011  1.0000
  H   H1009     1.0  0.54549  0.04443  0.67808  1.0000
  H   H1010     1.0  0.57865  0.04992  0.67838  1.0000
  H   H1011     1.0  0.53343  0.07591  0.74030  1.0000
  H   H1012     1.0  0.54818  0.09818  0.72762  1.0000
  H   H1013     1.0  0.52886  0.08841  0.71615  1.0000
  C   C1022     1.0  0.48984  0.08558  0.62664  1.0000
  S   S331      1.0  0.51986  0.19687  0.54208  1.0000
  H   H1014     1.0  0.67220  0.02372  0.78209  1.0000
  H   H1015     1.0  0.60785  0.28728  0.55810  1.0000
  Fe  Fe161     1.0  0.53407  0.31233  0.53120  1.0000
  H   H1016     1.0  0.51511  0.23303  0.53555  1.0000
  H   H1017     1.0  0.64602  0.09583  0.59237  1.0000
  H   H1018     1.0  0.67588  0.06993  0.82548  1.0000
  C   C1023     1.0  0.62268  0.10143  0.60987  1.0000
  C   C1024     1.0  0.70405  0.07149  0.81472  1.0000
  H   H1019     1.0  0.73103  0.07321  0.79874  1.0000
  H   H1020     1.0  0.66564  0.02296  0.82224  1.0000
  C   C1025     1.0  0.62084  0.12082  0.57001  1.0000
  N   N88       1.0  0.57518  0.99569  0.76961  1.0000
  C   C1026     1.0  0.69337  0.02542  0.82615  1.0000
  C   C1027     1.0  0.68292  0.02426  0.79172  1.0000
  S   S332      1.0  0.55878  0.30278  0.53517  1.0000
  S   S333      1.0  0.72828  0.15989  0.53717  1.0000
  C   C1028     1.0  0.71726  0.15892  0.60012  1.0000
  H   H1021     1.0  0.71698  0.15139  0.58618  1.0000
  H   H1022     1.0  0.59798  0.01786  0.77037  1.0000
  C   C1029     1.0  0.59473  0.00324  0.76854  1.0000
  Fe  Fe162     1.0  0.48718  0.05485  0.70586  1.0000
  H   H1023     1.0  0.52110  0.18066  0.49833  1.0000
  H   H1024     1.0  0.48403  0.13958  0.57646  1.0000
  H   H1025     1.0  0.48867  0.16313  0.56452  1.0000
  C   C1030     1.0  0.50077  0.14968  0.63209  1.0000
  N   N89       1.0  0.49166  0.15826  0.59796  1.0000
  H   H1026     1.0  0.50126  0.13907  0.64515  1.0000
  H   H1027     1.0  0.73143  0.16689  0.59981  1.0000
  H   H1028     1.0  0.54414  0.18036  0.49077  1.0000
  C   C1031     1.0  0.51144  0.31883  0.65798  1.0000
  C   C1032     1.0  0.49185  0.14505  0.61485  1.0000
  C   C1033     1.0  0.60246  0.32329  0.61316  1.0000
  H   H1029     1.0  0.53870  0.20187  0.49218  1.0000
  H   H1030     1.0  0.48541  0.13078  0.61486  1.0000
  H   H1031     1.0  0.72350  0.99527  0.92615  1.0000
  C   C1034     1.0  0.61143  0.32102  0.57550  1.0000
  C   C1035     1.0  0.51643  0.32269  0.63506  1.0000
  C   C1036     1.0  0.53418  0.18822  0.48749  1.0000
  C   C1037     1.0  0.71234  0.99142  0.94059  1.0000
  H   H1032     1.0  0.56674  0.38626  0.28242  1.0000
  H   H1033     1.0  0.67873  0.64295  0.07941  1.0000
  C   C1038     1.0  0.62636  0.33283  0.34854  1.0000
  Fe  Fe163     1.0  0.65680  0.41839  0.40744  1.0000
  S   S334      1.0  0.68234  0.41034  0.39829  1.0000
  S   S335      1.0  0.64380  0.40893  0.44307  1.0000
  Fe  Fe164     1.0  0.65804  0.43614  0.36013  1.0000
  S   S336      1.0  0.68400  0.42962  0.34762  1.0000
  S   S337      1.0  0.64307  0.45187  0.33949  1.0000
  Fe  Fe165     1.0  0.67084  0.40232  0.36910  1.0000
  S   S338      1.0  0.67497  0.37613  0.36020  1.0000
  Fe  Fe166     1.0  0.69291  0.43821  0.37806  1.0000
  S   S339      1.0  0.72003  0.45525  0.38215  1.0000
  S   S340      1.0  0.64421  0.40804  0.37970  1.0000
  S   S341      1.0  0.66808  0.44709  0.38909  1.0000
  H   H1034     1.0  0.50483  0.33540  0.44246  1.0000
  H   H1035     1.0  0.52870  0.56155  0.29647  1.0000
  C   C1039     1.0  0.61475  0.42322  0.26041  1.0000
  H   H1036     1.0  0.70841  0.55406  0.07774  1.0000
  H   H1037     1.0  0.72621  0.61585  0.10325  1.0000
  C   C1040     1.0  0.60820  0.33159  0.40119  1.0000
  H   H1038     1.0  0.71328  0.38846  0.33421  1.0000
  H   H1039     1.0  0.55053  0.57244  0.23787  1.0000
  H   H1040     1.0  0.70976  0.36515  0.34719  1.0000
  C   C1041     1.0  0.72967  0.64956  0.11159  1.0000
  H   H1041     1.0  0.62719  0.37758  0.41935  1.0000
  Fe  Fe167     1.0  0.51739  0.36500  0.17282  1.0000
  S   S342      1.0  0.54754  0.37968  0.16257  1.0000
  N   N90       1.0  0.60411  0.35969  0.41107  1.0000
  C   C1042     1.0  0.71581  0.62184  0.09806  1.0000
  S   S343      1.0  0.49797  0.36675  0.14951  1.0000
  H   H1042     1.0  0.54385  0.36038  0.44452  1.0000
  Fe  Fe168     1.0  0.62445  0.51022  0.20253  1.0000
  S   S344      1.0  0.61661  0.49944  0.17283  1.0000
  S   S345      1.0  0.61824  0.53644  0.20914  1.0000
  Fe  Fe169     1.0  0.64392  0.48107  0.21392  1.0000
  S   S346      1.0  0.63773  0.46826  0.18453  1.0000
  S   S347      1.0  0.66067  0.46885  0.23585  1.0000
  Fe  Fe170     1.0  0.64540  0.49737  0.16615  1.0000
  S   S348      1.0  0.66115  0.50754  0.13125  1.0000
  Fe  Fe171     1.0  0.60969  0.47160  0.19379  1.0000
  S   S349      1.0  0.58171  0.45128  0.19941  1.0000
  S   S350      1.0  0.65361  0.50978  0.19478  1.0000
  S   S351      1.0  0.61551  0.48273  0.22430  1.0000
  Fe  Fe172     1.0  0.51770  0.59704  0.20900  1.0000
  S   S352      1.0  0.50790  0.60121  0.17699  1.0000
  H   H1043     1.0  0.55943  0.38851  0.25662  1.0000
  Fe  Fe173     1.0  0.52942  0.56346  0.19898  1.0000
  S   S353      1.0  0.52068  0.56521  0.16635  1.0000
  S   S354      1.0  0.53629  0.53773  0.21232  1.0000
  Fe  Fe174     1.0  0.53398  0.59561  0.16245  1.0000
  S   S355      1.0  0.55255  0.61012  0.12991  1.0000
  H   H1044     1.0  0.55965  0.64675  0.06576  1.0000
  S   S356      1.0  0.54451  0.59316  0.19414  1.0000
  Fe  Fe175     1.0  0.49571  0.57060  0.18380  1.0000
  C   C1043     1.0  0.59542  0.53670  0.21041  1.0000
  C   C1044     1.0  0.59106  0.55348  0.20776  1.0000
  C   C1045     1.0  0.57301  0.55401  0.20764  1.0000
  C   C1046     1.0  0.55919  0.53771  0.21096  1.0000
  C   C1047     1.0  0.56355  0.52096  0.21384  1.0000
  C   C1048     1.0  0.58165  0.52044  0.21327  1.0000
  H   H1045     1.0  0.60168  0.56610  0.20557  1.0000
  H   H1046     1.0  0.56979  0.56699  0.20526  1.0000
  H   H1047     1.0  0.55290  0.50831  0.21649  1.0000
  H   H1048     1.0  0.58492  0.50745  0.21535  1.0000
  H   H1049     1.0  0.49304  0.61389  0.47582  1.0000
  C   C1049     1.0  0.56862  0.63198  0.12448  1.0000
  H   H1050     1.0  0.48651  0.57347  0.29982  1.0000
  C   C1050     1.0  0.71015  0.55869  0.11053  1.0000
  C   C1051     1.0  0.70266  0.55209  0.13275  1.0000
  C   C1052     1.0  0.68801  0.53624  0.13934  1.0000
  C   C1053     1.0  0.68053  0.52679  0.12375  1.0000
  C   C1054     1.0  0.68806  0.53333  0.10150  1.0000
  C   C1055     1.0  0.70279  0.54920  0.09489  1.0000
  H   H1051     1.0  0.70826  0.55927  0.14500  1.0000
  H   H1052     1.0  0.68245  0.53140  0.15649  1.0000
  H   H1053     1.0  0.68244  0.52611  0.08929  1.0000
  C   C1056     1.0  0.71835  0.46324  0.47697  1.0000
  H   H1054     1.0  0.62413  0.42846  0.27091  1.0000
  N   N91       1.0  0.58720  0.40245  0.25566  1.0000
  H   H1055     1.0  0.50299  0.42119  0.18456  1.0000
  C   C1057     1.0  0.49313  0.50972  0.17990  1.0000
  C   C1058     1.0  0.55787  0.39853  0.17427  1.0000
  C   C1059     1.0  0.57546  0.40941  0.16476  1.0000
  C   C1060     1.0  0.58338  0.42535  0.17266  1.0000
  C   C1061     1.0  0.57373  0.43046  0.19019  1.0000
  C   C1062     1.0  0.55649  0.41919  0.20021  1.0000
  C   C1063     1.0  0.54861  0.40335  0.19230  1.0000
  H   H1056     1.0  0.58283  0.40570  0.15092  1.0000
  H   H1057     1.0  0.59671  0.43389  0.16483  1.0000
  H   H1058     1.0  0.54897  0.42296  0.21388  1.0000
  H   H1059     1.0  0.53526  0.39502  0.20006  1.0000
  C   C1064     1.0  0.51747  0.34263  0.24765  1.0000
  S   S357      1.0  0.48353  0.59491  0.33340  1.0000
  H   H1060     1.0  0.52754  0.56066  0.25060  1.0000
  C   C1065     1.0  0.59073  0.40951  0.23382  1.0000
  H   H1061     1.0  0.54492  0.35529  0.25081  1.0000
  C   C1066     1.0  0.62631  0.33679  0.40378  1.0000
  H   H1062     1.0  0.51053  0.40570  0.15407  1.0000
  H   H1063     1.0  0.58326  0.33934  0.40242  1.0000
  C   C1067     1.0  0.49112  0.58768  0.29208  1.0000
  H   H1064     1.0  0.55092  0.60312  0.24033  1.0000
  H   H1065     1.0  0.67523  0.48882  0.34333  1.0000
  H   H1066     1.0  0.67934  0.61183  0.07267  1.0000
  H   H1067     1.0  0.58151  0.40415  0.22322  1.0000
  H   H1068     1.0  0.72210  0.46854  0.33206  1.0000
  C   C1068     1.0  0.49824  0.59230  0.26956  1.0000
  C   C1069     1.0  0.70891  0.44394  0.44408  1.0000
  C   C1070     1.0  0.54132  0.56682  0.25385  1.0000
  H   H1069     1.0  0.72621  0.43476  0.34771  1.0000
  C   C1071     1.0  0.49038  0.60134  0.30475  1.0000
  H   H1070     1.0  0.72367  0.64611  0.03429  1.0000
  C   C1072     1.0  0.49638  0.61968  0.29462  1.0000
  H   H1071     1.0  0.70324  0.59820  0.08500  1.0000
  C   C1073     1.0  0.54485  0.33586  0.43180  1.0000
  C   C1074     1.0  0.54177  0.41397  0.12570  1.0000
  H   H1072     1.0  0.52593  0.58504  0.31928  1.0000
  C   C1075     1.0  0.65384  0.42276  0.46082  1.0000
  C   C1076     1.0  0.68890  0.63673  0.08494  1.0000
  H   H1073     1.0  0.57933  0.65408  0.02926  1.0000
  S   S358      1.0  0.72799  0.57931  0.10351  1.0000
  C   C1077     1.0  0.66939  0.45244  0.46793  1.0000
  C   C1078     1.0  0.66231  0.44134  0.45341  1.0000
  H   H1074     1.0  0.54030  0.42161  0.11003  1.0000
  C   C1079     1.0  0.69839  0.48477  0.29572  1.0000
  H   H1075     1.0  0.67566  0.46687  0.46212  1.0000
  H   H1076     1.0  0.66298  0.44731  0.43661  1.0000
  C   C1080     1.0  0.64672  0.45442  0.31067  1.0000
  C   C1081     1.0  0.66111  0.44956  0.29916  1.0000
  C   C1082     1.0  0.66497  0.45376  0.27619  1.0000
  C   C1083     1.0  0.65441  0.46270  0.26454  1.0000
  C   C1084     1.0  0.63961  0.46698  0.27600  1.0000
  C   C1085     1.0  0.63581  0.46286  0.29899  1.0000
  H   H1077     1.0  0.66957  0.44301  0.30792  1.0000
  H   H1078     1.0  0.67635  0.45027  0.26740  1.0000
  H   H1079     1.0  0.63138  0.47387  0.26720  1.0000
  H   H1080     1.0  0.62465  0.46668  0.30779  1.0000
  C   C1086     1.0  0.59724  0.34331  0.40487  1.0000
  H   H1081     1.0  0.58122  0.62767  0.09351  1.0000
  H   H1082     1.0  0.54643  0.55586  0.26213  1.0000
  H   H1083     1.0  0.58519  0.37343  0.40059  1.0000
  C   C1087     1.0  0.65797  0.34276  0.35248  1.0000
  C   C1088     1.0  0.65614  0.36008  0.35494  1.0000
  C   C1089     1.0  0.63942  0.36394  0.35378  1.0000
  C   C1090     1.0  0.62450  0.35030  0.35056  1.0000
  H   H1084     1.0  0.63036  0.44174  0.23137  1.0000
  H   H1085     1.0  0.67084  0.33969  0.35325  1.0000
  H   H1086     1.0  0.63795  0.37736  0.35537  1.0000
  H   H1087     1.0  0.61159  0.35323  0.34983  1.0000
  C   C1091     1.0  0.71563  0.46291  0.43916  1.0000
  H   H1088     1.0  0.49910  0.58170  0.26008  1.0000
  N   N92       1.0  0.71567  0.63911  0.10114  1.0000
  H   H1089     1.0  0.66940  0.56178  0.12681  1.0000
  C   C1092     1.0  0.68931  0.61934  0.08107  1.0000
  C   C1093     1.0  0.71163  0.47724  0.30340  1.0000
  S   S359      1.0  0.50045  0.37211  0.20041  1.0000
  C   C1094     1.0  0.69878  0.47859  0.34018  1.0000
  C   C1095     1.0  0.57114  0.38711  0.26459  1.0000
  S   S360      1.0  0.48893  0.63846  0.36771  1.0000
  H   H1090     1.0  0.69884  0.47625  0.35762  1.0000
  C   C1096     1.0  0.56858  0.64455  0.13867  1.0000
  C   C1097     1.0  0.58103  0.63730  0.10459  1.0000
  Fe  Fe176     1.0  0.55145  0.33083  0.37698  1.0000
  S   S361      1.0  0.57179  0.34415  0.34636  1.0000
  S   S362      1.0  0.50377  0.56716  0.21678  1.0000
  C   C1098     1.0  0.68558  0.48583  0.33198  1.0000
  C   C1099     1.0  0.70273  0.61174  0.08784  1.0000
  H   H1091     1.0  0.59650  0.40309  0.28615  1.0000
  C   C1100     1.0  0.67249  0.49782  0.30165  1.0000
  C   C1101     1.0  0.63317  0.35344  0.41030  1.0000
  H   H1092     1.0  0.63514  0.32815  0.40010  1.0000
  C   C1102     1.0  0.72319  0.39121  0.37314  1.0000
  N   N93       1.0  0.73099  0.38437  0.35641  1.0000
  H   H1093     1.0  0.56332  0.44279  0.13695  1.0000
  H   H1094     1.0  0.70148  0.42024  0.46936  1.0000
  H   H1095     1.0  0.54868  0.62682  0.26260  1.0000
  H   H1096     1.0  0.55586  0.41260  0.12470  1.0000
  H   H1097     1.0  0.53281  0.39979  0.12830  1.0000
  H   H1098     1.0  0.65918  0.49323  0.31296  1.0000
  H   H1099     1.0  0.66988  0.49427  0.28556  1.0000
  H   H1100     1.0  0.64736  0.35779  0.41185  1.0000
  C   C1103     1.0  0.62175  0.36470  0.41416  1.0000
  H   H1101     1.0  0.67772  0.51287  0.29975  1.0000
  C   C1104     1.0  0.61829  0.43068  0.23821  1.0000
  C   C1105     1.0  0.65481  0.55737  0.13231  1.0000
  S   S363      1.0  0.48598  0.61863  0.43219  1.0000
  N   N94       1.0  0.61746  0.54570  0.14664  1.0000
  C   C1106     1.0  0.62804  0.55798  0.15666  1.0000
  C   C1107     1.0  0.62523  0.53871  0.13004  1.0000
  C   C1108     1.0  0.64686  0.56394  0.14972  1.0000
  C   C1109     1.0  0.64396  0.54464  0.12242  1.0000
  H   H1102     1.0  0.58183  0.36550  0.42963  1.0000
  C   C1110     1.0  0.59781  0.53916  0.15456  1.0000
  H   H1103     1.0  0.62201  0.56296  0.17042  1.0000
  H   H1104     1.0  0.61702  0.52830  0.12278  1.0000
  S   S364      1.0  0.54832  0.34681  0.40438  1.0000
  H   H1105     1.0  0.65011  0.53889  0.10944  1.0000
  Fe  Fe177     1.0  0.55059  0.33009  0.32834  1.0000
  H   H1106     1.0  0.59255  0.54964  0.16194  1.0000
  H   H1107     1.0  0.59035  0.53593  0.14105  1.0000
  H   H1108     1.0  0.59475  0.52670  0.16722  1.0000
  H   H1109     1.0  0.55625  0.45891  0.16721  1.0000
  N   N95       1.0  0.68558  0.48892  0.30999  1.0000
  C   C1111     1.0  0.60627  0.42378  0.22479  1.0000
  C   C1112     1.0  0.72036  0.47266  0.45568  1.0000
  H   H1110     1.0  0.49595  0.63031  0.30422  1.0000
  H   H1111     1.0  0.70935  0.39222  0.37398  1.0000
  N   N96       1.0  0.53735  0.42333  0.14374  1.0000
  C   C1113     1.0  0.52057  0.41745  0.15675  1.0000
  C   C1114     1.0  0.54992  0.43829  0.14704  1.0000
  C   C1115     1.0  0.51620  0.42627  0.17400  1.0000
  C   C1116     1.0  0.54596  0.44754  0.16403  1.0000
  C   C1117     1.0  0.52903  0.44137  0.17769  1.0000
  C   C1118     1.0  0.59908  0.40894  0.26891  1.0000
  C   C1119     1.0  0.50487  0.61066  0.25957  1.0000
  H   H1112     1.0  0.52603  0.44804  0.19138  1.0000
  C   C1120     1.0  0.50059  0.33109  0.25813  1.0000
  H   H1113     1.0  0.60889  0.42954  0.20752  1.0000
  H   H1114     1.0  0.65524  0.57329  0.15810  1.0000
  S   S365      1.0  0.51640  0.61716  0.23216  1.0000
  C   C1121     1.0  0.71188  0.47428  0.32579  1.0000
  H   H1115     1.0  0.70497  0.43634  0.43133  1.0000
  N   N97       1.0  0.54069  0.58096  0.26727  1.0000
  C   C1122     1.0  0.54618  0.59903  0.25782  1.0000
  C   C1123     1.0  0.53362  0.57588  0.28911  1.0000
  C   C1124     1.0  0.54503  0.61257  0.27038  1.0000
  C   C1125     1.0  0.53216  0.58907  0.30214  1.0000
  C   C1126     1.0  0.53791  0.60752  0.29266  1.0000
  H   H1116     1.0  0.72708  0.40347  0.40175  1.0000
  C   C1127     1.0  0.53193  0.34644  0.25920  1.0000
  S   S366      1.0  0.50541  0.33459  0.18289  1.0000
  C   C1128     1.0  0.59226  0.37166  0.41472  1.0000
  H   H1117     1.0  0.50884  0.63853  0.26454  1.0000
  H   H1118     1.0  0.57418  0.37405  0.26200  1.0000
  C   C1129     1.0  0.53721  0.33705  0.47049  1.0000
  C   C1130     1.0  0.64317  0.32922  0.34929  1.0000
  H   H1119     1.0  0.72537  0.48743  0.45210  1.0000
  H   H1120     1.0  0.55907  0.64072  0.15397  1.0000
  H   H1121     1.0  0.59999  0.38549  0.41662  1.0000
  S   S367      1.0  0.54840  0.34431  0.29505  1.0000
  C   C1131     1.0  0.50370  0.62430  0.27214  1.0000
  C   C1132     1.0  0.72029  0.37813  0.33996  1.0000
  C   C1133     1.0  0.70700  0.43496  0.46557  1.0000
  H   H1122     1.0  0.71703  0.47003  0.42258  1.0000
  H   H1123     1.0  0.51941  0.34862  0.23057  1.0000
  H   H1124     1.0  0.72165  0.47377  0.29207  1.0000
  C   C1134     1.0  0.54250  0.34589  0.44856  1.0000
  H   H1125     1.0  0.53613  0.61784  0.30238  1.0000
  C   C1135     1.0  0.70221  0.64643  0.09521  1.0000
  C   C1136     1.0  0.52970  0.33882  0.28136  1.0000
  H   H1126     1.0  0.49787  0.52673  0.20431  1.0000
  Fe  Fe178     1.0  0.48725  0.34197  0.20925  1.0000
  H   H1127     1.0  0.48468  0.49068  0.15878  1.0000
  H   H1128     1.0  0.50477  0.51815  0.16807  1.0000
  H   H1129     1.0  0.69829  0.48708  0.27828  1.0000
  H   H1130     1.0  0.69560  0.65352  0.02551  1.0000
  H   H1131     1.0  0.72887  0.37592  0.32541  1.0000
  C   C1137     1.0  0.51284  0.32719  0.29191  1.0000
  H   H1132     1.0  0.72521  0.64681  0.12957  1.0000
  C   C1138     1.0  0.59306  0.65502  0.09879  1.0000
  C   C1139     1.0  0.48802  0.62587  0.47339  1.0000
  Fe  Fe179     1.0  0.48389  0.33704  0.16239  1.0000
  C   C1140     1.0  0.48923  0.51459  0.20027  1.0000
  C   C1141     1.0  0.48381  0.63165  0.45301  1.0000
  H   H1133     1.0  0.55161  0.65546  0.10019  1.0000
  C   C1142     1.0  0.70995  0.43490  0.50400  1.0000
  H   H1134     1.0  0.61287  0.38185  0.49934  1.0000
  C   C1143     1.0  0.54495  0.35064  0.78820  1.0000
  H   H1135     1.0  0.62224  0.47200  0.66025  1.0000
  N   N98       1.0  0.49294  0.59259  0.81155  1.0000
  S   S368      1.0  0.59767  0.34650  0.53411  1.0000
  S   S369      1.0  0.54551  0.33991  0.53950  1.0000
  Fe  Fe180     1.0  0.65405  0.42102  0.58294  1.0000
  S   S370      1.0  0.65264  0.44890  0.56887  1.0000
  S   S371      1.0  0.62753  0.39999  0.59695  1.0000
  Fe  Fe181     1.0  0.69526  0.43244  0.57612  1.0000
  S   S372      1.0  0.69714  0.46138  0.56165  1.0000
  H   H1136     1.0  0.65938  0.42050  0.51417  1.0000
  Fe  Fe182     1.0  0.67383  0.45887  0.58889  1.0000
  S   S373      1.0  0.66936  0.48158  0.60676  1.0000
  Fe  Fe183     1.0  0.67572  0.44870  0.54318  1.0000
  H   H1137     1.0  0.68861  0.49707  0.75846  1.0000
  S   S374      1.0  0.67362  0.43080  0.60487  1.0000
  S   S375      1.0  0.67553  0.41996  0.55564  1.0000
  S   S376      1.0  0.67765  0.45954  0.50736  1.0000
  H   H1138     1.0  0.70289  0.52531  0.73146  1.0000
  S   S377      1.0  0.50047  0.32685  0.69806  1.0000
  H   H1139     1.0  0.63216  0.43619  0.61595  1.0000
  C   C1144     1.0  0.61339  0.33071  0.59277  1.0000
  S   S378      1.0  0.51533  0.63837  0.59949  1.0000
  H   H1140     1.0  0.63093  0.44450  0.70696  1.0000
  H   H1141     1.0  0.49204  0.56434  0.81396  1.0000
  C   C1145     1.0  0.52706  0.59731  0.82316  1.0000
  H   H1142     1.0  0.60737  0.44311  0.70519  1.0000
  Fe  Fe184     1.0  0.49801  0.34812  0.71926  1.0000
  S   S379      1.0  0.50482  0.34512  0.75313  1.0000
  H   H1143     1.0  0.48808  0.44512  0.72886  1.0000
  C   C1146     1.0  0.49604  0.33757  0.81458  1.0000
  H   H1144     1.0  0.68212  0.48160  0.79505  1.0000
  Fe  Fe185     1.0  0.51781  0.37561  0.74491  1.0000
  S   S380      1.0  0.54661  0.38755  0.75062  1.0000
  H   H1145     1.0  0.71820  0.62093  0.94680  1.0000
  S   S381      1.0  0.51281  0.37781  0.71037  1.0000
  Fe  Fe186     1.0  0.64742  0.50495  0.77295  1.0000
  S   S382      1.0  0.65995  0.51833  0.73844  1.0000
  S   S383      1.0  0.66186  0.51004  0.80202  1.0000
  Fe  Fe187     1.0  0.61169  0.48412  0.75878  1.0000
  S   S384      1.0  0.62189  0.49683  0.72347  1.0000
  S   S385      1.0  0.58196  0.46754  0.76846  1.0000
  Fe  Fe188     1.0  0.64815  0.49098  0.72939  1.0000
  S   S386      1.0  0.66351  0.47514  0.70967  1.0000
  Fe  Fe189     1.0  0.63243  0.52277  0.73612  1.0000
  S   S387      1.0  0.62959  0.55103  0.72542  1.0000
  S   S388      1.0  0.63743  0.47692  0.76432  1.0000
  S   S389      1.0  0.62050  0.51066  0.77110  1.0000
  Fe  Fe190     1.0  0.54121  0.57850  0.72478  1.0000
  S   S390      1.0  0.53382  0.57220  0.76127  1.0000
  S   S391      1.0  0.55279  0.55879  0.70774  1.0000
  Fe  Fe191     1.0  0.52382  0.60983  0.72145  1.0000
  S   S392      1.0  0.51541  0.60581  0.75804  1.0000
  S   S393      1.0  0.51300  0.63054  0.70199  1.0000
  Fe  Fe192     1.0  0.54351  0.60274  0.75969  1.0000
  S   S394      1.0  0.56280  0.61103  0.78372  1.0000
  Fe  Fe193     1.0  0.50669  0.57585  0.75607  1.0000
  C   C1147     1.0  0.51399  0.35078  0.65874  1.0000
  S   S395      1.0  0.55260  0.60874  0.72305  1.0000
  S   S396      1.0  0.51340  0.58022  0.71968  1.0000
  C   C1148     1.0  0.60829  0.55306  0.72021  1.0000
  C   C1149     1.0  0.60297  0.56876  0.72396  1.0000
  C   C1150     1.0  0.58589  0.57058  0.72035  1.0000
  C   C1151     1.0  0.57433  0.55699  0.71223  1.0000
  C   C1152     1.0  0.57973  0.54138  0.70826  1.0000
  C   C1153     1.0  0.59654  0.53926  0.71261  1.0000
  H   H1146     1.0  0.61205  0.57947  0.72983  1.0000
  H   H1147     1.0  0.58182  0.58266  0.72345  1.0000
  H   H1148     1.0  0.57080  0.53081  0.70201  1.0000
  H   H1149     1.0  0.60058  0.52715  0.70961  1.0000
  H   H1150     1.0  0.58754  0.61875  0.81355  1.0000
  C   C1154     1.0  0.69913  0.54648  0.82607  1.0000
  C   C1155     1.0  0.68535  0.53113  0.82392  1.0000
  C   C1156     1.0  0.67796  0.53044  0.80463  1.0000
  C   C1157     1.0  0.68432  0.54549  0.78761  1.0000
  H   H1151     1.0  0.70481  0.54665  0.84090  1.0000
  H   H1152     1.0  0.68052  0.51963  0.83726  1.0000
  H   H1153     1.0  0.67882  0.54522  0.77267  1.0000
  H   H1154     1.0  0.48919  0.63097  0.50627  1.0000
  C   C1158     1.0  0.55621  0.41040  0.75386  1.0000
  C   C1159     1.0  0.57520  0.41699  0.75142  1.0000
  C   C1160     1.0  0.58334  0.43466  0.75513  1.0000
  C   C1161     1.0  0.57251  0.44578  0.76182  1.0000
  C   C1162     1.0  0.55352  0.43922  0.76419  1.0000
  C   C1163     1.0  0.54540  0.42170  0.76002  1.0000
  H   H1155     1.0  0.58367  0.40831  0.74682  1.0000
  H   H1156     1.0  0.59794  0.43945  0.75345  1.0000
  H   H1157     1.0  0.54503  0.44768  0.76946  1.0000
  H   H1158     1.0  0.53079  0.41680  0.76208  1.0000
  C   C1164     1.0  0.52022  0.61233  0.81856  1.0000
  C   C1165     1.0  0.51435  0.63571  0.62810  1.0000
  C   C1166     1.0  0.52791  0.62979  0.63740  1.0000
  C   C1167     1.0  0.52734  0.62751  0.66017  1.0000
  C   C1168     1.0  0.51354  0.63176  0.67364  1.0000
  C   C1169     1.0  0.50012  0.63785  0.66430  1.0000
  C   C1170     1.0  0.50032  0.63946  0.64171  1.0000
  H   H1159     1.0  0.53890  0.62696  0.62700  1.0000
  H   H1160     1.0  0.53788  0.62300  0.66721  1.0000
  H   H1161     1.0  0.53623  0.38092  0.79715  1.0000
  H   H1162     1.0  0.48461  0.32543  0.81878  1.0000
  C   C1171     1.0  0.50811  0.37011  0.81173  1.0000
  C   C1172     1.0  0.70938  0.65292  0.84808  1.0000
  C   C1173     1.0  0.66833  0.47986  0.63529  1.0000
  C   C1174     1.0  0.66252  0.49298  0.64584  1.0000
  C   C1175     1.0  0.66084  0.49165  0.66866  1.0000
  C   C1176     1.0  0.66534  0.47736  0.68102  1.0000
  C   C1177     1.0  0.67123  0.46430  0.67047  1.0000
  C   C1178     1.0  0.67259  0.46544  0.64771  1.0000
  H   H1163     1.0  0.65922  0.50418  0.63632  1.0000
  H   H1164     1.0  0.65635  0.50182  0.67662  1.0000
  H   H1165     1.0  0.67475  0.45323  0.67994  1.0000
  H   H1166     1.0  0.67711  0.45531  0.63976  1.0000
  H   H1167     1.0  0.51285  0.36164  0.66770  1.0000
  C   C1179     1.0  0.69635  0.64709  0.79783  1.0000
  H   H1168     1.0  0.61341  0.40392  0.48433  1.0000
  H   H1169     1.0  0.55603  0.36317  0.78781  1.0000
  H   H1170     1.0  0.54873  0.33882  0.79667  1.0000
  N   N99       1.0  0.70366  0.50599  0.78297  1.0000
  H   H1171     1.0  0.70317  0.57216  0.77623  1.0000
  C   C1180     1.0  0.60588  0.36126  0.55169  1.0000
  C   C1181     1.0  0.59507  0.36153  0.57135  1.0000
  C   C1182     1.0  0.60194  0.37323  0.58536  1.0000
  C   C1183     1.0  0.61951  0.38499  0.57952  1.0000
  C   C1184     1.0  0.63025  0.38481  0.55976  1.0000
  C   C1185     1.0  0.62350  0.37287  0.54594  1.0000
  H   H1172     1.0  0.58135  0.35291  0.57575  1.0000
  H   H1173     1.0  0.59351  0.37338  0.60057  1.0000
  H   H1174     1.0  0.64377  0.39378  0.55511  1.0000
  H   H1175     1.0  0.63194  0.37273  0.53074  1.0000
  C   C1186     1.0  0.60485  0.39188  0.49642  1.0000
  C   C1187     1.0  0.69098  0.62803  0.80258  1.0000
  H   H1176     1.0  0.59997  0.64631  0.82927  1.0000
  H   H1177     1.0  0.57381  0.37621  0.52423  1.0000
  C   C1188     1.0  0.48580  0.63547  0.49067  1.0000
  H   H1178     1.0  0.71901  0.58254  0.96747  1.0000
  C   C1189     1.0  0.58321  0.63097  0.80940  1.0000
  S   S397      1.0  0.72442  0.60509  0.86100  1.0000
  H   H1179     1.0  0.63247  0.41292  0.64724  1.0000
  C   C1190     1.0  0.69816  0.56079  0.78971  1.0000
  C   C1191     1.0  0.51883  0.35461  0.63581  1.0000
  H   H1180     1.0  0.62299  0.34413  0.59016  1.0000
  C   C1192     1.0  0.57071  0.63104  0.79502  1.0000
  C   C1193     1.0  0.66018  0.42636  0.49729  1.0000
  N   N100      1.0  0.62472  0.44612  0.67480  1.0000
  C   C1194     1.0  0.57673  0.39191  0.54998  1.0000
  Fe  Fe194     1.0  0.49099  0.64236  0.58501  1.0000
  H   H1181     1.0  0.62503  0.64411  0.77880  1.0000
  H   H1182     1.0  0.52239  0.56832  0.82427  1.0000
  C   C1195     1.0  0.56512  0.64689  0.79001  1.0000
  H   H1183     1.0  0.64664  0.40084  0.48856  1.0000
  C   C1196     1.0  0.70696  0.52379  0.74734  1.0000
  C   C1197     1.0  0.71484  0.65628  0.79415  1.0000
  N   N101      1.0  0.57290  0.52862  0.76585  1.0000
  C   C1198     1.0  0.55886  0.53589  0.76218  1.0000
  C   C1199     1.0  0.57281  0.51162  0.76146  1.0000
  C   C1200     1.0  0.54445  0.52626  0.75344  1.0000
  C   C1201     1.0  0.55866  0.50163  0.75263  1.0000
  C   C1202     1.0  0.54446  0.50908  0.74848  1.0000
  C   C1203     1.0  0.58798  0.53882  0.77497  1.0000
  H   H1184     1.0  0.55909  0.54949  0.76524  1.0000
  H   H1185     1.0  0.58381  0.50576  0.76449  1.0000
  H   H1186     1.0  0.53374  0.53242  0.74969  1.0000
  H   H1187     1.0  0.55891  0.48828  0.74887  1.0000
  H   H1188     1.0  0.53362  0.50171  0.74115  1.0000
  H   H1189     1.0  0.58805  0.55339  0.77426  1.0000
  H   H1190     1.0  0.58718  0.53246  0.79218  1.0000
  H   H1191     1.0  0.60117  0.53884  0.76533  1.0000
  H   H1192     1.0  0.50315  0.57682  0.60927  1.0000
  C   C1204     1.0  0.72484  0.53579  0.77338  1.0000
  H   H1193     1.0  0.50624  0.38336  0.81382  1.0000
  C   C1205     1.0  0.58818  0.40586  0.55765  1.0000
  H   H1194     1.0  0.59317  0.38546  0.48897  1.0000
  H   H1195     1.0  0.58432  0.40886  0.57376  1.0000
  H   H1196     1.0  0.52839  0.62593  0.81910  1.0000
  C   C1206     1.0  0.65292  0.41526  0.48277  1.0000
  H   H1197     1.0  0.72620  0.63588  0.88664  1.0000
  H   H1198     1.0  0.48699  0.38490  0.61854  1.0000
  H   H1199     1.0  0.51817  0.59805  0.61292  1.0000
  N   N102      1.0  0.72761  0.64674  0.79524  1.0000
  Fe  Fe195     1.0  0.56902  0.32928  0.54639  1.0000
  H   H1200     1.0  0.67669  0.62071  0.80587  1.0000
  C   C1207     1.0  0.51689  0.57997  0.82145  1.0000
  N   N103      1.0  0.59877  0.39721  0.51713  1.0000
  S   S398      1.0  0.71836  0.41941  0.57737  1.0000
  H   H1201     1.0  0.70776  0.63850  0.85326  1.0000
  H   H1202     1.0  0.48494  0.59157  0.68334  1.0000
  C   C1208     1.0  0.72247  0.62804  0.79938  1.0000
  C   C1209     1.0  0.60496  0.41543  0.54491  1.0000
  C   C1210     1.0  0.49354  0.35446  0.81792  1.0000
  Fe  Fe196     1.0  0.53313  0.32688  0.57446  1.0000
  S   S399      1.0  0.52230  0.34534  0.59507  1.0000
  H   H1203     1.0  0.56390  0.38395  0.56008  1.0000
  N   N104      1.0  0.52741  0.35198  0.79914  1.0000
  H   H1204     1.0  0.49797  0.62152  0.80863  1.0000
  H   H1205     1.0  0.62322  0.41824  0.51490  1.0000
  H   H1206     1.0  0.62778  0.41954  0.68497  1.0000
  S   S400      1.0  0.49217  0.38225  0.75829  1.0000
  C   C1211     1.0  0.69894  0.50782  0.76270  1.0000
  H   H1207     1.0  0.52145  0.36847  0.62725  1.0000
  H   H1208     1.0  0.50754  0.58961  0.65251  1.0000
  H   H1209     1.0  0.70011  0.60358  0.80690  1.0000
  H   H1210     1.0  0.62727  0.46598  0.62248  1.0000
  C   C1212     1.0  0.70578  0.56135  0.80885  1.0000
  C   C1213     1.0  0.50304  0.60972  0.81266  1.0000
  C   C1214     1.0  0.73118  0.63051  0.93938  1.0000
  C   C1215     1.0  0.51961  0.34053  0.62385  1.0000
  C   C1216     1.0  0.50423  0.59132  0.61056  1.0000
  Fe  Fe197     1.0  0.48627  0.38239  0.72423  1.0000
  C   C1217     1.0  0.62417  0.45887  0.65759  1.0000
  H   H1211     1.0  0.48945  0.64120  0.67464  1.0000
  C   C1218     1.0  0.63009  0.42584  0.65011  1.0000
  H   H1212     1.0  0.60368  0.64229  0.75271  1.0000
  H   H1213     1.0  0.70452  0.48023  0.79937  1.0000
  C   C1219     1.0  0.62683  0.45550  0.63619  1.0000
  C   C1220     1.0  0.62169  0.44970  0.69719  1.0000
  C   C1221     1.0  0.58237  0.38762  0.52965  1.0000
  C   C1222     1.0  0.71657  0.51962  0.78833  1.0000
  H   H1214     1.0  0.72009  0.51831  0.80451  1.0000
  H   H1215     1.0  0.69186  0.49251  0.81547  1.0000
  C   C1223     1.0  0.62983  0.43889  0.63248  1.0000
  S   S401      1.0  0.72427  0.58041  0.80962  1.0000
  C   C1224     1.0  0.62746  0.42969  0.67132  1.0000
  H   H1216     1.0  0.62476  0.46460  0.69748  1.0000
  C   C1225     1.0  0.70410  0.61842  0.80328  1.0000
  C   C1226     1.0  0.72057  0.63254  0.90440  1.0000
  H   H1217     1.0  0.55551  0.64721  0.77904  1.0000
  C   C1227     1.0  0.61005  0.41091  0.52455  1.0000
  C   C1228     1.0  0.59033  0.64661  0.81833  1.0000
  C   C1229     1.0  0.60892  0.65510  0.75819  1.0000
  H   H1218     1.0  0.48839  0.54194  0.73554  1.0000
  H   H1219     1.0  0.54053  0.59922  0.82733  1.0000
  H   H1220     1.0  0.48982  0.64397  0.63484  1.0000
  H   H1221     1.0  0.61420  0.42592  0.55102  1.0000
  C   C1230     1.0  0.69523  0.48918  0.79895  1.0000
  C   C1231     1.0  0.49441  0.59103  0.64947  1.0000
  H   H1222     1.0  0.70871  0.44397  0.51623  1.0000
  S   S402      1.0  0.72748  0.58618  0.92067  1.0000
  H   H1223     1.0  0.69747  0.42330  0.50831  1.0000
  C   C1232     1.0  0.49976  0.57784  0.81556  1.0000
  H   H1224     1.0  0.68091  0.64960  0.84666  1.0000
  H   H1225     1.0  0.60352  0.33091  0.62651  1.0000
  C   C1233     1.0  0.52506  0.36861  0.80230  1.0000
  H   H1226     1.0  0.54418  0.34908  0.77096  1.0000
  C   C1234     1.0  0.51316  0.33658  0.80506  1.0000
  C   C1235     1.0  0.50978  0.33278  0.66986  1.0000
  C   C1236     1.0  0.66828  0.44505  0.48991  1.0000
  C   C1237     1.0  0.71993  0.53787  0.75279  1.0000
  H   H1227     1.0  0.71023  0.64008  0.90769  1.0000
  N   N105      1.0  0.71162  0.44463  0.48170  1.0000
  H   H1228     1.0  0.50246  0.59871  0.59483  1.0000
  N   N106      1.0  0.49065  0.59243  0.62871  1.0000
  H   H1229     1.0  0.72595  0.55050  0.74123  1.0000
  H   H1230     1.0  0.72203  0.42976  0.50559  1.0000
  H   H1231     1.0  0.68629  0.65479  0.79772  1.0000
  H   H1232     1.0  0.73119  0.42649  0.62544  1.0000
  H   H1233     1.0  0.72172  0.47094  0.48982  1.0000
  H   H1234     1.0  0.71392  0.61759  0.90828  1.0000
  H   H1235     1.0  0.61965  0.32711  0.55953  1.0000
  H   H1236     1.0  0.53427  0.34468  0.48317  1.0000
  H   H1237     1.0  0.73257  0.62041  0.79982  1.0000
  C   C1238     1.0  0.62101  0.65622  0.77297  1.0000
  C   C1239     1.0  0.71705  0.97746  0.09746  1.0000
  C   C1240     1.0  0.72600  0.68367  0.05810  1.0000
  H   H1238     1.0  0.59608  0.71029  0.03659  1.0000
  H   H1239     1.0  0.52479  0.97334  0.20405  1.0000
  N   N107      1.0  0.56692  0.67418  0.07152  1.0000
  H   H1240     1.0  0.58059  0.86722  0.22950  1.0000
  H   H1241     1.0  0.63397  0.80868  0.09285  1.0000
  S   S403      1.0  0.62392  0.72509  0.99673  1.0000
  S   S404      1.0  0.72346  0.93246  0.05407  1.0000
  C   C1241     1.0  0.64882  0.79159  0.10803  1.0000
  H   H1242     1.0  0.66163  0.77142  0.12033  1.0000
  Fe  Fe198     1.0  0.54070  0.88009  0.23086  1.0000
  S   S405      1.0  0.52721  0.86521  0.20675  1.0000
  S   S406      1.0  0.54666  0.86080  0.25775  1.0000
  Fe  Fe199     1.0  0.54188  0.91690  0.20488  1.0000
  S   S407      1.0  0.52826  0.90444  0.17892  1.0000
  S   S408      1.0  0.54686  0.94752  0.20056  1.0000
  Fe  Fe200     1.0  0.50975  0.88453  0.20724  1.0000
  H   H1243     1.0  0.67759  0.70722  0.99090  1.0000
  Fe  Fe201     1.0  0.54720  0.88645  0.18085  1.0000
  S   S409      1.0  0.56028  0.87557  0.15273  1.0000
  S   S410      1.0  0.52191  0.89813  0.23317  1.0000
  S   S411      1.0  0.56217  0.90022  0.20490  1.0000
  Fe  Fe202     1.0  0.65470  0.90619  0.06920  1.0000
  S   S412      1.0  0.67624  0.89248  0.07726  1.0000
  S   S413      1.0  0.63849  0.91570  0.09636  1.0000
  Fe  Fe203     1.0  0.66831  0.91081  0.01979  1.0000
  S   S414      1.0  0.69083  0.89804  0.02513  1.0000
  H   H1244     1.0  0.48524  0.80987  0.30311  1.0000
  Fe  Fe204     1.0  0.66961  0.87658  0.05001  1.0000
  S   S415      1.0  0.66079  0.84615  0.04611  1.0000
  Fe  Fe205     1.0  0.69515  0.91532  0.05134  1.0000
  S   S416      1.0  0.64680  0.88923  0.04362  1.0000
  S   S417      1.0  0.67393  0.92926  0.04438  1.0000
  Fe  Fe206     1.0  0.63630  0.71886  0.02645  1.0000
  S   S418      1.0  0.66628  0.72883  0.02554  1.0000
  Fe  Fe207     1.0  0.62819  0.70279  0.07512  1.0000
  S   S419      1.0  0.65780  0.71156  0.07783  1.0000
  S   S420      1.0  0.60572  0.69096  0.10494  1.0000
  Fe  Fe208     1.0  0.65853  0.73845  0.05697  1.0000
  S   S421      1.0  0.67292  0.76594  0.06563  1.0000
  Fe  Fe209     1.0  0.66306  0.70135  0.04610  1.0000
  S   S422      1.0  0.67844  0.68123  0.03526  1.0000
  S   S423      1.0  0.62868  0.73022  0.05649  1.0000
  S   S424      1.0  0.63321  0.69090  0.04492  1.0000
  C   C1242     1.0  0.57868  0.66477  0.03879  1.0000
  Fe  Fe210     1.0  0.48551  0.76933  0.37805  1.0000
  H   H1245     1.0  0.51155  0.75520  0.43293  1.0000
  C   C1243     1.0  0.65276  0.84244  0.98706  1.0000
  H   H1246     1.0  0.71500  0.96885  0.04586  1.0000
  C   C1244     1.0  0.59334  0.96407  0.22451  1.0000
  Fe  Fe211     1.0  0.48570  0.80932  0.36946  1.0000
  S   S425      1.0  0.50122  0.74831  0.37512  1.0000
  C   C1245     1.0  0.69885  0.67689  0.04169  1.0000
  C   C1246     1.0  0.70990  0.68772  0.05348  1.0000
  S   S426      1.0  0.66915  0.92266  0.98449  1.0000
  H   H1247     1.0  0.70615  0.69933  0.05883  1.0000
  S   S427      1.0  0.49568  0.79271  0.39531  1.0000
  C   C1247     1.0  0.66515  0.82420  0.05078  1.0000
  C   C1248     1.0  0.65385  0.80941  0.04381  1.0000
  C   C1249     1.0  0.65633  0.79166  0.04760  1.0000
  C   C1250     1.0  0.67014  0.78837  0.05857  1.0000
  C   C1251     1.0  0.68158  0.80320  0.06530  1.0000
  C   C1252     1.0  0.67912  0.82096  0.06147  1.0000
  H   H1248     1.0  0.64293  0.81162  0.03565  1.0000
  H   H1249     1.0  0.64739  0.78047  0.04233  1.0000
  H   H1250     1.0  0.69235  0.80089  0.07374  1.0000
  H   H1251     1.0  0.68798  0.83212  0.06689  1.0000
  C   C1253     1.0  0.48897  0.72756  0.36907  1.0000
  C   C1254     1.0  0.56535  0.84520  0.20351  1.0000
  H   H1252     1.0  0.52000  0.82027  0.32827  1.0000
  C   C1255     1.0  0.58157  0.88739  0.13637  1.0000
  C   C1256     1.0  0.58916  0.87912  0.12015  1.0000
  C   C1257     1.0  0.60653  0.88765  0.10761  1.0000
  C   C1258     1.0  0.61643  0.90455  0.11120  1.0000
  C   C1259     1.0  0.60883  0.91282  0.12741  1.0000
  C   C1260     1.0  0.59147  0.90430  0.13997  1.0000
  H   H1253     1.0  0.58158  0.86604  0.11729  1.0000
  H   H1254     1.0  0.61224  0.88118  0.09516  1.0000
  H   H1255     1.0  0.61643  0.92589  0.13026  1.0000
  H   H1256     1.0  0.58580  0.91073  0.15247  1.0000
  C   C1261     1.0  0.57709  0.69177  0.06362  1.0000
  H   H1257     1.0  0.68294  0.86467  0.99971  1.0000
  C   C1262     1.0  0.57782  0.95288  0.21901  1.0000
  C   C1263     1.0  0.56573  0.96080  0.20920  1.0000
  H   H1258     1.0  0.56023  0.67835  0.10421  1.0000
  C   C1264     1.0  0.49276  0.82992  0.27366  1.0000
  H   H1259     1.0  0.70883  0.96408  0.09609  1.0000
  H   H1260     1.0  0.57525  0.93818  0.22227  1.0000
  C   C1265     1.0  0.71085  0.95542  0.98819  1.0000
  H   H1261     1.0  0.55711  0.84604  0.19035  1.0000
  H   H1262     1.0  0.62720  0.89841  0.18206  1.0000
  H   H1263     1.0  0.53987  0.82956  0.29172  1.0000
  C   C1266     1.0  0.50195  0.74277  0.43108  1.0000
  C   C1267     1.0  0.61477  0.88738  0.18666  1.0000
  H   H1264     1.0  0.56821  0.83166  0.20574  1.0000
  H   H1265     1.0  0.61162  0.78254  0.08385  1.0000
  H   H1266     1.0  0.73155  0.95476  0.00778  1.0000
  H   H1267     1.0  0.63030  0.73072  0.10650  1.0000
  H   H1268     1.0  0.65893  0.80298  0.11141  1.0000
  H   H1269     1.0  0.61635  0.87957  0.15484  1.0000
  H   H1270     1.0  0.73272  0.66445  0.10525  1.0000
  C   C1268     1.0  0.72915  0.97102  0.04731  1.0000
  H   H1271     1.0  0.49736  0.85195  0.24647  1.0000
  C   C1269     1.0  0.60875  0.87675  0.17140  1.0000
  C   C1270     1.0  0.48355  0.74190  0.43282  1.0000
  H   H1272     1.0  0.63727  0.73651  0.13141  1.0000
  H   H1273     1.0  0.66307  0.87302  0.00387  1.0000
  H   H1274     1.0  0.58947  0.95480  0.17128  1.0000
  C   C1271     1.0  0.65028  0.77373  0.11300  1.0000
  H   H1275     1.0  0.60912  0.89203  0.21975  1.0000
  C   C1272     1.0  0.50987  0.84406  0.32526  1.0000
  C   C1273     1.0  0.52023  0.83279  0.31781  1.0000
  C   C1274     1.0  0.53152  0.83811  0.29713  1.0000
  C   C1275     1.0  0.53214  0.85445  0.28350  1.0000
  C   C1276     1.0  0.52135  0.86544  0.29070  1.0000
  C   C1277     1.0  0.51044  0.86036  0.31161  1.0000
  C   C1278     1.0  0.48901  0.84500  0.26209  1.0000
  N   N108      1.0  0.60683  0.98172  0.15798  1.0000
  H   H1276     1.0  0.52179  0.87811  0.28043  1.0000
  C   C1279     1.0  0.58812  0.69632  0.04296  1.0000
  H   H1277     1.0  0.57998  0.67205  0.14367  1.0000
  H   H1278     1.0  0.63844  0.89017  0.99131  1.0000
  C   C1280     1.0  0.63480  0.79479  0.09756  1.0000
  H   H1279     1.0  0.58756  0.85508  0.16516  1.0000
  H   H1280     1.0  0.55975  0.98608  0.19768  1.0000
  H   H1281     1.0  0.50989  0.71407  0.37390  1.0000
  H   H1282     1.0  0.49810  0.82886  0.47452  1.0000
  H   H1283     1.0  0.64964  0.83867  0.00474  1.0000
  H   H1284     1.0  0.60277  0.95795  0.23196  1.0000
  C   C1281     1.0  0.59687  0.98317  0.22005  1.0000
  H   H1285     1.0  0.54130  0.67283  0.08989  1.0000
  C   C1282     1.0  0.59246  0.86290  0.17733  1.0000
  C   C1283     1.0  0.49548  0.71218  0.42305  1.0000
  C   C1284     1.0  0.60463  0.88384  0.20772  1.0000
  H   H1286     1.0  0.50252  0.86919  0.31731  1.0000
  C   C1285     1.0  0.58887  0.68272  0.03048  1.0000
  C   C1286     1.0  0.58844  0.86980  0.21313  1.0000
  N   N109      1.0  0.58240  0.85977  0.19786  1.0000
  C   C1287     1.0  0.58047  0.66234  0.13276  1.0000
  C   C1288     1.0  0.59109  0.96645  0.15786  1.0000
  C   C1289     1.0  0.62234  0.78012  0.09238  1.0000
  H   H1287     1.0  0.63129  0.68980  0.99531  1.0000
  C   C1290     1.0  0.55436  0.67002  0.09243  1.0000
  H   H1288     1.0  0.55690  0.84636  0.21882  1.0000
  C   C1291     1.0  0.61847  0.98002  0.17225  1.0000
  C   C1292     1.0  0.49643  0.71259  0.37004  1.0000
  H   H1289     1.0  0.63430  0.81777  0.98203  1.0000
  N   N110      1.0  0.63804  0.75943  0.10782  1.0000
  C   C1293     1.0  0.62414  0.76241  0.09771  1.0000
  C   C1294     1.0  0.63990  0.74086  0.11341  1.0000
  H   H1290     1.0  0.61454  0.75111  0.09340  1.0000
  H   H1291     1.0  0.65387  0.74045  0.10669  1.0000
  H   H1292     1.0  0.59742  0.68615  0.01444  1.0000
  S   S428      1.0  0.49654  0.83859  0.35172  1.0000
  H   H1293     1.0  0.57837  0.97085  0.16025  1.0000
  C   C1295     1.0  0.59264  0.66775  0.11271  1.0000
  H   H1294     1.0  0.59251  0.96138  0.14212  1.0000
  C   C1296     1.0  0.51009  0.97029  0.20631  1.0000
  C   C1297     1.0  0.48734  0.81627  0.47944  1.0000
  H   H1295     1.0  0.52231  0.72847  0.42447  1.0000
  C   C1298     1.0  0.67357  0.87087  0.99127  1.0000
  H   H1296     1.0  0.50033  0.70072  0.41897  1.0000
  C   C1299     1.0  0.56907  0.97986  0.20519  1.0000
  H   H1297     1.0  0.70170  0.94266  0.99723  1.0000
  C   C1300     1.0  0.72760  0.96228  0.99419  1.0000
  H   H1298     1.0  0.50601  0.94119  0.21402  1.0000
  H   H1299     1.0  0.57678  0.70238  0.07335  1.0000
  C   C1301     1.0  0.48655  0.69573  0.36594  1.0000
  C   C1302     1.0  0.56760  0.66073  0.05941  1.0000
  C   C1303     1.0  0.50798  0.72779  0.42630  1.0000
  H   H1300     1.0  0.68126  0.88457  0.98182  1.0000
  H   H1301     1.0  0.49240  0.68427  0.36661  1.0000
  C   C1304     1.0  0.49951  0.95221  0.21199  1.0000
  H   H1302     1.0  0.60233  0.65895  0.08333  1.0000
  C   C1305     1.0  0.50168  0.98438  0.20353  1.0000
  H   H1303     1.0  0.70207  0.66012  0.09766  1.0000
  C   C1306     1.0  0.73105  0.66859  0.05133  1.0000
  H   H1304     1.0  0.61600  0.96756  0.18400  1.0000
  C   C1307     1.0  0.70403  0.66197  0.03468  1.0000
  H   H1305     1.0  0.48909  0.90892  0.18681  1.0000
  H   H1306     1.0  0.48703  0.81104  0.44643  1.0000
  H   H1307     1.0  0.50428  0.82527  0.26726  1.0000
  C   C1308     1.0  0.71996  0.65774  0.03960  1.0000
  H   H1308     1.0  0.69553  0.99057  0.09511  1.0000
  H   H1309     1.0  0.50264  0.76250  0.52029  1.0000
  H   H1310     1.0  0.57803  0.87830  0.84194  1.0000
  N   N111      1.0  0.50324  0.69464  0.62858  1.0000
  Fe  Fe212     1.0  0.48595  0.78474  0.59205  1.0000
  C   C1309     1.0  0.63872  0.67281  0.79722  1.0000
  C   C1310     1.0  0.58627  0.88308  0.85377  1.0000
  S   S429      1.0  0.50076  0.76290  0.59453  1.0000
  C   C1311     1.0  0.71341  0.69005  0.83313  1.0000
  S   S430      1.0  0.50062  0.81426  0.57886  1.0000
  H   H1311     1.0  0.50838  0.67477  0.60956  1.0000
  H   H1312     1.0  0.66606  0.71848  0.91536  1.0000
  Fe  Fe213     1.0  0.64913  0.88327  0.88365  1.0000
  S   S431      1.0  0.63337  0.87562  0.91814  1.0000
  Fe  Fe214     1.0  0.64968  0.89697  0.83569  1.0000
  S   S432      1.0  0.67870  0.89606  0.82613  1.0000
  S   S433      1.0  0.63542  0.91096  0.81189  1.0000
  Fe  Fe215     1.0  0.66960  0.86845  0.84867  1.0000
  H   H1313     1.0  0.71120  0.85750  0.86035  1.0000
  S   S434      1.0  0.64034  0.86883  0.85636  1.0000
  S   S435      1.0  0.65562  0.91135  0.86397  1.0000
  Fe  Fe216     1.0  0.53931  0.88518  0.70703  1.0000
  S   S436      1.0  0.52692  0.87117  0.74137  1.0000
  S   S437      1.0  0.54287  0.86700  0.68212  1.0000
  Fe  Fe217     1.0  0.54751  0.92282  0.72013  1.0000
  S   S438      1.0  0.53611  0.91147  0.75553  1.0000
  S   S439      1.0  0.55494  0.95337  0.70925  1.0000
  Fe  Fe218     1.0  0.55080  0.88995  0.75103  1.0000
  S   S440      1.0  0.56457  0.87550  0.77497  1.0000
  Fe  Fe219     1.0  0.51355  0.89392  0.74250  1.0000
  C   C1312     1.0  0.61650  0.92696  0.86202  1.0000
  S   S441      1.0  0.56408  0.90276  0.71645  1.0000
  S   S442      1.0  0.52396  0.90650  0.70736  1.0000
  C   C1313     1.0  0.67635  0.69721  0.96044  1.0000
  Fe  Fe220     1.0  0.65763  0.69638  0.84254  1.0000
  S   S443      1.0  0.63233  0.67492  0.85937  1.0000
  S   S444      1.0  0.67880  0.68478  0.82457  1.0000
  Fe  Fe221     1.0  0.64136  0.72832  0.85241  1.0000
  S   S445      1.0  0.61488  0.70819  0.86966  1.0000
  S   S446      1.0  0.63991  0.75808  0.85263  1.0000
  Fe  Fe222     1.0  0.63241  0.69267  0.88516  1.0000
  S   S447      1.0  0.62925  0.67917  0.92042  1.0000
  Fe  Fe223     1.0  0.61721  0.69228  0.84209  1.0000
  S   S448      1.0  0.59432  0.68316  0.82262  1.0000
  S   S449      1.0  0.65880  0.71319  0.86947  1.0000
  S   S450      1.0  0.64256  0.71330  0.82379  1.0000
  H   H1314     1.0  0.69999  0.98336  0.93558  1.0000
  H   H1315     1.0  0.51509  0.94033  0.72572  1.0000
  C   C1314     1.0  0.58133  0.98547  0.70396  1.0000
  N   N112      1.0  0.62701  0.67210  0.78067  1.0000
  C   C1315     1.0  0.64405  0.89394  0.97404  1.0000
  H   H1316     1.0  0.60702  0.93568  0.86076  1.0000
  N   N113      1.0  0.71752  0.98117  0.95902  1.0000
  H   H1317     1.0  0.58084  0.85643  0.87357  1.0000
  C   C1316     1.0  0.72968  0.91496  0.82216  1.0000
  C   C1317     1.0  0.71989  0.87782  0.82131  1.0000
  C   C1318     1.0  0.67384  0.68649  0.92574  1.0000
  C   C1319     1.0  0.58787  0.87083  0.87148  1.0000
  C   C1320     1.0  0.69611  0.67785  0.83658  1.0000
  H   H1318     1.0  0.62400  0.93033  0.87550  1.0000
  C   C1321     1.0  0.67542  0.71000  0.97417  1.0000
  C   C1322     1.0  0.62501  0.71199  0.97580  1.0000
  C   C1323     1.0  0.49390  0.72771  0.58746  1.0000
  C   C1324     1.0  0.64407  0.83060  0.97432  1.0000
  S   S451      1.0  0.68018  0.84395  0.84136  1.0000
  C   C1325     1.0  0.62956  0.68489  0.96248  1.0000
  C   C1326     1.0  0.62693  0.69178  0.94163  1.0000
  C   C1327     1.0  0.62319  0.70875  0.93795  1.0000
  C   C1328     1.0  0.62198  0.71870  0.95509  1.0000
  H   H1319     1.0  0.64551  0.66162  0.79793  1.0000
  C   C1329     1.0  0.56917  0.98101  0.75982  1.0000
  H   H1320     1.0  0.62111  0.71416  0.92193  1.0000
  H   H1321     1.0  0.61894  0.73176  0.95218  1.0000
  H   H1322     1.0  0.71884  0.67111  0.79109  1.0000
  C   C1330     1.0  0.60293  0.67032  0.75138  1.0000
  C   C1331     1.0  0.58499  0.66258  0.81304  1.0000
  C   C1332     1.0  0.60795  0.96905  0.71563  1.0000
  C   C1333     1.0  0.59049  0.95815  0.71515  1.0000
  C   C1334     1.0  0.57717  0.96638  0.70921  1.0000
  H   H1323     1.0  0.64105  0.82670  0.94146  1.0000
  H   H1324     1.0  0.52386  0.97711  0.76983  1.0000
  H   H1325     1.0  0.61829  0.96267  0.72003  1.0000
  H   H1326     1.0  0.58737  0.94344  0.71929  1.0000
  C   C1335     1.0  0.50990  0.96591  0.71382  1.0000
  C   C1336     1.0  0.66870  0.82007  0.84497  1.0000
  C   C1337     1.0  0.67886  0.80759  0.84063  1.0000
  C   C1338     1.0  0.67041  0.78865  0.84302  1.0000
  C   C1339     1.0  0.65157  0.78185  0.84966  1.0000
  C   C1340     1.0  0.64143  0.79435  0.85403  1.0000
  C   C1341     1.0  0.64989  0.81326  0.85179  1.0000
  H   H1327     1.0  0.69340  0.81259  0.83530  1.0000
  H   H1328     1.0  0.67845  0.77933  0.83953  1.0000
  H   H1329     1.0  0.62686  0.78933  0.85915  1.0000
  H   H1330     1.0  0.64180  0.82256  0.85516  1.0000
  C   C1342     1.0  0.61646  0.90062  0.80062  1.0000
  C   C1343     1.0  0.60887  0.91181  0.78718  1.0000
  C   C1344     1.0  0.59308  0.90433  0.77899  1.0000
  C   C1345     1.0  0.58468  0.88558  0.78432  1.0000
  C   C1346     1.0  0.59245  0.87435  0.79744  1.0000
  C   C1347     1.0  0.60830  0.88181  0.80552  1.0000
  H   H1331     1.0  0.61514  0.92638  0.78325  1.0000
  H   H1332     1.0  0.58729  0.91311  0.76881  1.0000
  H   H1333     1.0  0.58610  0.85979  0.80151  1.0000
  H   H1334     1.0  0.61404  0.87305  0.81579  1.0000
  C   C1348     1.0  0.69411  0.65927  0.84450  1.0000
  H   H1335     1.0  0.72354  0.96054  0.88413  1.0000
  H   H1336     1.0  0.52090  0.67755  0.63175  1.0000
  C   C1349     1.0  0.64312  0.88878  0.93662  1.0000
  C   C1350     1.0  0.65822  0.90385  0.92919  1.0000
  C   C1351     1.0  0.66599  0.91411  0.94408  1.0000
  H   H1337     1.0  0.52406  0.71957  0.62494  1.0000
  H   H1338     1.0  0.66981  0.73588  0.97698  1.0000
  H   H1339     1.0  0.66389  0.90772  0.91195  1.0000
  H   H1340     1.0  0.67754  0.92589  0.93814  1.0000
  C   C1352     1.0  0.50503  0.94705  0.72098  1.0000
  C   C1353     1.0  0.59872  0.87717  0.88634  1.0000
  C   C1354     1.0  0.62108  0.68703  0.77423  1.0000
  H   H1341     1.0  0.54598  0.96275  0.75145  1.0000
  H   H1342     1.0  0.52710  0.69438  0.60692  1.0000
  C   C1355     1.0  0.57218  0.66250  0.79904  1.0000
  H   H1343     1.0  0.50834  0.73083  0.58146  1.0000
  H   H1344     1.0  0.56788  0.67475  0.79489  1.0000
  C   C1356     1.0  0.49828  0.72200  0.63987  1.0000
  H   H1345     1.0  0.63246  0.67176  0.96541  1.0000
  C   C1357     1.0  0.49892  0.84896  0.64108  1.0000
  C   C1358     1.0  0.49768  0.86220  0.65423  1.0000
  C   C1359     1.0  0.51110  0.86792  0.66679  1.0000
  C   C1360     1.0  0.52596  0.86052  0.66616  1.0000
  C   C1361     1.0  0.52725  0.84736  0.65293  1.0000
  C   C1362     1.0  0.51374  0.84153  0.64049  1.0000
  C   C1363     1.0  0.71945  0.96230  0.83078  1.0000
  H   H1346     1.0  0.50997  0.87810  0.67687  1.0000
  H   H1347     1.0  0.53872  0.84159  0.65232  1.0000
  H   H1348     1.0  0.51483  0.83133  0.63041  1.0000
  S   S452      1.0  0.67770  0.88132  0.87730  1.0000
  C   C1364     1.0  0.63602  0.88386  0.95908  1.0000
  C   C1365     1.0  0.66808  0.72924  0.94497  1.0000
  H   H1349     1.0  0.62506  0.69928  0.78128  1.0000
  C   C1366     1.0  0.49067  0.75889  0.53365  1.0000
  H   H1350     1.0  0.72718  0.91883  0.78820  1.0000
  N   N114      1.0  0.72286  0.88380  0.84041  1.0000
  C   C1367     1.0  0.60797  0.89571  0.88319  1.0000
  C   C1368     1.0  0.62886  0.69507  0.97944  1.0000
  H   H1351     1.0  0.64959  0.68592  0.79374  1.0000
  H   H1352     1.0  0.73046  0.90692  0.85601  1.0000
  C   C1369     1.0  0.72138  0.89030  0.80225  1.0000
  C   C1370     1.0  0.49682  0.97438  0.70782  1.0000
  C   C1371     1.0  0.71725  0.95483  0.85294  1.0000
  H   H1353     1.0  0.71381  0.95382  0.81964  1.0000
  H   H1354     1.0  0.71602  0.86331  0.82080  1.0000
  N   N115      1.0  0.58599  0.86873  0.71653  1.0000
  C   C1372     1.0  0.59631  0.87559  0.73110  1.0000
  C   C1373     1.0  0.58931  0.87756  0.69532  1.0000
  C   C1374     1.0  0.60969  0.89225  0.72495  1.0000
  C   C1375     1.0  0.60270  0.89420  0.68853  1.0000
  C   C1376     1.0  0.61281  0.90165  0.70354  1.0000
  C   C1377     1.0  0.57153  0.85165  0.72380  1.0000
  H   H1355     1.0  0.59393  0.86836  0.74778  1.0000
  H   H1356     1.0  0.58121  0.87209  0.68368  1.0000
  H   H1357     1.0  0.61737  0.89791  0.73686  1.0000
  H   H1358     1.0  0.60488  0.90145  0.67188  1.0000
  H   H1359     1.0  0.62294  0.91475  0.69864  1.0000
  H   H1360     1.0  0.56365  0.85177  0.73999  1.0000
  H   H1361     1.0  0.56169  0.84982  0.71234  1.0000
  H   H1362     1.0  0.57746  0.83985  0.72511  1.0000
  H   H1363     1.0  0.48874  0.69957  0.58376  1.0000
  C   C1378     1.0  0.60901  0.68640  0.75945  1.0000
  H   H1364     1.0  0.52379  0.97395  0.71298  1.0000
  C   C1379     1.0  0.72493  0.96615  0.86702  1.0000
  C   C1380     1.0  0.66058  0.85204  0.94191  1.0000
  H   H1365     1.0  0.48502  0.69889  0.52534  1.0000
  C   C1381     1.0  0.66904  0.86353  0.95514  1.0000
  H   H1366     1.0  0.48627  0.86806  0.65476  1.0000
  Fe  Fe224     1.0  0.68399  0.90898  0.85572  1.0000
  H   H1367     1.0  0.61651  0.90044  0.89477  1.0000
  C   C1382     1.0  0.65900  0.90918  0.96653  1.0000
  H   H1368     1.0  0.59501  0.91085  0.83678  1.0000
  H   H1369     1.0  0.49379  0.83820  0.72687  1.0000
  H   H1370     1.0  0.66333  0.85620  0.92429  1.0000
  H   H1371     1.0  0.62662  0.93042  0.84661  1.0000
  S   S453      1.0  0.70734  0.93100  0.86333  1.0000
  C   C1383     1.0  0.59583  0.90151  0.85100  1.0000
  H   H1372     1.0  0.67926  0.68458  0.96680  1.0000
  S   S454      1.0  0.48486  0.89148  0.75838  1.0000
  H   H1373     1.0  0.68758  0.68425  0.92329  1.0000
  H   H1374     1.0  0.67844  0.87659  0.94748  1.0000
  C   C1384     1.0  0.48530  0.68572  0.63600  1.0000
  H   H1375     1.0  0.49549  0.76160  0.54910  1.0000
  H   H1376     1.0  0.60020  0.86776  0.90011  1.0000
  C   C1385     1.0  0.61206  0.98818  0.71057  1.0000
  N   N116      1.0  0.60649  0.90760  0.86562  1.0000
  C   C1386     1.0  0.72625  0.90899  0.80274  1.0000
  H   H1377     1.0  0.66420  0.74141  0.93897  1.0000
  C   C1387     1.0  0.70594  0.96511  0.97051  1.0000
  C   C1388     1.0  0.72798  0.90210  0.84093  1.0000
  H   H1378     1.0  0.60392  0.69811  0.75496  1.0000
  C   C1389     1.0  0.72855  0.68380  0.83697  1.0000
  C   C1390     1.0  0.72149  0.87057  0.86017  1.0000
  C   C1391     1.0  0.55063  0.97401  0.75988  1.0000
  N   N117      1.0  0.67319  0.70038  0.93952  1.0000
  C   C1392     1.0  0.66916  0.71618  0.93168  1.0000
  H   H1379     1.0  0.66357  0.67346  0.93350  1.0000
  H   H1380     1.0  0.50239  0.73139  0.52045  1.0000
  H   H1381     1.0  0.71529  0.70429  0.82646  1.0000
  H   H1382     1.0  0.48344  0.92228  0.72766  1.0000
  H   H1383     1.0  0.49523  0.83062  0.68972  1.0000
  H   H1384     1.0  0.71704  0.87579  0.87509  1.0000
  H   H1385     1.0  0.48350  0.87945  0.71638  1.0000
  H   H1386     1.0  0.57876  0.97489  0.75148  1.0000
  C   C1393     1.0  0.67119  0.72608  0.96635  1.0000
  C   C1394     1.0  0.50986  0.71245  0.63080  1.0000
  H   H1387     1.0  0.50338  0.73641  0.64051  1.0000
  S   S455      1.0  0.48929  0.66865  0.56582  1.0000
  H   H1388     1.0  0.67047  0.69048  0.90942  1.0000
  H   H1389     1.0  0.71848  0.88544  0.78732  1.0000
  H   H1390     1.0  0.63044  0.67168  0.81351  1.0000
  H   H1391     1.0  0.50044  0.98908  0.70244  1.0000
  C   C1395     1.0  0.72676  0.66518  0.84386  1.0000
  H   H1392     1.0  0.62436  0.87219  0.96493  1.0000
  C   C1396     1.0  0.53822  0.98193  0.77039  1.0000
  C   C1397     1.0  0.51551  0.68489  0.61878  1.0000
  H   H1393     1.0  0.59312  0.66944  0.74045  1.0000
  H   H1394     1.0  0.69282  0.95962  0.96607  1.0000
  C   C1398     1.0  0.64795  0.83553  0.95159  1.0000
  C   C1399     1.0  0.48834  0.72722  0.52862  1.0000
  C   C1400     1.0  0.48710  0.93690  0.72194  1.0000
  S   S456      1.0  0.48672  0.82397  0.52099  1.0000
  C   C1401     1.0  0.72984  0.98057  0.82276  1.0000
  C   C1402     1.0  0.48644  0.74129  0.59445  1.0000
  H   H1395     1.0  0.73208  0.98589  0.80547  1.0000
  N   N118      1.0  0.66491  0.85872  0.97742  1.0000
  Fe  Fe225     1.0  0.75883  0.07369  0.02747  1.0000
  S   S457      1.0  0.78623  0.06831  0.02353  1.0000
  S   S458      1.0  0.74906  0.08460  0.99747  1.0000
  Fe  Fe226     1.0  0.75193  0.06287  0.07693  1.0000
  S   S459      1.0  0.77914  0.05699  0.07624  1.0000
  H   H1396     1.0  0.73957  0.22001  0.43509  1.0000
  Fe  Fe227     1.0  0.79095  0.08337  0.05185  1.0000
  S   S460      1.0  0.81418  0.10958  0.05144  1.0000
  Fe  Fe228     1.0  0.77164  0.04268  0.04821  1.0000
  S   S461      1.0  0.77443  0.01390  0.04625  1.0000
  S   S462      1.0  0.76381  0.08985  0.05442  1.0000
  C   C1403     1.0  0.88664  0.25632  0.04706  1.0000
  S   S463      1.0  0.93429  0.30940  0.19719  1.0000
  S   S464      1.0  0.74411  0.04738  0.05027  1.0000
  H   H1397     1.0  0.88476  0.27266  0.08163  1.0000
  Fe  Fe229     1.0  0.90820  0.18995  0.05684  1.0000
  S   S465      1.0  0.89461  0.21253  0.05196  1.0000
  S   S466      1.0  0.89282  0.15931  0.06020  1.0000
  Fe  Fe230     1.0  0.94622  0.21836  0.05420  1.0000
  S   S467      1.0  0.93456  0.24221  0.04870  1.0000
  C   C1404     1.0  0.76514  0.99947  0.10189  1.0000
  Fe  Fe231     1.0  0.91154  0.22574  0.07501  1.0000
  S   S468      1.0  0.89915  0.23840  0.10174  1.0000
  Fe  Fe232     1.0  0.91904  0.22681  0.02620  1.0000
  H   H1398     1.0  0.84354  0.10643  0.01630  1.0000
  S   S469      1.0  0.92369  0.20224  0.08201  1.0000
  S   S470      1.0  0.93216  0.20380  0.02957  1.0000
  Fe  Fe233     1.0  0.83665  0.27349  0.34514  1.0000
  S   S471      1.0  0.80844  0.27157  0.33841  1.0000
  S   S472      1.0  0.86086  0.27135  0.32184  1.0000
  Fe  Fe234     1.0  0.82592  0.27507  0.39374  1.0000
  S   S473      1.0  0.79711  0.27391  0.39083  1.0000
  S   S474      1.0  0.83421  0.27054  0.42667  1.0000
  Fe  Fe235     1.0  0.79862  0.25225  0.37059  1.0000
  S   S475      1.0  0.77765  0.22493  0.38104  1.0000
  Fe  Fe236     1.0  0.80941  0.29335  0.35928  1.0000
  S   S476      1.0  0.82675  0.25211  0.37545  1.0000
  S   S477      1.0  0.83833  0.29659  0.36392  1.0000
  C   C1405     1.0  0.83468  0.28606  0.44496  1.0000
  C   C1406     1.0  0.85814  0.11296  0.00932  1.0000
  H   H1399     1.0  0.83588  0.30955  0.42120  1.0000
  H   H1400     1.0  0.87488  0.26105  0.04277  1.0000
  C   C1407     1.0  0.78407  0.22908  0.44861  1.0000
  C   C1408     1.0  0.83579  0.30451  0.43816  1.0000
  C   C1409     1.0  0.88457  0.28551  0.28306  1.0000
  H   H1401     1.0  0.80039  0.25510  0.45245  1.0000
  H   H1402     1.0  0.97532  0.25921  0.06473  1.0000
  C   C1410     1.0  0.76286  0.21671  0.36350  1.0000
  C   C1411     1.0  0.76203  0.22759  0.34410  1.0000
  C   C1412     1.0  0.75032  0.22032  0.33026  1.0000
  H   H1403     1.0  0.83360  0.26534  0.47231  1.0000
  H   H1404     1.0  0.83608  0.13314  0.99848  1.0000
  C   C1413     1.0  0.75181  0.19872  0.36914  1.0000
  H   H1405     1.0  0.77045  0.24153  0.33970  1.0000
  H   H1406     1.0  0.88194  0.24537  0.06179  1.0000
  H   H1407     1.0  0.85162  0.30827  0.25603  1.0000
  H   H1408     1.0  0.81394  0.21457  0.36464  1.0000
  C   C1414     1.0  0.77048  0.21336  0.45887  1.0000
  H   H1409     1.0  0.91017  0.20398  0.99454  1.0000
  C   C1415     1.0  0.87796  0.30307  0.25145  1.0000
  C   C1416     1.0  0.92976  0.29354  0.04097  1.0000
  C   C1417     1.0  0.85292  0.16031  0.99680  1.0000
  C   C1418     1.0  0.86752  0.28444  0.29517  1.0000
  C   C1419     1.0  0.85580  0.29298  0.28546  1.0000
  C   C1420     1.0  0.86094  0.30208  0.26361  1.0000
  H   H1410     1.0  0.75362  0.04828  0.99743  1.0000
  H   H1411     1.0  0.84262  0.29222  0.29460  1.0000
  C   C1421     1.0  0.98092  0.25275  0.12192  1.0000
  C   C1422     1.0  0.93209  0.28865  0.12469  1.0000
  C   C1423     1.0  0.91445  0.27955  0.13549  1.0000
  C   C1424     1.0  0.90452  0.26410  0.12835  1.0000
  C   C1425     1.0  0.91220  0.25754  0.11054  1.0000
  C   C1426     1.0  0.92987  0.26663  0.09978  1.0000
  C   C1427     1.0  0.93972  0.28217  0.10677  1.0000
  H   H1412     1.0  0.90846  0.28442  0.14934  1.0000
  H   H1413     1.0  0.89084  0.25715  0.13675  1.0000
  H   H1414     1.0  0.93596  0.26176  0.08604  1.0000
  H   H1415     1.0  0.95337  0.28915  0.09831  1.0000
  C   C1428     1.0  0.83549  0.12317  0.05614  1.0000
  C   C1429     1.0  0.84913  0.11542  0.06220  1.0000
  C   C1430     1.0  0.86627  0.12667  0.06392  1.0000
  C   C1431     1.0  0.87011  0.14590  0.06005  1.0000
  C   C1432     1.0  0.85624  0.15365  0.05477  1.0000
  C   C1433     1.0  0.83917  0.14239  0.05272  1.0000
  H   H1416     1.0  0.84661  0.10072  0.06514  1.0000
  H   H1417     1.0  0.87674  0.12039  0.06815  1.0000
  H   H1418     1.0  0.85880  0.16835  0.05179  1.0000
  H   H1419     1.0  0.82878  0.14866  0.04825  1.0000
  C   C1434     1.0  0.80880  0.23813  0.29239  1.0000
  C   C1435     1.0  0.87865  0.14314  0.00884  1.0000
  N   N119      1.0  0.86207  0.13292  0.00628  1.0000
  N   N120      1.0  0.74602  0.99703  0.09991  1.0000
  H   H1420     1.0  0.89193  0.25017  0.03334  1.0000
  S   S478      1.0  0.73517  0.05655  0.11107  1.0000
  C   C1436     1.0  0.88988  0.29496  0.26135  1.0000
  C   C1437     1.0  0.73923  0.20230  0.33595  1.0000
  N   N121      1.0  0.80845  0.21704  0.33223  1.0000
  C   C1438     1.0  0.94915  0.24664  0.13397  1.0000
  H   H1421     1.0  0.76643  0.99705  0.11936  1.0000
  H   H1422     1.0  0.80888  0.24656  0.27701  1.0000
  H   H1423     1.0  0.94255  0.29901  0.02970  1.0000
  C   C1439     1.0  0.82318  0.23146  0.32317  1.0000
  H   H1424     1.0  0.75245  0.19022  0.38410  1.0000
  H   H1425     1.0  0.89545  0.17013  0.00896  1.0000
  H   H1426     1.0  0.73775  0.17510  0.42382  1.0000
  H   H1427     1.0  0.83471  0.23484  0.33147  1.0000
  N   N122      1.0  0.90054  0.27161  0.05139  1.0000
  C   C1440     1.0  0.91648  0.27891  0.03687  1.0000
  C   C1441     1.0  0.89721  0.27877  0.06985  1.0000
  H   H1428     1.0  0.86154  0.10867  0.99344  1.0000
  C   C1442     1.0  0.91007  0.29355  0.07430  1.0000
  H   H1429     1.0  0.97366  0.28609  0.12933  1.0000
  C   C1443     1.0  0.80847  0.20580  0.35306  1.0000
  C   C1444     1.0  0.83445  0.27958  0.46698  1.0000
  C   C1445     1.0  0.88261  0.16219  0.00586  1.0000
  S   S479      1.0  0.88334  0.31385  0.22372  1.0000
  H   H1430     1.0  0.81201  0.31527  0.39058  1.0000
  C   C1446     1.0  0.83737  0.31655  0.45335  1.0000
  H   H1431     1.0  0.73602  0.22290  0.39618  1.0000
  C   C1447     1.0  0.73999  0.19155  0.35546  1.0000
  H   H1432     1.0  0.81686  0.19620  0.35036  1.0000
  C   C1448     1.0  0.79398  0.22321  0.30156  1.0000
  H   H1433     1.0  0.79447  0.19789  0.36118  1.0000
  C   C1449     1.0  0.94592  0.23139  0.12361  1.0000
  H   H1434     1.0  0.78232  0.21994  0.29346  1.0000
  H   H1435     1.0  0.89369  0.27888  0.29045  1.0000
  S   S480      1.0  0.80004  0.31810  0.34897  1.0000
  C   C1450     1.0  0.84932  0.14126  0.00016  1.0000
  H   H1436     1.0  0.91914  0.27322  0.02221  1.0000
  N   N123      1.0  0.96647  0.25719  0.13285  1.0000
  S   S481      1.0  0.73487  0.16725  0.47066  1.0000
  H   H1437     1.0  0.74971  0.22871  0.31520  1.0000
  H   H1438     1.0  0.90298  0.29556  0.25211  1.0000
  C   C1451     1.0  0.96968  0.27384  0.14248  1.0000
  H   H1439     1.0  0.83524  0.25371  0.29611  1.0000
  H   H1440     1.0  0.78246  0.20113  0.32856  1.0000
  C   C1452     1.0  0.92650  0.30087  0.05983  1.0000
  H   H1441     1.0  0.90762  0.29882  0.08932  1.0000
  C   C1453     1.0  0.82357  0.24220  0.30314  1.0000
  H   H1442     1.0  0.79040  0.23038  0.43168  1.0000
  C   C1454     1.0  0.78968  0.24306  0.46042  1.0000
  H   H1443     1.0  0.93763  0.25028  0.14231  1.0000
  H   H1444     1.0  0.76619  0.20223  0.45007  1.0000
  C   C1455     1.0  0.79412  0.21263  0.32149  1.0000
  H   H1445     1.0  0.74707  0.02496  0.10080  1.0000
  S   S482      1.0  0.94533  0.30787  0.13310  1.0000
  C   C1456     1.0  0.83734  0.31001  0.47539  1.0000
  Fe  Fe237     1.0  0.93653  0.32108  0.16166  1.0000
  H   H1446     1.0  0.93210  0.22348  0.12382  1.0000
  C   C1457     1.0  0.73874  0.01158  0.09978  1.0000
  H   H1447     1.0  0.87252  0.18558  0.99765  1.0000
  C   C1458     1.0  0.86966  0.17081  0.99977  1.0000
  S   S483      1.0  0.91659  0.24266  0.99423  1.0000
  H   H1448     1.0  0.88866  0.13659  0.01411  1.0000
  H   H1449     1.0  0.84269  0.16687  0.99232  1.0000
  H   H1450     1.0  0.93679  0.31199  0.06349  1.0000
  H   H1451     1.0  0.77342  0.01350  0.09412  1.0000
  S   S484      1.0  0.97679  0.22309  0.05460  1.0000
  C   C1459     1.0  0.97822  0.23726  0.11201  1.0000
  H   H1452     1.0  0.74322  0.08909  0.13183  1.0000
  H   H1453     1.0  0.73494  0.00072  0.04282  1.0000
  H   H1454     1.0  0.86600  0.10777  0.02111  1.0000
  C   C1460     1.0  0.73544  0.09876  0.12632  1.0000
  C   C1461     1.0  0.75003  0.05294  0.98201  1.0000
  H   H1455     1.0  0.95836  0.21511  0.10409  1.0000
  H   H1456     1.0  0.74406  0.11298  0.12437  1.0000
  C   C1462     1.0  0.96059  0.22671  0.11255  1.0000
  H   H1457     1.0  0.95733  0.27460  0.15334  1.0000
  C   C1463     1.0  0.75892  0.99204  0.04746  1.0000
  H   H1458     1.0  0.98063  0.27444  0.15237  1.0000
  Fe  Fe238     1.0  0.91178  0.32309  0.20346  1.0000
  C   C1464     1.0  0.74534  0.04826  0.94535  1.0000
  S   S485      1.0  0.76011  0.06722  0.82720  1.0000
  C   C1465     1.0  0.94186  0.29648  0.74977  1.0000
  Fe  Fe239     1.0  0.74924  0.04842  0.88955  1.0000
  S   S486      1.0  0.77475  0.04792  0.86797  1.0000
  C   C1466     1.0  0.95162  0.21364  0.92447  1.0000
  Fe  Fe240     1.0  0.77613  0.07706  0.85332  1.0000
  S   S487      1.0  0.80020  0.10193  0.85523  1.0000
  Fe  Fe241     1.0  0.75615  0.03816  0.84454  1.0000
  S   S488      1.0  0.75222  0.01419  0.82576  1.0000
  S   S489      1.0  0.75075  0.07742  0.87587  1.0000
  C   C1467     1.0  0.85567  0.21659  0.82373  1.0000
  S   S490      1.0  0.89710  0.29318  0.73793  1.0000
  Fe  Fe242     1.0  0.89205  0.19081  0.84505  1.0000
  S   S491      1.0  0.87903  0.20564  0.86831  1.0000
  S   S492      1.0  0.87516  0.16711  0.83076  1.0000
  Fe  Fe243     1.0  0.93106  0.21707  0.84444  1.0000
  S   S493      1.0  0.91979  0.23267  0.86785  1.0000
  Fe  Fe244     1.0  0.90256  0.20531  0.88585  1.0000
  S   S494      1.0  0.90037  0.19399  0.92156  1.0000
  Fe  Fe245     1.0  0.89782  0.23147  0.84745  1.0000
  S   S495      1.0  0.89004  0.25766  0.83746  1.0000
  S   S496      1.0  0.91497  0.18934  0.86353  1.0000
  S   S497      1.0  0.90972  0.21698  0.82302  1.0000
  H   H1459     1.0  0.78071  0.11997  0.91816  1.0000
  S   S498      1.0  0.80465  0.29342  0.54059  1.0000
  H   H1460     1.0  0.82736  0.16717  0.82579  1.0000
  Fe  Fe246     1.0  0.84546  0.29769  0.57202  1.0000
  S   S499      1.0  0.81751  0.27978  0.58625  1.0000
  S   S500      1.0  0.86645  0.29549  0.59351  1.0000
  Fe  Fe247     1.0  0.81668  0.27135  0.55355  1.0000
  S   S501      1.0  0.80844  0.24248  0.54705  1.0000
  S   S502      1.0  0.84558  0.28716  0.54029  1.0000
  C   C1468     1.0  0.78499  0.23194  0.55114  1.0000
  C   C1469     1.0  0.77887  0.21446  0.54606  1.0000
  C   C1470     1.0  0.83189  0.19007  0.84247  1.0000
  H   H1461     1.0  0.86378  0.23043  0.82315  1.0000
  C   C1471     1.0  0.85886  0.20718  0.80665  1.0000
  C   C1472     1.0  0.77237  0.24079  0.55923  1.0000
  H   H1462     1.0  0.78860  0.20756  0.53981  1.0000
  C   C1473     1.0  0.75370  0.23212  0.56235  1.0000
  H   H1463     1.0  0.77696  0.25425  0.56325  1.0000
  H   H1464     1.0  0.83516  0.28617  0.49906  1.0000
  H   H1465     1.0  0.76211  0.22510  0.50869  1.0000
  H   H1466     1.0  0.89678  0.31756  0.65231  1.0000
  H   H1467     1.0  0.76164  0.10232  0.91416  1.0000
  H   H1468     1.0  0.86876  0.25329  0.51140  1.0000
  H   H1469     1.0  0.74299  0.04043  0.79005  1.0000
  C   C1474     1.0  0.89218  0.26746  0.80972  1.0000
  C   C1475     1.0  0.89519  0.25773  0.79291  1.0000
  C   C1476     1.0  0.89653  0.26579  0.77104  1.0000
  C   C1477     1.0  0.89537  0.28380  0.76570  1.0000
  C   C1478     1.0  0.89274  0.29369  0.78244  1.0000
  C   C1479     1.0  0.89091  0.28544  0.80440  1.0000
  H   H1470     1.0  0.89627  0.24394  0.79673  1.0000
  H   H1471     1.0  0.89856  0.25808  0.75815  1.0000
  H   H1472     1.0  0.94048  0.19446  0.89558  1.0000
  H   H1473     1.0  0.88852  0.29303  0.81732  1.0000
  C   C1480     1.0  0.91107  0.23761  0.95283  1.0000
  H   H1474     1.0  0.82158  0.18305  0.85660  1.0000
  C   C1481     1.0  0.90458  0.20806  0.94127  1.0000
  C   C1482     1.0  0.90744  0.22700  0.93649  1.0000
  C   C1483     1.0  0.74174  0.07587  0.95811  1.0000
  C   C1484     1.0  0.88336  0.30801  0.62632  1.0000
  H   H1475     1.0  0.90671  0.23344  0.92033  1.0000
  C   C1485     1.0  0.74134  0.06510  0.94166  1.0000
  C   C1486     1.0  0.82125  0.11988  0.84854  1.0000
  C   C1487     1.0  0.83310  0.12280  0.82859  1.0000
  C   C1488     1.0  0.84951  0.13700  0.82378  1.0000
  C   C1489     1.0  0.85455  0.14869  0.83871  1.0000
  C   C1490     1.0  0.84270  0.14585  0.85869  1.0000
  C   C1491     1.0  0.82623  0.13160  0.86352  1.0000
  H   H1476     1.0  0.82966  0.11400  0.81684  1.0000
  H   H1477     1.0  0.85844  0.13887  0.80830  1.0000
  H   H1478     1.0  0.84620  0.15463  0.87044  1.0000
  H   H1479     1.0  0.81735  0.12960  0.87904  1.0000
  H   H1480     1.0  0.91313  0.25225  0.94917  1.0000
  C   C1492     1.0  0.88022  0.26797  0.55760  1.0000
  S   S503      1.0  0.74576  0.03476  0.92482  1.0000
  C   C1493     1.0  0.95773  0.22662  0.93735  1.0000
  H   H1481     1.0  0.75258  0.02914  0.96868  1.0000
  C   C1494     1.0  0.85244  0.18018  0.78929  1.0000
  N   N124      1.0  0.78183  0.24155  0.48174  1.0000
  S   S504      1.0  0.78741  0.31180  0.59368  1.0000
  C   C1495     1.0  0.78662  0.07892  0.91316  1.0000
  S   S505      1.0  0.96181  0.22601  0.83134  1.0000
  C   C1496     1.0  0.86533  0.25654  0.57255  1.0000
  H   H1482     1.0  0.96124  0.18756  0.89530  1.0000
  C   C1497     1.0  0.94371  0.26448  0.80981  1.0000
  H   H1483     1.0  0.79385  0.05340  0.91620  1.0000
  N   N125      1.0  0.94238  0.28546  0.77058  1.0000
  H   H1484     1.0  0.90395  0.18529  0.96573  1.0000
  H   H1485     1.0  0.78227  0.10985  0.89415  1.0000
  H   H1486     1.0  0.75559  0.19236  0.54516  1.0000
  H   H1487     1.0  0.93066  0.30169  0.79023  1.0000
  C   C1498     1.0  0.93675  0.27960  0.80987  1.0000
  H   H1488     1.0  0.78472  0.07870  0.89641  1.0000
  C   C1499     1.0  0.76253  0.21195  0.48060  1.0000
  H   H1489     1.0  0.88500  0.29439  0.63002  1.0000
  C   C1500     1.0  0.73768  0.99182  0.83685  1.0000
  H   H1490     1.0  0.84353  0.30214  0.65761  1.0000
  H   H1491     1.0  0.78177  0.10305  0.95339  1.0000
  H   H1492     1.0  0.77799  0.25650  0.50766  1.0000
  C   C1501     1.0  0.79190  0.06459  0.92428  1.0000
  C   C1502     1.0  0.83633  0.23303  0.58167  1.0000
  H   H1493     1.0  0.89286  0.27578  0.52367  1.0000
  C   C1503     1.0  0.97513  0.25187  0.85680  1.0000
  C   C1504     1.0  0.97502  0.23872  0.93086  1.0000
  H   H1494     1.0  0.86966  0.21387  0.79290  1.0000
  H   H1495     1.0  0.89167  0.30752  0.77851  1.0000
  H   H1496     1.0  0.82715  0.24161  0.58602  1.0000
  C   C1505     1.0  0.76018  0.20584  0.54905  1.0000
  H   H1497     1.0  0.83988  0.21501  0.85532  1.0000
  C   C1506     1.0  0.90574  0.19988  0.96219  1.0000
  H   H1498     1.0  0.84295  0.16629  0.79166  1.0000
  H   H1499     1.0  0.95543  0.24812  0.78992  1.0000
  C   C1507     1.0  0.88161  0.26669  0.53549  1.0000
  H   H1500     1.0  0.85127  0.18806  0.77362  1.0000
  H   H1501     1.0  0.84266  0.23350  0.53846  1.0000
  C   C1508     1.0  0.93632  0.29010  0.78999  1.0000
  H   H1502     1.0  0.93488  0.28762  0.73913  1.0000
  H   H1503     1.0  0.84053  0.22723  0.59669  1.0000
  C   C1509     1.0  0.74940  0.04209  0.96568  1.0000
  H   H1504     1.0  0.82840  0.22149  0.57500  1.0000
  C   C1510     1.0  0.94923  0.27063  0.77038  1.0000
  H   H1505     1.0  0.93127  0.28288  0.82524  1.0000
  H   H1506     1.0  0.86640  0.17844  0.78829  1.0000
  C   C1511     1.0  0.91198  0.22933  0.97387  1.0000
  C   C1512     1.0  0.79066  0.07862  0.95639  1.0000
  H   H1507     1.0  0.93409  0.30672  0.75209  1.0000
  N   N126      1.0  0.78347  0.09277  0.92341  1.0000
  Fe  Fe248     1.0  0.83356  0.30979  0.52902  1.0000
  H   H1508     1.0  0.80023  0.25300  0.50152  1.0000
  N   N127      1.0  0.96226  0.21299  0.90546  1.0000
  C   C1513     1.0  0.78526  0.09267  0.94481  1.0000
  H   H1509     1.0  0.74398  0.23899  0.56873  1.0000
  H   H1510     1.0  0.94904  0.22730  0.95221  1.0000
  Fe  Fe249     1.0  0.80843  0.30370  0.57191  1.0000
  C   C1514     1.0  0.87459  0.31242  0.60897  1.0000
  C   C1515     1.0  0.77669  0.10695  0.91194  1.0000
  C   C1516     1.0  0.79394  0.06447  0.94604  1.0000
  C   C1517     1.0  0.74755  0.21468  0.55718  1.0000
  N   N128      1.0  0.85220  0.24416  0.56571  1.0000
  H   H1511     1.0  0.79344  0.26955  0.48358  1.0000
  C   C1518     1.0  0.86811  0.25406  0.52862  1.0000
  H   H1512     1.0  0.82704  0.31727  0.60845  1.0000
  C   C1519     1.0  0.84216  0.20793  0.84178  1.0000
  H   H1513     1.0  0.94411  0.25620  0.82510  1.0000
  N   N129      1.0  0.84863  0.18972  0.80738  1.0000
  C   C1520     1.0  0.85337  0.24288  0.54404  1.0000
  H   H1514     1.0  0.79750  0.05316  0.95507  1.0000
  C   C1521     1.0  0.83523  0.18116  0.82495  1.0000
  C   C1522     1.0  0.95003  0.25994  0.78998  1.0000
  C   C1523     1.0  0.82585  0.30985  0.62529  1.0000
  C   C1524     1.0  0.78867  0.25585  0.49420  1.0000
  H   H1515     1.0  0.96114  0.25052  0.86363  1.0000
  C   C1525     1.0  0.95557  0.19942  0.89207  1.0000
  H   H1516     1.0  0.95583  0.30390  0.74116  1.0000
  H   H1517     1.0  0.95405  0.26696  0.75501  1.0000
  H   H1518     1.0  0.86413  0.25798  0.58962  1.0000
  H   H1519     1.0  0.89026  0.27816  0.56312  1.0000
  H   H1520     1.0  0.95954  0.20547  0.87439  1.0000
  H   H1521     1.0  0.93827  0.20414  0.92970  1.0000
  C   C1526     1.0  0.74640  0.06996  0.97817  1.0000
  C   C1527     1.0  0.76837  0.22628  0.49183  1.0000
  C   C1528     1.0  0.84239  0.31605  0.65541  1.0000
  Fe  Fe250     1.0  0.73501  0.06587  0.85077  1.0000
  H   H1522     1.0  0.74081  0.99293  0.87020  1.0000
  C   C1529     1.0  0.89007  0.32112  0.63896  1.0000
  H   H1523     1.0  0.73535  0.03758  0.76478  1.0000
  H   H1524     1.0  0.75204  0.19973  0.48878  1.0000
  H   H1525     1.0  0.79142  0.07830  0.97356  1.0000
  C   C1530     1.0  0.97940  0.22449  0.89925  1.0000
  H   H1526     1.0  0.73876  0.08896  0.95518  1.0000
  C   C1531     1.0  0.83545  0.29142  0.48217  1.0000
  C   C1532     1.0  0.97916  0.24172  0.84078  1.0000
  H   H1527     1.0  0.83272  0.29881  0.62384  1.0000
  H   H1528     1.0  0.73786  0.06978  0.92619  1.0000
  H   H1529     1.0  0.81118  0.30371  0.63204  1.0000
  C   C1533     1.0  0.90939  0.21045  0.97844  1.0000
  H   H1530     1.0  0.73673  0.01788  0.78343  1.0000
  H   H1531     1.0  0.97987  0.24895  0.94060  1.0000
  S   S506      1.0  0.83643  0.32219  0.55940  1.0000
  H   H1532     1.0  0.85727  0.32303  0.68125  1.0000
  N   N130      1.0  0.83413  0.32226  0.63914  1.0000
  H   H1533     1.0  0.74297  0.00090  0.95590  1.0000
  C   C1534     1.0  0.73330  0.03117  0.78222  1.0000
  Fe  Fe251     1.0  0.90535  0.32351  0.72370  1.0000
  C   C1535     1.0  0.75368  0.43269  0.34657  1.0000
  Fe  Fe252     1.0  0.93248  0.35819  0.17212  1.0000
  S   S507      1.0  0.93022  0.34937  0.20813  1.0000
  S   S508      1.0  0.92983  0.38594  0.15778  1.0000
  Fe  Fe253     1.0  0.95284  0.33681  0.19866  1.0000
  S   S509      1.0  0.91265  0.33270  0.16761  1.0000
  S   S510      1.0  0.95654  0.34765  0.16295  1.0000
  H   H1534     1.0  0.75472  0.37767  0.34207  1.0000
  Fe  Fe254     1.0  0.75902  0.63736  0.05412  1.0000
  Fe  Fe255     1.0  0.78915  0.61775  0.06221  1.0000
  S   S511      1.0  0.77269  0.59189  0.05371  1.0000
  S   S512      1.0  0.81556  0.61575  0.07427  1.0000
  Fe  Fe256     1.0  0.76751  0.61052  0.02571  1.0000
  S   S513      1.0  0.97788  0.34022  0.21422  1.0000
  H   H1535     1.0  0.92705  0.61676  0.99738  1.0000
  S   S514      1.0  0.78492  0.63620  0.03359  1.0000
  S   S515      1.0  0.76480  0.62121  0.08364  1.0000
  Fe  Fe257     1.0  0.95272  0.51450  0.17643  1.0000
  S   S516      1.0  0.95479  0.52918  0.20506  1.0000
  S   S517      1.0  0.95131  0.52631  0.14169  1.0000
  Fe  Fe258     1.0  0.95460  0.47834  0.20279  1.0000
  S   S518      1.0  0.95626  0.49040  0.23328  1.0000
  S   S519      1.0  0.95934  0.45021  0.20817  1.0000
  Fe  Fe259     1.0  0.93467  0.50319  0.22403  1.0000
  S   S520      1.0  0.90917  0.50348  0.24665  1.0000
  Fe  Fe260     1.0  0.97619  0.51483  0.21182  1.0000
  C   C1536     1.0  0.93235  0.61597  0.98078  1.0000
  S   S521      1.0  0.93134  0.48931  0.19491  1.0000
  C   C1537     1.0  0.74843  0.38302  0.35532  1.0000
  S   S522      1.0  0.92946  0.61439  0.04894  1.0000
  H   H1536     1.0  0.83184  0.58850  0.04551  1.0000
  S   S523      1.0  0.97308  0.63228  0.05150  1.0000
  Fe  Fe261     1.0  0.94643  0.62103  0.07497  1.0000
  S   S524      1.0  0.94258  0.60541  0.10966  1.0000
  H   H1537     1.0  0.82523  0.46339  0.47404  1.0000
  Fe  Fe262     1.0  0.81147  0.43131  0.36396  1.0000
  S   S525      1.0  0.83345  0.45647  0.36535  1.0000
  S   S526      1.0  0.78807  0.42909  0.34558  1.0000
  Fe  Fe263     1.0  0.82895  0.40578  0.38886  1.0000
  S   S527      1.0  0.85233  0.42848  0.39217  1.0000
  S   S528      1.0  0.82776  0.37752  0.40505  1.0000
  Fe  Fe264     1.0  0.83122  0.44302  0.40038  1.0000
  S   S529      1.0  0.83067  0.45732  0.42962  1.0000
  Fe  Fe265     1.0  0.85274  0.43962  0.35704  1.0000
  S   S530      1.0  0.88047  0.44608  0.33564  1.0000
  S   S531      1.0  0.80761  0.41941  0.39950  1.0000
  S   S532      1.0  0.83098  0.41549  0.35316  1.0000
  H   H1538     1.0  0.89628  0.39679  0.18208  1.0000
  H   H1539     1.0  0.73809  0.59132  0.99531  1.0000
  N   N131      1.0  0.87700  0.47849  0.41194  1.0000
  H   H1540     1.0  0.83408  0.36891  0.44822  1.0000
  C   C1538     1.0  0.85036  0.42560  0.47220  1.0000
  H   H1541     1.0  0.84751  0.62916  0.98806  1.0000
  H   H1542     1.0  0.77270  0.38846  0.36967  1.0000
  C   C1539     1.0  0.86447  0.64847  0.03991  1.0000
  C   C1540     1.0  0.86941  0.62112  0.00064  1.0000
  H   H1543     1.0  0.81596  0.61170  0.99972  1.0000
  H   H1544     1.0  0.74271  0.64596  0.10761  1.0000
  H   H1545     1.0  0.84810  0.42811  0.43816  1.0000
  C   C1541     1.0  0.81727  0.36053  0.39136  1.0000
  C   C1542     1.0  0.81003  0.36507  0.37281  1.0000
  C   C1543     1.0  0.80383  0.35172  0.36038  1.0000
  S   S533      1.0  0.74118  0.61307  0.04422  1.0000
  C   C1544     1.0  0.75865  0.38892  0.37103  1.0000
  C   C1545     1.0  0.81733  0.34243  0.39821  1.0000
  H   H1546     1.0  0.80953  0.37891  0.36775  1.0000
  H   H1547     1.0  0.79879  0.35536  0.34561  1.0000
  H   H1548     1.0  0.88910  0.34995  0.23073  1.0000
  H   H1549     1.0  0.82256  0.33880  0.41283  1.0000
  C   C1546     1.0  0.90101  0.48714  0.27109  1.0000
  C   C1547     1.0  0.91116  0.47547  0.27831  1.0000
  C   C1548     1.0  0.90460  0.46293  0.29803  1.0000
  C   C1549     1.0  0.88772  0.46173  0.31062  1.0000
  C   C1550     1.0  0.87741  0.47324  0.30335  1.0000
  C   C1551     1.0  0.88410  0.48597  0.28371  1.0000
  H   H1550     1.0  0.92417  0.47623  0.26883  1.0000
  H   H1551     1.0  0.91268  0.45412  0.30355  1.0000
  H   H1552     1.0  0.86436  0.47242  0.31286  1.0000
  H   H1553     1.0  0.87613  0.49492  0.27824  1.0000
  C   C1552     1.0  0.95133  0.54923  0.13264  1.0000
  C   C1553     1.0  0.94979  0.56120  0.14728  1.0000
  C   C1554     1.0  0.94780  0.57864  0.13979  1.0000
  C   C1555     1.0  0.94746  0.58433  0.11762  1.0000
  C   C1556     1.0  0.94961  0.57259  0.10285  1.0000
  C   C1557     1.0  0.95146  0.55510  0.11037  1.0000
  H   H1554     1.0  0.94968  0.55687  0.16443  1.0000
  H   H1555     1.0  0.94619  0.58765  0.15131  1.0000
  H   H1556     1.0  0.94934  0.57679  0.08576  1.0000
  H   H1557     1.0  0.95265  0.54592  0.09893  1.0000
  C   C1558     1.0  0.83917  0.62649  0.06490  1.0000
  C   C1559     1.0  0.84560  0.64094  0.04717  1.0000
  H   H1558     1.0  0.89540  0.46189  0.40953  1.0000
  C   C1560     1.0  0.87717  0.64156  0.05007  1.0000
  C   C1561     1.0  0.87075  0.62720  0.06789  1.0000
  C   C1562     1.0  0.85189  0.61980  0.07530  1.0000
  C   C1563     1.0  0.83597  0.44663  0.45373  1.0000
  H   H1559     1.0  0.88030  0.62177  0.07597  1.0000
  H   H1560     1.0  0.84708  0.60866  0.08907  1.0000
  C   C1564     1.0  0.86051  0.59788  0.03301  1.0000
  C   C1565     1.0  0.93896  0.40419  0.17081  1.0000
  C   C1566     1.0  0.93719  0.42174  0.16373  1.0000
  C   C1567     1.0  0.94342  0.43613  0.17494  1.0000
  C   C1568     1.0  0.95149  0.43295  0.19321  1.0000
  C   C1569     1.0  0.95333  0.41545  0.20012  1.0000
  C   C1570     1.0  0.94707  0.40115  0.18901  1.0000
  H   H1561     1.0  0.93088  0.42417  0.14965  1.0000
  H   H1562     1.0  0.94198  0.44961  0.16945  1.0000
  H   H1563     1.0  0.95942  0.41279  0.21429  1.0000
  H   H1564     1.0  0.94834  0.38771  0.19470  1.0000
  C   C1571     1.0  0.76983  0.44619  0.37335  1.0000
  C   C1572     1.0  0.76942  0.43668  0.35585  1.0000
  H   H1565     1.0  0.75511  0.45959  0.39456  1.0000
  H   H1566     1.0  0.78194  0.44933  0.38055  1.0000
  C   C1573     1.0  0.81810  0.38544  0.46193  1.0000
  H   H1567     1.0  0.81511  0.61755  0.02670  1.0000
  Fe  Fe266     1.0  0.95564  0.62818  0.02548  1.0000
  S   S534      1.0  0.97561  0.50209  0.18177  1.0000
  Fe  Fe267     1.0  0.92599  0.64274  0.04773  1.0000
  H   H1568     1.0  0.87458  0.34303  0.37912  1.0000
  C   C1574     1.0  0.87646  0.47794  0.43548  1.0000
  C   C1575     1.0  0.90749  0.39455  0.23257  1.0000
  H   H1569     1.0  0.85804  0.34858  0.39866  1.0000
  H   H1570     1.0  0.85750  0.41513  0.47159  1.0000
  H   H1571     1.0  0.97209  0.37380  0.19388  1.0000
  C   C1576     1.0  0.83213  0.45273  0.47349  1.0000
  H   H1572     1.0  0.88031  0.48158  0.34942  1.0000
  S   S535      1.0  0.94134  0.64876  0.07512  1.0000
  H   H1573     1.0  0.85087  0.33078  0.38366  1.0000
  H   H1574     1.0  0.88367  0.34616  0.19529  1.0000
  H   H1575     1.0  0.91404  0.40328  0.24303  1.0000
  N   N132      1.0  0.83779  0.60809  0.01612  1.0000
  C   C1577     1.0  0.73831  0.43798  0.35489  1.0000
  C   C1578     1.0  0.90160  0.37564  0.23934  1.0000
  H   H1576     1.0  0.80951  0.59402  0.02325  1.0000
  H   H1577     1.0  0.86698  0.40371  0.34957  1.0000
  C   C1579     1.0  0.85105  0.62008  0.00049  1.0000
  H   H1578     1.0  0.75903  0.40160  0.39959  1.0000
  S   S536      1.0  0.96582  0.62035  0.99357  1.0000
  N   N133      1.0  0.89193  0.37224  0.20496  1.0000
  H   H1579     1.0  0.86388  0.48079  0.44335  1.0000
  C   C1580     1.0  0.82993  0.37435  0.46256  1.0000
  C   C1581     1.0  0.81871  0.60785  0.01640  1.0000
  C   C1582     1.0  0.89735  0.39079  0.19837  1.0000
  H   H1580     1.0  0.86407  0.58961  0.04627  1.0000
  C   C1583     1.0  0.87412  0.60993  0.01703  1.0000
  H   H1581     1.0  0.87996  0.63085  0.98850  1.0000
  S   S537      1.0  0.90079  0.65135  0.03976  1.0000
  H   H1582     1.0  0.90991  0.41689  0.20653  1.0000
  H   H1583     1.0  0.85854  0.49501  0.40981  1.0000
  C   C1584     1.0  0.88376  0.36063  0.19025  1.0000
  N   N134      1.0  0.90485  0.53497  0.17477  1.0000
  C   C1585     1.0  0.90337  0.55236  0.16929  1.0000
  C   C1586     1.0  0.90723  0.52473  0.15894  1.0000
  C   C1587     1.0  0.90393  0.55980  0.14749  1.0000
  C   C1588     1.0  0.90775  0.53170  0.13700  1.0000
  C   C1589     1.0  0.90613  0.54937  0.13129  1.0000
  C   C1590     1.0  0.90489  0.52779  0.19763  1.0000
  H   H1584     1.0  0.90219  0.56072  0.18174  1.0000
  H   H1585     1.0  0.90942  0.51133  0.16304  1.0000
  H   H1586     1.0  0.90351  0.57385  0.14301  1.0000
  H   H1587     1.0  0.91045  0.52383  0.12443  1.0000
  H   H1588     1.0  0.90742  0.55528  0.11423  1.0000
  H   H1589     1.0  0.89374  0.53050  0.20874  1.0000
  H   H1590     1.0  0.90291  0.51275  0.20058  1.0000
  H   H1591     1.0  0.91802  0.53427  0.20228  1.0000
  N   N135      1.0  0.85783  0.35788  0.36518  1.0000
  C   C1591     1.0  0.84963  0.35223  0.34836  1.0000
  C   C1592     1.0  0.86413  0.37611  0.36562  1.0000
  C   C1593     1.0  0.84708  0.36498  0.33174  1.0000
  C   C1594     1.0  0.86210  0.38924  0.34907  1.0000
  C   C1595     1.0  0.85338  0.38360  0.33214  1.0000
  C   C1596     1.0  0.86053  0.34442  0.38246  1.0000
  H   H1592     1.0  0.84447  0.33779  0.34801  1.0000
  H   H1593     1.0  0.87044  0.38059  0.37906  1.0000
  H   H1594     1.0  0.83993  0.36035  0.31895  1.0000
  H   H1595     1.0  0.97670  0.42670  0.24234  1.0000
  H   H1596     1.0  0.85133  0.39367  0.31952  1.0000
  H   H1597     1.0  0.86957  0.36123  0.19012  1.0000
  H   H1598     1.0  0.87639  0.46414  0.44374  1.0000
  C   C1597     1.0  0.90514  0.40222  0.21208  1.0000
  Fe  Fe268     1.0  0.74788  0.59655  0.07312  1.0000
  C   C1598     1.0  0.84231  0.59724  0.03241  1.0000
  C   C1599     1.0  0.88785  0.46979  0.40086  1.0000
  H   H1599     1.0  0.89173  0.36515  0.17337  1.0000
  H   H1600     1.0  0.83866  0.33089  0.44803  1.0000
  H   H1601     1.0  0.97595  0.45734  0.24491  1.0000
  C   C1600     1.0  0.75462  0.45195  0.38127  1.0000
  S   S538      1.0  0.77717  0.60818  0.99067  1.0000
  C   C1601     1.0  0.88923  0.47082  0.37823  1.0000
  H   H1602     1.0  0.75335  0.42535  0.33302  1.0000
  H   H1603     1.0  0.81319  0.38886  0.44692  1.0000
  H   H1604     1.0  0.90343  0.36945  0.25517  1.0000
  C   C1602     1.0  0.84498  0.43291  0.45322  1.0000
  C   C1603     1.0  0.89359  0.36464  0.22534  1.0000
  C   C1604     1.0  0.80497  0.33386  0.36646  1.0000
  H   H1605     1.0  0.89759  0.46369  0.36944  1.0000
  H   H1606     1.0  0.88840  0.48821  0.43842  1.0000
  S   S539      1.0  0.95138  0.65610  0.02275  1.0000
  H   H1607     1.0  0.86057  0.49725  0.36980  1.0000
  C   C1605     1.0  0.86849  0.48971  0.37837  1.0000
  H   H1608     1.0  0.88834  0.61104  0.01772  1.0000
  H   H1609     1.0  0.83605  0.64636  0.03910  1.0000
  C   C1606     1.0  0.86743  0.48842  0.40099  1.0000
  C   C1607     1.0  0.87950  0.48088  0.36695  1.0000
  C   C1608     1.0  0.75095  0.39629  0.38787  1.0000
  C   C1609     1.0  0.81135  0.32911  0.38564  1.0000
  C   C1610     1.0  0.73883  0.44778  0.37213  1.0000
  C   C1611     1.0  0.73308  0.39739  0.38902  1.0000
  H   H1610     1.0  0.80430  0.40156  0.48001  1.0000
  Fe  Fe269     1.0  0.90665  0.36376  0.72326  1.0000
  S   S540      1.0  0.92556  0.37315  0.69123  1.0000
  S   S541      1.0  0.89649  0.38467  0.73955  1.0000
  C   C1612     1.0  0.81297  0.39239  0.48053  1.0000
  S   S542      1.0  0.92403  0.33025  0.69110  1.0000
  Fe  Fe270     1.0  0.94002  0.35339  0.70493  1.0000
  C   C1613     1.0  0.84913  0.34582  0.66582  1.0000
  Fe  Fe271     1.0  0.90745  0.34921  0.68074  1.0000
  S   S543      1.0  0.89629  0.35570  0.64973  1.0000
  S   S544      1.0  0.92230  0.34560  0.73800  1.0000
  S   S545      1.0  0.88754  0.34085  0.71231  1.0000
  H   H1611     1.0  0.81617  0.39392  0.51375  1.0000
  S   S546      1.0  0.76441  0.61995  0.87585  1.0000
  S   S547      1.0  0.93780  0.63168  0.82712  1.0000
  S   S548      1.0  0.88827  0.64236  0.84046  1.0000
  S   S549      1.0  0.76248  0.61582  0.82511  1.0000
  H   H1612     1.0  0.85234  0.38222  0.51839  1.0000
  Fe  Fe272     1.0  0.77577  0.60463  0.85178  1.0000
  S   S550      1.0  0.80405  0.59937  0.85032  1.0000
  Fe  Fe273     1.0  0.74898  0.62881  0.85039  1.0000
  C   C1614     1.0  0.85912  0.61106  0.84655  1.0000
  S   S551      1.0  0.75234  0.57899  0.86235  1.0000
  H   H1613     1.0  0.90626  0.61146  0.97053  1.0000
  Fe  Fe274     1.0  0.93478  0.48813  0.72575  1.0000
  S   S552      1.0  0.93436  0.49940  0.69095  1.0000
  S   S553      1.0  0.94746  0.46456  0.73021  1.0000
  Fe  Fe275     1.0  0.91732  0.51578  0.74416  1.0000
  S   S554      1.0  0.91506  0.52857  0.71072  1.0000
  S   S555      1.0  0.90464  0.52741  0.77189  1.0000
  Fe  Fe276     1.0  0.90610  0.50015  0.70366  1.0000
  S   S556      1.0  0.88179  0.49227  0.68683  1.0000
  Fe  Fe277     1.0  0.94344  0.52666  0.70108  1.0000
  H   H1614     1.0  0.74161  0.62944  0.96967  1.0000
  S   S557      1.0  0.90578  0.48719  0.73811  1.0000
  S   S558      1.0  0.94648  0.51561  0.73485  1.0000
  H   H1615     1.0  0.82347  0.63872  0.84094  1.0000
  S   S559      1.0  0.94572  0.58458  0.82529  1.0000
  Fe  Fe278     1.0  0.84465  0.42960  0.54814  1.0000
  S   S560      1.0  0.81563  0.41994  0.56516  1.0000
  Fe  Fe279     1.0  0.85768  0.44758  0.58598  1.0000
  S   S561      1.0  0.82957  0.44007  0.60547  1.0000
  S   S562      1.0  0.88324  0.46002  0.59891  1.0000
  Fe  Fe280     1.0  0.82682  0.41285  0.59518  1.0000
  S   S563      1.0  0.81285  0.38872  0.62147  1.0000
  Fe  Fe281     1.0  0.82056  0.44794  0.57386  1.0000
  S   S564      1.0  0.79960  0.46403  0.57371  1.0000
  S   S565      1.0  0.85547  0.41959  0.57769  1.0000
  S   S566      1.0  0.84917  0.45828  0.55483  1.0000
  C   C1615     1.0  0.86315  0.62943  0.89490  1.0000
  C   C1616     1.0  0.87971  0.42323  0.64884  1.0000
  H   H1616     1.0  0.89152  0.39094  0.62308  1.0000
  C   C1617     1.0  0.80533  0.36802  0.61241  1.0000
  C   C1618     1.0  0.81245  0.36536  0.59172  1.0000
  C   C1619     1.0  0.80703  0.34808  0.58568  1.0000
  C   C1620     1.0  0.79420  0.33371  0.60015  1.0000
  C   C1621     1.0  0.78677  0.33664  0.62051  1.0000
  C   C1622     1.0  0.79249  0.35366  0.62674  1.0000
  H   H1617     1.0  0.82241  0.37646  0.58063  1.0000
  H   H1618     1.0  0.75787  0.45082  0.62978  1.0000
  H   H1619     1.0  0.77682  0.32558  0.63168  1.0000
  H   H1620     1.0  0.78702  0.35566  0.64277  1.0000
  C   C1623     1.0  0.88220  0.48145  0.66374  1.0000
  C   C1624     1.0  0.89836  0.47956  0.65247  1.0000
  C   C1625     1.0  0.89843  0.47271  0.63276  1.0000
  C   C1626     1.0  0.88235  0.46758  0.62429  1.0000
  C   C1627     1.0  0.86608  0.46879  0.63602  1.0000
  C   C1628     1.0  0.86603  0.47572  0.65565  1.0000
  H   H1621     1.0  0.91088  0.48384  0.65859  1.0000
  H   H1622     1.0  0.91105  0.47162  0.62388  1.0000
  H   H1623     1.0  0.85361  0.46484  0.62972  1.0000
  H   H1624     1.0  0.85345  0.47708  0.66434  1.0000
  H   H1625     1.0  0.83391  0.44974  0.50785  1.0000
  H   H1626     1.0  0.78848  0.44537  0.62528  1.0000
  C   C1629     1.0  0.77096  0.60308  0.94994  1.0000
  C   C1630     1.0  0.91628  0.54274  0.78719  1.0000
  C   C1631     1.0  0.93516  0.54709  0.78550  1.0000
  C   C1632     1.0  0.94390  0.55971  0.79757  1.0000
  C   C1633     1.0  0.93391  0.56820  0.81130  1.0000
  C   C1634     1.0  0.91505  0.56388  0.81295  1.0000
  C   C1635     1.0  0.90628  0.55111  0.80105  1.0000
  H   H1627     1.0  0.94299  0.54064  0.77503  1.0000
  H   H1628     1.0  0.95849  0.56296  0.79612  1.0000
  H   H1629     1.0  0.90720  0.57029  0.82347  1.0000
  H   H1630     1.0  0.89166  0.54776  0.80251  1.0000
  H   H1631     1.0  0.95117  0.61294  0.92111  1.0000
  H   H1632     1.0  0.97788  0.60726  0.83571  1.0000
  C   C1636     1.0  0.82743  0.61181  0.84655  1.0000
  C   C1637     1.0  0.87260  0.33009  0.60428  1.0000
  C   C1638     1.0  0.84053  0.60200  0.84842  1.0000
  C   C1639     1.0  0.77667  0.43464  0.62413  1.0000
  H   H1633     1.0  0.83625  0.58722  0.85141  1.0000
  Fe  Fe282     1.0  0.93396  0.60323  0.84499  1.0000
  C   C1640     1.0  0.94128  0.60204  0.76988  1.0000
  N   N136      1.0  0.93817  0.40551  0.77215  1.0000
  H   H1634     1.0  0.91943  0.42076  0.78076  1.0000
  C   C1641     1.0  0.84040  0.35195  0.64942  1.0000
  C   C1642     1.0  0.76303  0.60084  0.97197  1.0000
  Fe  Fe283     1.0  0.91185  0.63116  0.84930  1.0000
  H   H1635     1.0  0.79206  0.41575  0.61685  1.0000
  H   H1636     1.0  0.93397  0.60583  0.78380  1.0000
  S   S567      1.0  0.92770  0.64374  0.87378  1.0000
  C   C1643     1.0  0.84631  0.43152  0.49202  1.0000
  H   H1637     1.0  0.87536  0.59110  0.91242  1.0000
  C   C1644     1.0  0.87420  0.61846  0.90106  1.0000
  C   C1645     1.0  0.88832  0.33886  0.63409  1.0000
  C   C1646     1.0  0.83710  0.44507  0.49265  1.0000
  C   C1647     1.0  0.73352  0.58830  0.96255  1.0000
  Fe  Fe284     1.0  0.73825  0.59115  0.83725  1.0000
  H   H1638     1.0  0.81122  0.60465  0.89550  1.0000
  C   C1648     1.0  0.91027  0.40737  0.73382  1.0000
  C   C1649     1.0  0.90311  0.42114  0.74083  1.0000
  C   C1650     1.0  0.91426  0.43900  0.73862  1.0000
  C   C1651     1.0  0.93270  0.44313  0.72969  1.0000
  C   C1652     1.0  0.93973  0.42952  0.72193  1.0000
  C   C1653     1.0  0.92850  0.41171  0.72379  1.0000
  H   H1639     1.0  0.88902  0.41789  0.74858  1.0000
  H   H1640     1.0  0.90873  0.44934  0.74482  1.0000
  H   H1641     1.0  0.95399  0.43263  0.71492  1.0000
  H   H1642     1.0  0.93422  0.40121  0.71839  1.0000
  C   C1654     1.0  0.81970  0.38798  0.49958  1.0000
  C   C1655     1.0  0.77304  0.43475  0.56730  1.0000
  C   C1656     1.0  0.77722  0.45258  0.57156  1.0000
  S   S568      1.0  0.96977  0.35755  0.70631  1.0000
  C   C1657     1.0  0.88741  0.40387  0.62313  1.0000
  H   H1643     1.0  0.78364  0.42824  0.56379  1.0000
  C   C1658     1.0  0.89758  0.40328  0.65863  1.0000
  H   H1644     1.0  0.75525  0.38055  0.60276  1.0000
  H   H1645     1.0  0.77927  0.39047  0.59784  1.0000
  C   C1659     1.0  0.97849  0.56689  0.68707  1.0000
  C   C1660     1.0  0.97747  0.39520  0.69706  1.0000
  C   C1661     1.0  0.74453  0.42404  0.62429  1.0000
  N   N137      1.0  0.89936  0.52253  0.63187  1.0000
  C   C1662     1.0  0.91144  0.51784  0.61713  1.0000
  C   C1663     1.0  0.90513  0.53096  0.64849  1.0000
  C   C1664     1.0  0.92975  0.52118  0.61918  1.0000
  C   C1665     1.0  0.92339  0.53482  0.65073  1.0000
  C   C1666     1.0  0.93573  0.52976  0.63610  1.0000
  C   C1667     1.0  0.88029  0.51933  0.62935  1.0000
  H   H1646     1.0  0.90684  0.51101  0.60405  1.0000
  H   H1647     1.0  0.89552  0.53443  0.66038  1.0000
  H   H1648     1.0  0.93920  0.51703  0.60781  1.0000
  H   H1649     1.0  0.92796  0.54157  0.66383  1.0000
  H   H1650     1.0  0.94987  0.53246  0.63805  1.0000
  H   H1651     1.0  0.87626  0.50814  0.61995  1.0000
  H   H1652     1.0  0.87123  0.51504  0.64562  1.0000
  H   H1653     1.0  0.87801  0.53197  0.62078  1.0000
  S   S569      1.0  0.90707  0.60202  0.86541  1.0000
  H   H1654     1.0  0.75413  0.65479  0.89070  1.0000
  H   H1655     1.0  0.97746  0.58827  0.66165  1.0000
  H   H1656     1.0  0.85548  0.35511  0.67585  1.0000
  H   H1657     1.0  0.76651  0.59996  0.91734  1.0000
  H   H1658     1.0  0.97835  0.49422  0.73028  1.0000
  S   S570      1.0  0.96269  0.55036  0.67747  1.0000
  H   H1659     1.0  0.83633  0.63004  0.89009  1.0000
  H   H1660     1.0  0.89085  0.42778  0.69880  1.0000
  H   H1661     1.0  0.93723  0.55574  0.73723  1.0000
  N   N138      1.0  0.94162  0.58304  0.74246  1.0000
  H   H1662     1.0  0.92712  0.37793  0.76839  1.0000
  N   N139      1.0  0.83115  0.37692  0.50008  1.0000
  C   C1668     1.0  0.76022  0.59821  0.93422  1.0000
  C   C1669     1.0  0.92120  0.40679  0.78470  1.0000
  H   H1663     1.0  0.77196  0.64978  0.95263  1.0000
  H   H1664     1.0  0.75186  0.41111  0.56529  1.0000
  H   H1665     1.0  0.90450  0.39308  0.65485  1.0000
  C   C1670     1.0  0.88053  0.42976  0.66856  1.0000
  C   C1671     1.0  0.89857  0.40943  0.67854  1.0000
  C   C1672     1.0  0.89003  0.42279  0.68348  1.0000
  H   H1666     1.0  0.87245  0.42883  0.63720  1.0000
  H   H1667     1.0  0.76629  0.47487  0.57861  1.0000
  C   C1673     1.0  0.81810  0.59463  0.90248  1.0000
  H   H1668     1.0  0.87397  0.44027  0.67217  1.0000
  H   H1669     1.0  0.90596  0.40389  0.69004  1.0000
  C   C1674     1.0  0.94590  0.61388  0.93766  1.0000
  H   H1670     1.0  0.86891  0.60325  0.84816  1.0000
  H   H1671     1.0  0.92123  0.40351  0.80246  1.0000
  H   H1672     1.0  0.87341  0.40128  0.61945  1.0000
  C   C1675     1.0  0.75131  0.64915  0.90804  1.0000
  S   S571      1.0  0.94977  0.61254  0.87090  1.0000
  C   C1676     1.0  0.93250  0.56801  0.73235  1.0000
  C   C1677     1.0  0.92733  0.61194  0.94395  1.0000
  N   N140      1.0  0.76402  0.40489  0.61602  1.0000
  Fe  Fe285     1.0  0.92357  0.61457  0.88924  1.0000
  S   S572      1.0  0.91211  0.60755  0.92547  1.0000
  C   C1678     1.0  0.83858  0.37280  0.51986  1.0000
  C   C1679     1.0  0.96916  0.60475  0.74545  1.0000
  H   H1673     1.0  0.91749  0.56409  0.73761  1.0000
  C   C1680     1.0  0.77866  0.41799  0.61900  1.0000
  C   C1681     1.0  0.95983  0.61018  0.76291  1.0000
  C   C1682     1.0  0.86672  0.59969  0.90776  1.0000
  S   S573      1.0  0.85262  0.42134  0.51566  1.0000
  C   C1683     1.0  0.93912  0.38945  0.76546  1.0000
  C   C1684     1.0  0.84468  0.62145  0.89554  1.0000
  S   S574      1.0  0.84009  0.32507  0.49435  1.0000
  H   H1674     1.0  0.89667  0.41455  0.60990  1.0000
  H   H1675     1.0  0.82990  0.37451  0.53466  1.0000
  C   C1685     1.0  0.74704  0.40760  0.61896  1.0000
  H   H1676     1.0  0.86599  0.33368  0.59086  1.0000
  C   C1686     1.0  0.83328  0.63093  0.84251  1.0000
  C   C1687     1.0  0.86500  0.63017  0.84242  1.0000
  H   H1677     1.0  0.73453  0.54686  0.77805  1.0000
  C   C1688     1.0  0.96965  0.41909  0.75652  1.0000
  C   C1689     1.0  0.95976  0.59107  0.73539  1.0000
  C   C1690     1.0  0.76496  0.65378  0.92046  1.0000
  H   H1678     1.0  0.82649  0.34477  0.62325  1.0000
  C   C1691     1.0  0.76317  0.46102  0.57543  1.0000
  H   H1679     1.0  0.86906  0.64393  0.88879  1.0000
  C   C1692     1.0  0.93232  0.58840  0.75942  1.0000
  H   H1680     1.0  0.73418  0.45771  0.57987  1.0000
  C   C1693     1.0  0.85194  0.64001  0.84030  1.0000
  C   C1694     1.0  0.76665  0.38776  0.61012  1.0000
  N   N141      1.0  0.88808  0.41007  0.64418  1.0000
  H   H1681     1.0  0.95607  0.37534  0.74813  1.0000
  H   H1682     1.0  0.83950  0.35844  0.52232  1.0000
  H   H1683     1.0  0.87814  0.35698  0.61284  1.0000
  C   C1695     1.0  0.75496  0.42510  0.56796  1.0000
  H   H1684     1.0  0.81641  0.58369  0.89236  1.0000
  H   H1685     1.0  0.96378  0.39336  0.69390  1.0000
  Fe  Fe286     1.0  0.95315  0.64107  0.85354  1.0000
  H   H1686     1.0  0.97179  0.61731  0.94818  1.0000
  C   C1696     1.0  0.95756  0.61637  0.95302  1.0000
  H   H1687     1.0  0.96694  0.62054  0.77117  1.0000
  C   C1697     1.0  0.87957  0.34329  0.61670  1.0000
  C   C1698     1.0  0.97076  0.40276  0.74978  1.0000
  C   C1699     1.0  0.74144  0.59098  0.94040  1.0000
  C   C1700     1.0  0.76146  0.64664  0.94277  1.0000
  N   N142      1.0  0.83745  0.60299  0.90198  1.0000
  C   C1701     1.0  0.95317  0.42022  0.76786  1.0000
  C   C1702     1.0  0.75949  0.43769  0.62666  1.0000
  C   C1703     1.0  0.74439  0.63517  0.95237  1.0000
  Fe  Fe287     1.0  0.74061  0.59521  0.88501  1.0000
  C   C1704     1.0  0.84821  0.59212  0.90807  1.0000
  C   C1705     1.0  0.95540  0.38788  0.75402  1.0000
  H   H1688     1.0  0.78547  0.60877  0.94497  1.0000
  H   H1689     1.0  0.76791  0.37867  0.62484  1.0000
  H   H1690     1.0  0.84253  0.57747  0.91298  1.0000
  H   H1691     1.0  0.81255  0.34594  0.56979  1.0000
  C   C1706     1.0  0.74499  0.45136  0.57605  1.0000
  H   H1692     1.0  0.81103  0.58876  0.91952  1.0000
  H   H1693     1.0  0.85628  0.65478  0.83704  1.0000
  H   H1694     1.0  0.88861  0.62444  0.90033  1.0000
  H   H1695     1.0  0.93560  0.57182  0.71424  1.0000
  H   H1696     1.0  0.91801  0.58178  0.76538  1.0000
  C   C1707     1.0  0.83654  0.37042  0.48177  1.0000
  C   C1708     1.0  0.74086  0.43320  0.57281  1.0000
  C   C1709     1.0  0.74428  0.59327  0.97832  1.0000
  C   C1710     1.0  0.92060  0.61299  0.96556  1.0000
  H   H1697     1.0  0.73542  0.39741  0.61626  1.0000
  H   H1698     1.0  0.90920  0.39725  0.78064  1.0000
  C   C1711     1.0  0.95083  0.61743  0.97463  1.0000
  C   C1712     1.0  0.83297  0.33989  0.63616  1.0000
  H   H1699     1.0  0.83949  0.36595  0.64680  1.0000
  H   H1700     1.0  0.96705  0.58682  0.72197  1.0000
  H   H1701     1.0  0.95230  0.43310  0.77266  1.0000
  C   C1713     1.0  0.74693  0.65662  0.79089  1.0000
  H   H1702     1.0  0.98264  0.54872  0.71400  1.0000
  H   H1703     1.0  0.98142  0.43089  0.75265  1.0000
  H   H1704     1.0  0.98234  0.57467  0.81880  1.0000
  H   H1705     1.0  0.75482  0.64894  0.80013  1.0000
  C   C1714     1.0  0.85008  0.32775  0.66892  1.0000
  N   N143      1.0  0.73480  0.63737  0.91749  1.0000
  H   H1706     1.0  0.84609  0.36218  0.48193  1.0000
  H   H1707     1.0  0.76031  0.94755  0.05565  1.0000
  C   C1715     1.0  0.75458  0.95902  0.05287  1.0000
  H   H1708     1.0  0.89964  0.67071  0.10847  1.0000
  H   H1709     1.0  0.77992  0.97874  0.05216  1.0000
  H   H1710     1.0  0.97159  0.70702  0.08180  1.0000
  C   C1716     1.0  0.92870  0.68279  0.10240  1.0000
  C   C1717     1.0  0.91024  0.68090  0.07430  1.0000
  C   C1718     1.0  0.76576  0.97680  0.05087  1.0000
  H   H1711     1.0  0.92977  0.67974  0.11948  1.0000
  C   C1719     1.0  0.73621  0.95582  0.05119  1.0000
  C   C1720     1.0  0.94267  0.69421  0.06531  1.0000
  H   H1712     1.0  0.96720  0.68353  0.09445  1.0000
  H   H1713     1.0  0.95479  0.70013  0.05298  1.0000
  C   C1721     1.0  0.92583  0.68913  0.05865  1.0000
  N   N144      1.0  0.94389  0.69120  0.08700  1.0000
  S   S575      1.0  0.75085  0.66342  0.05866  1.0000
  Fe  Fe288     1.0  0.96719  0.65956  0.05019  1.0000
  H   H1714     1.0  0.89716  0.67657  0.06927  1.0000
  H   H1715     1.0  0.92490  0.69096  0.04142  1.0000
  C   C1722     1.0  0.91165  0.67761  0.09631  1.0000
  C   C1723     1.0  0.96171  0.69567  0.09368  1.0000
  C   C1724     1.0  0.74047  0.98912  0.04557  1.0000
  H   H1716     1.0  0.96083  0.69999  0.10989  1.0000
  H   H1717     1.0  0.86926  0.65965  0.02620  1.0000
  H   H1718     1.0  0.73455  0.69221  0.06708  1.0000
  H   H1719     1.0  0.74114  0.96851  0.09908  1.0000
  C   C1725     1.0  0.73917  0.97882  0.98267  1.0000
  H   H1720     1.0  0.75211  0.98440  0.98749  1.0000
  C   C1726     1.0  0.73537  0.98006  0.09913  1.0000
  H   H1721     1.0  0.77104  0.99003  0.09314  1.0000
  H   H1722     1.0  0.98039  0.68914  0.86171  1.0000
  H   H1723     1.0  0.74907  0.67004  0.79644  1.0000
  H   H1724     1.0  0.74188  0.69342  0.83366  1.0000
  H   H1725     1.0  0.73483  0.86776  0.86096  1.0000
  S   S576      1.0  0.74684  0.65808  0.84552  1.0000
  C   C1727     1.0  0.73476  0.98458  0.85915  1.0000
  C   C1728     1.0  0.73390  0.98811  0.96496  1.0000
  H   H1726     1.0  0.77819  0.66271  0.91279  1.0000
  H   H1727     1.0  0.75242  0.65877  0.77317  1.0000
  H   H1728     1.0  0.73328  0.92944  0.82290  1.0000
