data_image0
_chemical_formula_structural       S2FeSFeCSHSC2H2C6SC3HCH2C2H4CHNHSCHFeC2H2CHFeC2SCHFeCH6CSFeS2NH2CHCH3CNHCHC2FeS2FeHFeSFeS3FeS2FeS2FeSFeHS2HFeCSFeHSC4SH2NHC6H4CH3CHC3HC6H5SCNHC6H4C2HCHFeC2HC2HCHSH2NH3CH2SC2HCNC4HCHC4H5CHNCHCHCH2CSHC2H2CH2NSCH2CHCHC2HCHC3H3FeS2FeSCFeCFeS3FeS2FeS2FeCFeS3HFeS2HFeS2HNC6H4CHC2HC6H4CHC2HNHC2SC6H6CHCSHCH3CH2CNSH2C4HNC2NSH2CHCHC2HCH4C3HC3H3CH3C2H3C6HSH2CH3SHFeSCFeSHSHCFeHCH3CH2S2NCHSCHCSC2HCHCHC3H2NHSHCFeCH2CH2C2HCHCNC2HCHC2HC3HCH2SHCH2CFeH4CFeS2FeCFeCFeHS2FeSCFeSCFeSFeHS2NCS2CH2CSHC9H4CHC2H2CHCHC2SHCH2C2H2CSNC5H8CH5CH6C2HC2HCHSC2N2CNCHC2HC2H3CSH2CH3CH3CFeSCSHCSCFeN2H2C2FeS2HFeSCHCFeHCSFeS2C2H2SHCH3C2FeSCH2CSH2C6HCHCSHCH2C2HCHNH2CHFeC2SCH2CSH3CH4C5H2CH2C5H3SCH4NH2SHCSC2H2CHS2FeHSCSCHSFeS2H2C2H2SFeS2C2NHCFeS2HC4H3FeH2C2HC2HC3H2C2HCH2CHNSHCSHNCFeH2C2Fe2HCH2C2HSHC2HCSCHCFeC3FeC2HCH3C2H2CHC2H2CH3SHCH2FeC2FeS2FeCFeS3FeSHFeS2FeSFeHSH2NC2HCHSH2CH2C8H5SNCHCH2CH2NCHNC3H4CH2CHC2SH2SCHCHCHC2H4C2H2C2SCHC2HC5H2C3H2CH2C2HSHC2FeHCNSHS3CHCFeNHCH3C2NH4C2H2CHCHC3H2CH2CHCHC2HCHCHCH2SH2C2H2SHC2H2CHC3Fe2SFeS2FeCFeS3FeS2FeS2FeSFeCS2FeS2FeS2HC2HCHC6H2CHCHC2FeC2HC6H3NH4C7H4SNH2CH3C2H2CNHCNC6H9CH3SHC3SHCH2C3HCHSHSC3HNHSC3H2C2H3CHNCFeCSCHFeS2FeS2FeHFeS3FeSCFeS2FeSFeS3HFeS2FeSHCHC6H2CHC2NCSC6H2CHSH2FeH2C7H4C2HSCH4C2NC6H8NC6H8C5HCSCH3C3H2NH5SC2H3CHCHC2H2FeHCHC2HSFeCSCHNS2FeHSHC2HC3H2FeHCHC2HCHCH3CHCSCHCH2NC3HCH3SHCH3CHC2H5CHCSC7H3S
_chemical_formula_sum              "S192 Fe96 C576 H576 N48"
_cell_length_a       70.4631
_cell_length_b       38.5816
_cell_length_c       37.5241
_cell_angle_alpha    90.0391
_cell_angle_beta     90.1011
_cell_angle_gamma    88.3048

_space_group_name_H-M_alt    "P 1"
_space_group_IT_number       1

loop_
  _space_group_symop_operation_xyz
  'x, y, z'

loop_
  _atom_site_type_symbol
  _atom_site_label
  _atom_site_symmetry_multiplicity
  _atom_site_fract_x
  _atom_site_fract_y
  _atom_site_fract_z
  _atom_site_occupancy
  S   S1        1.0  0.02338  0.07738  0.36034  1.0000
  S   S2        1.0  0.99443  0.42100  0.28405  1.0000
  Fe  Fe1       1.0  0.02277  0.05200  0.30605  1.0000
  S   S3        1.0  0.04793  0.04801  0.26678  1.0000
  Fe  Fe2       1.0  0.01760  0.45125  0.31057  1.0000
  C   C1        1.0  0.03683  0.32483  0.38943  1.0000
  S   S4        1.0  0.02497  0.40834  0.34930  1.0000
  H   H1        1.0  0.12848  0.46073  0.04094  1.0000
  S   S5        1.0  0.99752  0.08534  0.28838  1.0000
  C   C2        1.0  0.16340  0.99647  0.04039  1.0000
  C   C3        1.0  0.07463  0.46770  0.27472  1.0000
  H   H2        1.0  0.14160  0.99285  0.24045  1.0000
  H   H3        1.0  0.01513  0.19382  0.30571  1.0000
  C   C4        1.0  0.14469  0.44211  0.12423  1.0000
  C   C5        1.0  0.01062  0.28970  0.42961  1.0000
  C   C6        1.0  0.01848  0.03488  0.19690  1.0000
  C   C7        1.0  0.00461  0.46346  0.48026  1.0000
  C   C8        1.0  0.00346  0.99382  0.47007  1.0000
  C   C9        1.0  0.02558  0.34213  0.41489  1.0000
  S   S6        1.0  0.01185  0.00135  0.42584  1.0000
  C   C10       1.0  0.00082  0.27814  0.32360  1.0000
  C   C11       1.0  0.02189  0.27146  0.40483  1.0000
  C   C12       1.0  0.06685  0.01689  0.25928  1.0000
  H   H4        1.0  0.01506  0.05789  0.21384  1.0000
  C   C13       1.0  0.09469  0.99842  0.22364  1.0000
  H   H5        1.0  0.15595  0.43235  0.07173  1.0000
  H   H6        1.0  0.00008  0.27581  0.44445  1.0000
  C   C14       1.0  0.11378  0.47345  0.09011  1.0000
  C   C15       1.0  0.01082  0.24973  0.30807  1.0000
  H   H7        1.0  0.10462  0.00359  0.20248  1.0000
  H   H8        1.0  0.03394  0.03553  0.19106  1.0000
  H   H9        1.0  0.15043  0.02372  0.27233  1.0000
  H   H10       1.0  0.16639  0.00250  0.06797  1.0000
  C   C16       1.0  0.14406  0.44281  0.08710  1.0000
  H   H11       1.0  0.18742  0.45442  0.02854  1.0000
  N   N1        1.0  0.11419  0.47156  0.12654  1.0000
  H   H12       1.0  0.13020  0.45629  0.17256  1.0000
  S   S7        1.0  0.00691  0.32140  0.31110  1.0000
  C   C17       1.0  0.12954  0.45669  0.14368  1.0000
  H   H13       1.0  0.16825  0.04838  0.02170  1.0000
  Fe  Fe3       1.0  0.00367  0.03508  0.37714  1.0000
  C   C18       1.0  0.12862  0.45885  0.06983  1.0000
  C   C19       1.0  0.16443  0.02248  0.01399  1.0000
  H   H14       1.0  0.15707  0.43111  0.13780  1.0000
  H   H15       1.0  0.07888  0.04686  0.21688  1.0000
  C   C20       1.0  0.99337  0.20814  0.34353  1.0000
  H   H16       1.0  0.02161  0.25456  0.28836  1.0000
  Fe  Fe4       1.0  0.00060  0.37908  0.32558  1.0000
  C   C21       1.0  0.08003  0.02297  0.23192  1.0000
  C   C22       1.0  0.03491  0.28929  0.38437  1.0000
  S   S8        1.0  0.00855  0.43128  0.44652  1.0000
  C   C23       1.0  0.09365  0.47205  0.26388  1.0000
  H   H17       1.0  0.31094  0.47362  0.23025  1.0000
  Fe  Fe5       1.0  0.00293  0.43263  0.38616  1.0000
  C   C24       1.0  0.00716  0.21510  0.31788  1.0000
  H   H18       1.0  0.04305  0.27581  0.36380  1.0000
  H   H19       1.0  0.04657  0.33906  0.37300  1.0000
  H   H20       1.0  0.10444  0.45313  0.27199  1.0000
  H   H21       1.0  0.07100  0.44571  0.29096  1.0000
  H   H22       1.0  0.01998  0.24396  0.40037  1.0000
  H   H23       1.0  0.02703  0.36983  0.41855  1.0000
  C   C25       1.0  0.17657  0.47113  0.01662  1.0000
  S   S9        1.0  0.03594  0.48749  0.27656  1.0000
  Fe  Fe6       1.0  0.99696  0.10796  0.34360  1.0000
  S   S10       1.0  0.00441  0.00835  0.32316  1.0000
  S   S11       1.0  0.99723  0.47749  0.34930  1.0000
  N   N2        1.0  0.01264  0.32458  0.43447  1.0000
  H   H24       1.0  0.99231  0.32651  0.47713  1.0000
  H   H25       1.0  0.01052  0.03700  0.17141  1.0000
  C   C26       1.0  0.00043  0.34388  0.45963  1.0000
  H   H26       1.0  0.00911  0.36063  0.47703  1.0000
  C   C27       1.0  0.14313  0.99877  0.26929  1.0000
  H   H27       1.0  0.30899  0.03657  0.47685  1.0000
  H   H28       1.0  0.09561  0.47078  0.17127  1.0000
  H   H29       1.0  0.12863  0.00221  0.28070  1.0000
  C   C28       1.0  0.09860  0.48705  0.14757  1.0000
  N   N3        1.0  0.01352  0.00321  0.21589  1.0000
  H   H30       1.0  0.08525  0.48950  0.13190  1.0000
  C   C29       1.0  0.99505  0.99871  0.22553  1.0000
  H   H31       1.0  0.10202  0.48648  0.07647  1.0000
  C   C30       1.0  0.32038  0.02073  0.48828  1.0000
  C   C31       1.0  0.06036  0.49164  0.26434  1.0000
  Fe  Fe7       1.0  0.15997  0.36714  0.84719  1.0000
  S   S12       1.0  0.15843  0.38364  0.78983  1.0000
  S   S13       1.0  0.16871  0.31181  0.86398  1.0000
  Fe  Fe8       1.0  0.15548  0.44196  0.87472  1.0000
  H   H32       1.0  0.13215  0.29419  0.83193  1.0000
  Fe  Fe9       1.0  0.13440  0.42051  0.80650  1.0000
  S   S14       1.0  0.10758  0.42457  0.77104  1.0000
  Fe  Fe10      1.0  0.17842  0.42540  0.80570  1.0000
  S   S15       1.0  0.20176  0.44026  0.76604  1.0000
  S   S16       1.0  0.13443  0.40033  0.86310  1.0000
  S   S17       1.0  0.18118  0.40764  0.86266  1.0000
  Fe  Fe11      1.0  0.14581  0.11350  0.83437  1.0000
  S   S18       1.0  0.15548  0.08448  0.78533  1.0000
  S   S19       1.0  0.13116  0.16680  0.83044  1.0000
  Fe  Fe12      1.0  0.15853  0.05429  0.88518  1.0000
  S   S20       1.0  0.16954  0.02135  0.83961  1.0000
  S   S21       1.0  0.16261  0.04922  0.94582  1.0000
  Fe  Fe13      1.0  0.18191  0.07001  0.81675  1.0000
  S   S22       1.0  0.21247  0.08480  0.80277  1.0000
  Fe  Fe14      1.0  0.14211  0.03814  0.81115  1.0000
  H   H33       1.0  0.29689  0.25695  0.65925  1.0000
  S   S23       1.0  0.17256  0.10188  0.86431  1.0000
  S   S24       1.0  0.13074  0.06828  0.85818  1.0000
  H   H34       1.0  0.15195  0.23456  0.75581  1.0000
  Fe  Fe15      1.0  0.31335  0.42044  0.70472  1.0000
  C   C32       1.0  0.27595  0.01151  0.57118  1.0000
  S   S25       1.0  0.29183  0.41409  0.75027  1.0000
  Fe  Fe16      1.0  0.31145  0.05046  0.69313  1.0000
  H   H35       1.0  0.07707  0.06464  0.90813  1.0000
  S   S26       1.0  0.28139  0.03061  0.70307  1.0000
  C   C33       1.0  0.08692  0.02307  0.77589  1.0000
  C   C34       1.0  0.01667  0.42831  0.75049  1.0000
  C   C35       1.0  0.04284  0.01383  0.59370  1.0000
  C   C36       1.0  0.15698  0.48666  0.96509  1.0000
  S   S27       1.0  0.15429  0.46344  0.81851  1.0000
  H   H36       1.0  0.06054  0.01776  0.67474  1.0000
  H   H37       1.0  0.07981  0.12110  0.87671  1.0000
  N   N4        1.0  0.04193  0.01516  0.63013  1.0000
  H   H38       1.0  0.01276  0.42850  0.52282  1.0000
  C   C37       1.0  0.00204  0.45349  0.75064  1.0000
  C   C38       1.0  0.23127  0.06927  0.77439  1.0000
  C   C39       1.0  0.24857  0.08671  0.77447  1.0000
  C   C40       1.0  0.26400  0.07539  0.75291  1.0000
  C   C41       1.0  0.26239  0.04629  0.73093  1.0000
  C   C42       1.0  0.20955  0.48521  0.86871  1.0000
  H   H39       1.0  0.22492  0.06856  0.93805  1.0000
  H   H40       1.0  0.25010  0.10920  0.79133  1.0000
  H   H41       1.0  0.27716  0.08915  0.75335  1.0000
  H   H42       1.0  0.02513  0.02903  0.67550  1.0000
  C   C43       1.0  0.30134  0.28656  0.74384  1.0000
  H   H43       1.0  0.22788  0.45440  0.70954  1.0000
  H   H44       1.0  0.30617  0.27820  0.77000  1.0000
  H   H45       1.0  0.21890  0.46624  0.88167  1.0000
  C   C44       1.0  0.06372  0.48080  0.72520  1.0000
  H   H46       1.0  0.01529  0.40483  0.73489  1.0000
  C   C45       1.0  0.22964  0.04016  0.75244  1.0000
  C   C46       1.0  0.09032  0.11300  0.89644  1.0000
  C   C47       1.0  0.19581  0.22803  0.79093  1.0000
  H   H47       1.0  0.09154  0.04598  0.78962  1.0000
  C   C48       1.0  0.22663  0.43072  0.76150  1.0000
  C   C49       1.0  0.23600  0.44160  0.73048  1.0000
  C   C50       1.0  0.25581  0.43623  0.72624  1.0000
  C   C51       1.0  0.26663  0.42032  0.75328  1.0000
  C   C52       1.0  0.25725  0.40937  0.78429  1.0000
  C   C53       1.0  0.23740  0.41433  0.78834  1.0000
  H   H48       1.0  0.24361  0.00626  0.71409  1.0000
  H   H49       1.0  0.26273  0.44494  0.70228  1.0000
  H   H50       1.0  0.26543  0.39710  0.80547  1.0000
  H   H51       1.0  0.23050  0.40587  0.81241  1.0000
  H   H52       1.0  0.18600  0.29400  0.79540  1.0000
  S   S28       1.0  0.14961  0.48139  0.91990  1.0000
  C   C54       1.0  0.16506  0.22276  0.76586  1.0000
  N   N5        1.0  0.21134  0.02898  0.90887  1.0000
  H   H53       1.0  0.18498  0.14305  0.78295  1.0000
  C   C55       1.0  0.15753  0.27198  0.85564  1.0000
  C   C56       1.0  0.16718  0.24083  0.86494  1.0000
  C   C57       1.0  0.15931  0.20845  0.85751  1.0000
  C   C58       1.0  0.14154  0.20690  0.84102  1.0000
  C   C59       1.0  0.13177  0.23803  0.83211  1.0000
  C   C60       1.0  0.13976  0.27043  0.83916  1.0000
  H   H54       1.0  0.18094  0.24179  0.87770  1.0000
  H   H55       1.0  0.16703  0.18476  0.86443  1.0000
  H   H56       1.0  0.11800  0.23713  0.81939  1.0000
  H   H57       1.0  0.04781  0.46864  0.80429  1.0000
  C   C61       1.0  0.29519  0.32084  0.73832  1.0000
  C   C62       1.0  0.28435  0.32000  0.64050  1.0000
  H   H58       1.0  0.05324  0.47642  0.70471  1.0000
  C   C63       1.0  0.02788  0.02730  0.57289  1.0000
  H   H59       1.0  0.29513  0.33941  0.76011  1.0000
  Fe  Fe17      1.0  0.32369  0.44448  0.62864  1.0000
  C   C64       1.0  0.24509  0.02879  0.73094  1.0000
  C   C65       1.0  0.01175  0.04142  0.58957  1.0000
  H   H60       1.0  0.27596  0.30012  0.62666  1.0000
  C   C66       1.0  0.07737  0.45446  0.73384  1.0000
  C   C67       1.0  0.22027  0.03329  0.87691  1.0000
  H   H61       1.0  0.32032  0.04894  0.53835  1.0000
  C   C68       1.0  0.10252  0.07122  0.93915  1.0000
  H   H62       1.0  0.27560  0.34446  0.64116  1.0000
  S   S29       1.0  0.30814  0.39895  0.65022  1.0000
  H   H63       1.0  0.07726  0.43003  0.71969  1.0000
  H   H64       1.0  0.30668  0.23669  0.71912  1.0000
  N   N6        1.0  0.02057  0.48936  0.78888  1.0000
  H   H65       1.0  0.07089  0.99719  0.63632  1.0000
  H   H66       1.0  0.21648  0.02642  0.75189  1.0000
  H   H67       1.0  0.16260  0.29005  0.77852  1.0000
  C   C69       1.0  0.28935  0.33138  0.70427  1.0000
  H   H68       1.0  0.18241  0.28931  0.74790  1.0000
  H   H69       1.0  0.22680  0.05766  0.87054  1.0000
  S   S30       1.0  0.12472  0.99809  0.78053  1.0000
  C   C70       1.0  0.21062  0.05771  0.93447  1.0000
  C   C71       1.0  0.02610  0.02877  0.64666  1.0000
  H   H70       1.0  0.15515  0.17060  0.75935  1.0000
  C   C72       1.0  0.16682  0.18655  0.76762  1.0000
  N   N7        1.0  0.11956  0.12304  0.92734  1.0000
  C   C73       1.0  0.10580  0.13380  0.90369  1.0000
  C   C74       1.0  0.08879  0.08137  0.91409  1.0000
  C   C75       1.0  0.03477  0.46439  0.78966  1.0000
  C   C76       1.0  0.11780  0.09268  0.94575  1.0000
  H   H71       1.0  0.02844  0.02577  0.54400  1.0000
  C   C77       1.0  0.13601  0.14459  0.93378  1.0000
  H   H72       1.0  0.10697  0.15821  0.88961  1.0000
  C   C78       1.0  0.05753  0.00049  0.65177  1.0000
  C   C79       1.0  0.17090  0.46518  0.98103  1.0000
  C   C80       1.0  0.30155  0.26327  0.71538  1.0000
  C   C81       1.0  0.03311  0.43363  0.77028  1.0000
  H   H73       1.0  0.13302  0.16269  0.95622  1.0000
  H   H74       1.0  0.14885  0.12821  0.94014  1.0000
  H   H75       1.0  0.13949  0.15991  0.90965  1.0000
  H   H76       1.0  0.20062  0.07841  0.92472  1.0000
  H   H77       1.0  0.28468  0.35815  0.70032  1.0000
  C   C82       1.0  0.18345  0.17109  0.78123  1.0000
  H   H78       1.0  0.99969  0.05050  0.57375  1.0000
  N   N8        1.0  0.17941  0.24300  0.77770  1.0000
  C   C83       1.0  0.00421  0.48399  0.77021  1.0000
  H   H79       1.0  0.12847  0.08449  0.96511  1.0000
  C   C84       1.0  0.06768  0.02037  0.76553  1.0000
  H   H80       1.0  0.21098  0.17991  0.80373  1.0000
  C   C85       1.0  0.01076  0.04197  0.62666  1.0000
  H   H81       1.0  0.05771  0.04142  0.77151  1.0000
  H   H82       1.0  0.20552  0.04930  0.96106  1.0000
  C   C86       1.0  0.17756  0.28086  0.77455  1.0000
  S   S31       1.0  0.31749  0.08409  0.64540  1.0000
  H   H83       1.0  0.05508  0.00200  0.58049  1.0000
  C   C87       1.0  0.09119  0.45943  0.76045  1.0000
  C   C88       1.0  0.19806  0.19188  0.79297  1.0000
  H   H84       1.0  0.20716  0.24408  0.80038  1.0000
  H   H85       1.0  0.29736  0.32468  0.62470  1.0000
  C   C89       1.0  0.29589  0.27483  0.68155  1.0000
  H   H86       1.0  0.04474  0.41453  0.77000  1.0000
  H   H87       1.0  0.10158  0.04661  0.95295  1.0000
  N   N9        1.0  0.28972  0.30841  0.67643  1.0000
  S   S32       1.0  0.31094  0.47499  0.58153  1.0000
  C   C90       1.0  0.00799  0.45460  0.51622  1.0000
  H   H88       1.0  0.17737  0.44407  0.96592  1.0000
  H   H89       1.0  0.22775  0.01046  0.82611  1.0000
  C   C91       1.0  0.16061  0.01528  0.97791  1.0000
  H   H90       1.0  0.28184  0.99331  0.51776  1.0000
  C   C92       1.0  0.22086  0.00663  0.85162  1.0000
  H   H91       1.0  0.99795  0.05159  0.63983  1.0000
  C   C93       1.0  0.09114  0.49131  0.77831  1.0000
  C   C94       1.0  0.10012  0.99620  0.76834  1.0000
  H   H92       1.0  0.22416  0.48190  0.81868  1.0000
  C   C95       1.0  0.32146  0.48696  0.54035  1.0000
  H   H93       1.0  0.00805  0.47198  0.57124  1.0000
  C   C96       1.0  0.00532  0.47925  0.54383  1.0000
  C   C97       1.0  0.28116  0.00887  0.60698  1.0000
  C   C98       1.0  0.20256  0.99864  0.91632  1.0000
  H   H94       1.0  0.19510  0.99544  0.94132  1.0000
  H   H95       1.0  0.27372  0.02428  0.62711  1.0000
  H   H96       1.0  0.26447  0.02919  0.56317  1.0000
  Fe  Fe18      1.0  0.14928  0.60869  0.15688  1.0000
  S   S33       1.0  0.15263  0.59155  0.21378  1.0000
  S   S34       1.0  0.13619  0.66192  0.14314  1.0000
  Fe  Fe19      1.0  0.16565  0.54011  0.12729  1.0000
  S   S35       1.0  0.17061  0.51897  0.18290  1.0000
  C   C99       1.0  0.29155  0.81290  0.27158  1.0000
  Fe  Fe20      1.0  0.14118  0.54051  0.19563  1.0000
  C   C100      1.0  0.99850  0.49743  0.47230  1.0000
  Fe  Fe21      1.0  0.18166  0.57137  0.19687  1.0000
  S   S36       1.0  0.20667  0.58917  0.23105  1.0000
  S   S37       1.0  0.13572  0.55871  0.13935  1.0000
  S   S38       1.0  0.17874  0.59129  0.14058  1.0000
  Fe  Fe22      1.0  0.14052  0.92576  0.19695  1.0000
  S   S39       1.0  0.14020  0.88834  0.15059  1.0000
  S   S40       1.0  0.11451  0.93499  0.23360  1.0000
  Fe  Fe23      1.0  0.18441  0.93137  0.19307  1.0000
  S   S41       1.0  0.18666  0.89538  0.14602  1.0000
  S   S42       1.0  0.20855  0.95704  0.22408  1.0000
  Fe  Fe24      1.0  0.16081  0.92423  0.12403  1.0000
  C   C101      1.0  0.17544  0.73170  0.08908  1.0000
  Fe  Fe25      1.0  0.16594  0.86217  0.17512  1.0000
  S   S43       1.0  0.17460  0.80497  0.18201  1.0000
  S   S44       1.0  0.15975  0.96320  0.16935  1.0000
  S   S45       1.0  0.16507  0.89676  0.22330  1.0000
  H   H97       1.0  0.20053  0.75251  0.11288  1.0000
  Fe  Fe26      1.0  0.31655  0.92017  0.30724  1.0000
  S   S46       1.0  0.29384  0.90707  0.26524  1.0000
  S   S47       1.0  0.31376  0.90002  0.36335  1.0000
  H   H98       1.0  0.30104  0.74229  0.34929  1.0000
  Fe  Fe27      1.0  0.30772  0.55039  0.32389  1.0000
  S   S48       1.0  0.28251  0.52225  0.29973  1.0000
  S   S49       1.0  0.30919  0.58283  0.37378  1.0000
  H   H99       1.0  0.12051  0.58357  0.31822  1.0000
  N   N10       1.0  0.16374  0.80055  0.07942  1.0000
  C   C102      1.0  0.23189  0.94157  0.23648  1.0000
  C   C103      1.0  0.24042  0.91168  0.22163  1.0000
  C   C104      1.0  0.25924  0.90152  0.23099  1.0000
  C   C105      1.0  0.26978  0.92063  0.25580  1.0000
  C   C106      1.0  0.26109  0.95006  0.27130  1.0000
  C   C107      1.0  0.24237  0.96055  0.26148  1.0000
  H   H100      1.0  0.23267  0.89682  0.20228  1.0000
  H   H101      1.0  0.26575  0.87886  0.21856  1.0000
  H   H102      1.0  0.26893  0.96520  0.29026  1.0000
  H   H103      1.0  0.28149  0.59240  0.17680  1.0000
  C   C108      1.0  0.09632  0.96719  0.24252  1.0000
  H   H104      1.0  0.13840  0.78061  0.05727  1.0000
  C   C109      1.0  0.31244  0.50022  0.22166  1.0000
  C   C110      1.0  0.32405  0.77698  0.35824  1.0000
  H   H105      1.0  0.14839  0.71908  0.06655  1.0000
  C   C111      1.0  0.22778  0.56977  0.24926  1.0000
  C   C112      1.0  0.23199  0.53417  0.24691  1.0000
  C   C113      1.0  0.24863  0.52003  0.26300  1.0000
  C   C114      1.0  0.26137  0.54127  0.28123  1.0000
  C   C115      1.0  0.25718  0.57686  0.28343  1.0000
  C   C116      1.0  0.24047  0.59093  0.26766  1.0000
  H   H106      1.0  0.22236  0.51751  0.23299  1.0000
  H   H107      1.0  0.14693  0.89484  0.32994  1.0000
  H   H108      1.0  0.26676  0.59354  0.29750  1.0000
  H   H109      1.0  0.23731  0.61848  0.26988  1.0000
  C   C117      1.0  0.31119  0.81711  0.27172  1.0000
  H   H110      1.0  0.15845  0.84408  0.04568  1.0000
  C   C118      1.0  0.08454  0.52445  0.23237  1.0000
  C   C119      1.0  0.14444  0.94417  0.30297  1.0000
  H   H111      1.0  0.04188  0.98213  0.21664  1.0000
  N   N11       1.0  0.14579  0.55711  0.30050  1.0000
  H   H112      1.0  0.08812  0.54647  0.21615  1.0000
  C   C120      1.0  0.15857  0.96271  0.03107  1.0000
  C   C121      1.0  0.02722  0.97864  0.22425  1.0000
  S   S50       1.0  0.12304  0.50386  0.22927  1.0000
  C   C122      1.0  0.14618  0.70147  0.15717  1.0000
  C   C123      1.0  0.16410  0.70215  0.17320  1.0000
  C   C124      1.0  0.17223  0.73409  0.18161  1.0000
  C   C125      1.0  0.16261  0.76575  0.17419  1.0000
  C   C126      1.0  0.14447  0.76512  0.15895  1.0000
  C   C127      1.0  0.13633  0.73311  0.15050  1.0000
  H   H113      1.0  0.17185  0.67807  0.17856  1.0000
  H   H114      1.0  0.18624  0.73427  0.19345  1.0000
  H   H115      1.0  0.13687  0.78924  0.15321  1.0000
  H   H116      1.0  0.12242  0.73285  0.13828  1.0000
  H   H117      1.0  0.31701  0.59638  0.19613  1.0000
  H   H118      1.0  0.11745  0.53913  0.30591  1.0000
  C   C128      1.0  0.09876  0.50037  0.24259  1.0000
  H   H119      1.0  0.20031  0.54265  0.29836  1.0000
  C   C129      1.0  0.18500  0.54658  0.29943  1.0000
  S   S51       1.0  0.31748  0.67462  0.33676  1.0000
  H   H120      1.0  0.00162  0.52443  0.28679  1.0000
  C   C130      1.0  0.15430  0.51970  0.02107  1.0000
  H   H121      1.0  0.12083  0.57090  0.27171  1.0000
  H   H122      1.0  0.28196  0.83549  0.27201  1.0000
  H   H123      1.0  0.14779  0.54074  0.03621  1.0000
  C   C131      1.0  0.02264  0.94902  0.24351  1.0000
  H   H124      1.0  0.18634  0.60212  0.30303  1.0000
  H   H125      1.0  0.00271  0.49372  0.22916  1.0000
  C   C132      1.0  0.15479  0.95552  0.99492  1.0000
  N   N12       1.0  0.29804  0.55555  0.20659  1.0000
  S   S52       1.0  0.17562  0.50358  0.08217  1.0000
  H   H126      1.0  0.19913  0.94051  0.29768  1.0000
  H   H127      1.0  0.12903  0.94452  0.30357  1.0000
  C   C133      1.0  0.28111  0.57823  0.20252  1.0000
  C   C134      1.0  0.12515  0.56302  0.29912  1.0000
  C   C135      1.0  0.08315  0.96113  0.26992  1.0000
  C   C136      1.0  0.18375  0.94161  0.29998  1.0000
  H   H128      1.0  0.08423  0.93715  0.28481  1.0000
  N   N13       1.0  0.32341  0.78888  0.27186  1.0000
  C   C137      1.0  0.31624  0.74419  0.35253  1.0000
  C   C138      1.0  0.17713  0.58004  0.30241  1.0000
  N   N14       1.0  0.15384  0.97041  0.28681  1.0000
  S   S53       1.0  0.15718  0.92848  0.06303  1.0000
  H   H129      1.0  0.28244  0.51077  0.21990  1.0000
  H   H130      1.0  0.18072  0.98938  0.27103  1.0000
  C   C139      1.0  0.18112  0.79290  0.09427  1.0000
  H   H131      1.0  0.18228  0.89267  0.32722  1.0000
  C   C140      1.0  0.15743  0.83676  0.07421  1.0000
  H   H132      1.0  0.26778  0.56343  0.20304  1.0000
  C   C141      1.0  0.00384  0.94432  0.25365  1.0000
  C   C142      1.0  0.16833  0.49838  0.03692  1.0000
  H   H133      1.0  0.31657  0.84315  0.27214  1.0000
  C   C143      1.0  0.31562  0.56918  0.20255  1.0000
  H   H134      1.0  0.14427  0.50223  0.29436  1.0000
  H   H135      1.0  0.28037  0.59719  0.22484  1.0000
  H   H136      1.0  0.29169  0.72474  0.27157  1.0000
  H   H137      1.0  0.17958  0.70486  0.09440  1.0000
  C   C144      1.0  0.18720  0.75840  0.09940  1.0000
  C   C145      1.0  0.15224  0.77453  0.06872  1.0000
  C   C146      1.0  0.17324  0.96926  0.28495  1.0000
  H   H138      1.0  0.15138  0.61109  0.30398  1.0000
  C   C147      1.0  0.15787  0.73973  0.07348  1.0000
  C   C148      1.0  0.06551  0.52002  0.24310  1.0000
  C   C149      1.0  0.28443  0.77954  0.27133  1.0000
  H   H139      1.0  0.23605  0.98380  0.27309  1.0000
  H   H140      1.0  0.30925  0.53046  0.46346  1.0000
  H   H141      1.0  0.16616  0.85493  0.08977  1.0000
  C   C150      1.0  0.15342  0.52421  0.29721  1.0000
  H   H142      1.0  0.05854  0.98049  0.29932  1.0000
  H   H143      1.0  0.05467  0.53881  0.23490  1.0000
  H   H144      1.0  0.14253  0.84090  0.08329  1.0000
  C   C151      1.0  0.17429  0.91473  0.31644  1.0000
  C   C152      1.0  0.06854  0.98572  0.27827  1.0000
  H   H145      1.0  0.19005  0.81345  0.10370  1.0000
  H   H146      1.0  0.03369  0.93018  0.25095  1.0000
  H   H147      1.0  0.26921  0.77596  0.27187  1.0000
  C   C153      1.0  0.29699  0.75087  0.27076  1.0000
  C   C154      1.0  0.15738  0.58489  0.30283  1.0000
  C   C155      1.0  0.29632  0.52148  0.21579  1.0000
  C   C156      1.0  0.17311  0.51844  0.29668  1.0000
  C   C157      1.0  0.15449  0.91596  0.31799  1.0000
  C   C158      1.0  0.31656  0.75606  0.27063  1.0000
  H   H148      1.0  0.31491  0.79997  0.35953  1.0000
  S   S54       1.0  0.31956  0.98519  0.42446  1.0000
  H   H149      1.0  0.00011  0.92176  0.26909  1.0000
  H   H150      1.0  0.10252  0.51317  0.15706  1.0000
  C   C159      1.0  0.31812  0.51676  0.48271  1.0000
  H   H151      1.0  0.99585  0.50475  0.44489  1.0000
  H   H152      1.0  0.02605  0.95656  0.48158  1.0000
  H   H153      1.0  0.25166  0.49242  0.26126  1.0000
  S   S55       1.0  0.32495  0.58603  0.29085  1.0000
  H   H154      1.0  0.17912  0.49242  0.29348  1.0000
  Fe  Fe28      1.0  0.99216  0.94531  0.63762  1.0000
  S   S56       1.0  0.01583  0.58912  0.65510  1.0000
  C   C160      1.0  0.99598  0.52213  0.49987  1.0000
  Fe  Fe29      1.0  0.01868  0.55240  0.70193  1.0000
  S   S57       1.0  0.04597  0.54610  0.73554  1.0000
  H   H155      1.0  0.01927  0.72084  0.62078  1.0000
  S   S58       1.0  0.02009  0.92121  0.65652  1.0000
  H   H156      1.0  0.10161  0.49565  0.79885  1.0000
  C   C161      1.0  0.09366  0.96671  0.75023  1.0000
  Fe  Fe30      1.0  0.01585  0.95303  0.70663  1.0000
  H   H157      1.0  0.04904  0.62913  0.58277  1.0000
  C   C162      1.0  0.30058  0.96910  0.55657  1.0000
  H   H158      1.0  0.20334  0.55416  0.77470  1.0000
  H   H159      1.0  0.01485  0.69577  0.70600  1.0000
  H   H160      1.0  0.02663  0.75580  0.71084  1.0000
  C   C163      1.0  0.06357  0.51253  0.74335  1.0000
  H   H161      1.0  0.06980  0.94102  0.72624  1.0000
  H   H162      1.0  0.15277  0.97546  0.94097  1.0000
  S   S59       1.0  0.99628  0.54614  0.56917  1.0000
  S   S60       1.0  0.00168  0.51100  0.67549  1.0000
  N   N15       1.0  0.00203  0.64963  0.58080  1.0000
  C   C164      1.0  0.15577  0.98156  0.96851  1.0000
  H   H163      1.0  0.10366  0.94571  0.74418  1.0000
  S   S61       1.0  0.99340  0.57706  0.73056  1.0000
  C   C165      1.0  0.00646  0.71733  0.69537  1.0000
  H   H164      1.0  0.19563  0.94765  0.89747  1.0000
  C   C166      1.0  0.00247  0.78023  0.68467  1.0000
  S   S62       1.0  0.01140  0.82296  0.69042  1.0000
  C   C167      1.0  0.00758  0.96306  0.52721  1.0000
  C   C168      1.0  0.20292  0.52567  0.77849  1.0000
  H   H165      1.0  0.05357  0.97484  0.66249  1.0000
  C   C169      1.0  0.01928  0.69573  0.60767  1.0000
  H   H166      1.0  0.04957  0.68733  0.61159  1.0000
  C   C170      1.0  0.14875  0.51393  0.98538  1.0000
  H   H167      1.0  0.01847  0.60537  0.56370  1.0000
  C   C171      1.0  0.01862  0.63104  0.57553  1.0000
  C   C172      1.0  0.21208  0.97552  0.85907  1.0000
  C   C173      1.0  0.01312  0.75152  0.69804  1.0000
  H   H168      1.0  0.29513  0.50851  0.51949  1.0000
  H   H169      1.0  0.19106  0.51511  0.76256  1.0000
  N   N16       1.0  0.20028  0.51721  0.81622  1.0000
  H   H170      1.0  0.13801  0.53081  0.97335  1.0000
  S   S63       1.0  0.99948  0.91183  0.73469  1.0000
  H   H171      1.0  0.21215  0.95490  0.83937  1.0000
  C   C174      1.0  0.18517  0.53187  0.83413  1.0000
  Fe  Fe31      1.0  0.00203  0.88078  0.68366  1.0000
  C   C175      1.0  0.07744  0.51756  0.76983  1.0000
  H   H172      1.0  0.07756  0.54196  0.78404  1.0000
  H   H173      1.0  0.17524  0.54935  0.82055  1.0000
  C   C176      1.0  0.31015  0.50428  0.51456  1.0000
  H   H174      1.0  0.99796  0.84176  0.76576  1.0000
  H   H175      1.0  0.01550  0.94464  0.54358  1.0000
  C   C177      1.0  0.21242  0.49416  0.83304  1.0000
  C   C178      1.0  0.03627  0.67690  0.60254  1.0000
  H   H176      1.0  0.16979  0.53490  0.88391  1.0000
  C   C179      1.0  0.07441  0.96396  0.73996  1.0000
  H   H177      1.0  0.30534  0.56879  0.58377  1.0000
  C   C180      1.0  0.03598  0.64435  0.58632  1.0000
  N   N17       1.0  0.30592  0.96738  0.59162  1.0000
  C   C181      1.0  0.20284  0.97145  0.89162  1.0000
  C   C182      1.0  0.18201  0.52380  0.86991  1.0000
  H   H178      1.0  0.32145  0.58953  0.52913  1.0000
  C   C183      1.0  0.02251  0.52143  0.80935  1.0000
  H   H179      1.0  0.01575  0.54377  0.79496  1.0000
  C   C184      1.0  0.32164  0.94392  0.60244  1.0000
  C   C185      1.0  0.19423  0.50020  0.88721  1.0000
  H   H180      1.0  0.31611  0.91859  0.61088  1.0000
  C   C186      1.0  0.29616  0.98631  0.61683  1.0000
  C   C187      1.0  0.06122  0.99080  0.74761  1.0000
  C   C188      1.0  0.00218  0.68150  0.59679  1.0000
  H   H181      1.0  0.01588  0.51880  0.83596  1.0000
  C   C189      1.0  0.32059  0.56531  0.58085  1.0000
  H   H182      1.0  0.15101  0.92957  0.98730  1.0000
  H   H183      1.0  0.00041  0.79595  0.76663  1.0000
  S   S64       1.0  0.03673  0.98960  0.73447  1.0000
  H   H184      1.0  0.03771  0.52788  0.81256  1.0000
  C   C190      1.0  0.01354  0.96995  0.49200  1.0000
  H   H185      1.0  0.21631  0.51381  0.76769  1.0000
  H   H186      1.0  0.29996  0.98428  0.64480  1.0000
  C   C191      1.0  0.99935  0.51330  0.53583  1.0000
  Fe  Fe32      1.0  0.99692  0.54921  0.63049  1.0000
  H   H187      1.0  0.99279  0.50349  0.76997  1.0000
  H   H188      1.0  0.30826  0.95404  0.53652  1.0000
  H   H189      1.0  0.32386  0.53688  0.62972  1.0000
  H   H190      1.0  0.19155  0.49303  0.91469  1.0000
  C   C192      1.0  0.28561  0.99134  0.54577  1.0000
  Fe  Fe33      1.0  0.49172  0.38004  0.18610  1.0000
  S   S65       1.0  0.46957  0.41956  0.16742  1.0000
  S   S66       1.0  0.48182  0.32330  0.18655  1.0000
  Fe  Fe34      1.0  0.52021  0.43825  0.20147  1.0000
  C   C193      1.0  0.50538  0.99886  0.04277  1.0000
  Fe  Fe35      1.0  0.47742  0.45325  0.21354  1.0000
  C   C194      1.0  0.35809  0.05306  0.34384  1.0000
  Fe  Fe36      1.0  0.49331  0.44438  0.13706  1.0000
  H   H191      1.0  0.65634  0.43918  0.25216  1.0000
  S   S67       1.0  0.49801  0.41222  0.23462  1.0000
  S   S68       1.0  0.51509  0.40324  0.15379  1.0000
  Fe  Fe37      1.0  0.51749  0.04163  0.21446  1.0000
  S   S69       1.0  0.49582  0.08435  0.22769  1.0000
  C   C195      1.0  0.36171  0.43827  0.32160  1.0000
  Fe  Fe38      1.0  0.50433  0.03811  0.13621  1.0000
  S   S70       1.0  0.48216  0.08087  0.14362  1.0000
  C   C196      1.0  0.62927  0.44925  0.22655  1.0000
  Fe  Fe39      1.0  0.50413  0.10914  0.17574  1.0000
  S   S71       1.0  0.51417  0.16573  0.17108  1.0000
  Fe  Fe40      1.0  0.47499  0.05366  0.19538  1.0000
  H   H192      1.0  0.43482  0.00350  0.14481  1.0000
  S   S72       1.0  0.52701  0.06786  0.16456  1.0000
  S   S73       1.0  0.44296  0.04803  0.20611  1.0000
  N   N18       1.0  0.37372  0.47067  0.37106  1.0000
  C   C197      1.0  0.35197  0.03573  0.37414  1.0000
  S   S74       1.0  0.54904  0.44220  0.23041  1.0000
  S   S75       1.0  0.49592  0.00947  0.18599  1.0000
  C   C198      1.0  0.48146  0.47722  0.00934  1.0000
  H   H193      1.0  0.47042  0.02426  0.09383  1.0000
  H   H194      1.0  0.64640  0.44470  0.47017  1.0000
  C   C199      1.0  0.57217  0.00191  0.22870  1.0000
  S   S76       1.0  0.48428  0.45387  0.07875  1.0000
  H   H195      1.0  0.53848  0.10789  0.32524  1.0000
  C   C200      1.0  0.52586  0.44327  0.31802  1.0000
  C   C201      1.0  0.53179  0.10726  0.29843  1.0000
  C   C202      1.0  0.42847  0.02215  0.23409  1.0000
  C   C203      1.0  0.49142  0.27970  0.18404  1.0000
  C   C204      1.0  0.47892  0.25185  0.18587  1.0000
  C   C205      1.0  0.48555  0.21698  0.18245  1.0000
  C   C206      1.0  0.50486  0.20926  0.17680  1.0000
  C   C207      1.0  0.51736  0.23712  0.17488  1.0000
  C   C208      1.0  0.51076  0.27199  0.17864  1.0000
  H   H196      1.0  0.46393  0.25726  0.18999  1.0000
  H   H197      1.0  0.47567  0.19609  0.18394  1.0000
  H   H198      1.0  0.53233  0.23171  0.17049  1.0000
  H   H199      1.0  0.52061  0.29290  0.17703  1.0000
  C   C209      1.0  0.49502  0.35520  0.08190  1.0000
  H   H200      1.0  0.38159  0.06052  0.30807  1.0000
  C   C210      1.0  0.51202  0.33590  0.07810  1.0000
  C   C211      1.0  0.49577  0.28466  0.09618  1.0000
  H   H201      1.0  0.46311  0.38812  0.09282  1.0000
  H   H202      1.0  0.49492  0.38280  0.07638  1.0000
  C   C212      1.0  0.50682  0.48891  0.28845  1.0000
  H   H203      1.0  0.33879  0.40433  0.33354  1.0000
  C   C213      1.0  0.34839  0.43126  0.38025  1.0000
  H   H204      1.0  0.46644  0.29270  0.11004  1.0000
  C   C214      1.0  0.49362  0.02339  0.02544  1.0000
  C   C215      1.0  0.36108  0.45540  0.39336  1.0000
  S   S77       1.0  0.49996  0.48092  0.18255  1.0000
  H   H205      1.0  0.48838  0.04602  0.03978  1.0000
  C   C216      1.0  0.47907  0.30481  0.10003  1.0000
  H   H206      1.0  0.49533  0.47099  0.28600  1.0000
  H   H207      1.0  0.49597  0.25727  0.10290  1.0000
  C   C217      1.0  0.51237  0.30042  0.08544  1.0000
  C   C218      1.0  0.57942  0.46811  0.26735  1.0000
  H   H208      1.0  0.46853  0.46278  0.00859  1.0000
  H   H209      1.0  0.46102  0.99309  0.06319  1.0000
  C   C219      1.0  0.64739  0.45793  0.23795  1.0000
  S   S78       1.0  0.53698  0.02006  0.25922  1.0000
  N   N19       1.0  0.54623  0.10818  0.27038  1.0000
  C   C220      1.0  0.54264  0.12631  0.23967  1.0000
  C   C221      1.0  0.56279  0.08910  0.27424  1.0000
  C   C222      1.0  0.55585  0.12578  0.21187  1.0000
  C   C223      1.0  0.57628  0.08785  0.24693  1.0000
  C   C224      1.0  0.57272  0.10625  0.21551  1.0000
  H   H210      1.0  0.42633  0.47598  0.20667  1.0000
  H   H211      1.0  0.52938  0.14094  0.23627  1.0000
  H   H212      1.0  0.56529  0.07357  0.29797  1.0000
  H   H213      1.0  0.55273  0.13982  0.18736  1.0000
  H   H214      1.0  0.58912  0.07181  0.24976  1.0000
  H   H215      1.0  0.58286  0.10493  0.19380  1.0000
  H   H216      1.0  0.34832  0.07005  0.32924  1.0000
  H   H217      1.0  0.53698  0.44117  0.33900  1.0000
  C   C225      1.0  0.34872  0.42269  0.34411  1.0000
  H   H218      1.0  0.38391  0.47489  0.31782  1.0000
  H   H219      1.0  0.60361  0.46765  0.20043  1.0000
  H   H220      1.0  0.45618  0.35732  0.12590  1.0000
  H   H221      1.0  0.45134  0.99551  0.26170  1.0000
  H   H222      1.0  0.40242  0.04346  0.21180  1.0000
  C   C226      1.0  0.56945  0.99405  0.29226  1.0000
  H   H223      1.0  0.52485  0.34858  0.06999  1.0000
  H   H224      1.0  0.52552  0.28522  0.08333  1.0000
  H   H225      1.0  0.52373  0.08303  0.29591  1.0000
  H   H226      1.0  0.45012  0.35084  0.07944  1.0000
  H   H227      1.0  0.58062  0.44242  0.27886  1.0000
  H   H228      1.0  0.52160  0.12973  0.29653  1.0000
  C   C227      1.0  0.43610  0.99823  0.25866  1.0000
  C   C228      1.0  0.56495  0.47554  0.24223  1.0000
  H   H229      1.0  0.44514  0.02123  0.08805  1.0000
  C   C229      1.0  0.36454  0.01297  0.39198  1.0000
  C   C230      1.0  0.46119  0.36001  0.09795  1.0000
  H   H230      1.0  0.36051  0.46224  0.42139  1.0000
  C   C231      1.0  0.45876  0.00601  0.08941  1.0000
  H   H231      1.0  0.33818  0.41978  0.39799  1.0000
  S   S79       1.0  0.45902  0.48250  0.25536  1.0000
  C   C232      1.0  0.49224  0.47770  0.04102  1.0000
  C   C233      1.0  0.65339  0.46480  0.48491  1.0000
  N   N20       1.0  0.47888  0.33962  0.09307  1.0000
  N   N21       1.0  0.52340  0.47895  0.30500  1.0000
  C   C234      1.0  0.37414  0.46240  0.33561  1.0000
  N   N22       1.0  0.38279  0.00800  0.38024  1.0000
  C   C235      1.0  0.42156  0.48963  0.23036  1.0000
  H   H232      1.0  0.36200  0.43226  0.29336  1.0000
  C   C236      1.0  0.61789  0.47386  0.20873  1.0000
  C   C237      1.0  0.38899  0.02528  0.35086  1.0000
  H   H233      1.0  0.40329  0.02054  0.34094  1.0000
  C   C238      1.0  0.40855  0.02515  0.23071  1.0000
  C   C239      1.0  0.37674  0.04787  0.33207  1.0000
  H   H234      1.0  0.33742  0.03911  0.38332  1.0000
  H   H235      1.0  0.62394  0.42368  0.23192  1.0000
  H   H236      1.0  0.35948  0.99891  0.41490  1.0000
  C   C240      1.0  0.56107  0.00408  0.25956  1.0000
  S   S80       1.0  0.51169  0.00242  0.08872  1.0000
  H   H237      1.0  0.51242  0.43392  0.32952  1.0000
  H   H238      1.0  0.53012  0.42593  0.29555  1.0000
  C   C241      1.0  0.32853  0.99333  0.46808  1.0000
  H   H239      1.0  0.60336  0.48733  0.29714  1.0000
  H   H240      1.0  0.65593  0.04466  0.47697  1.0000
  H   H241      1.0  0.56603  0.00958  0.20334  1.0000
  C   C242      1.0  0.39643  0.00459  0.25138  1.0000
  H   H242      1.0  0.38119  0.00726  0.24828  1.0000
  H   H243      1.0  0.56107  0.99564  0.31638  1.0000
  H   H244      1.0  0.40981  0.99357  0.40188  1.0000
  C   C243      1.0  0.65385  0.49128  0.23141  1.0000
  Fe  Fe41      1.0  0.63916  0.44723  0.70273  1.0000
  S   S81       1.0  0.63308  0.42720  0.64770  1.0000
  C   C244      1.0  0.56358  0.03689  0.84328  1.0000
  S   S82       1.0  0.65242  0.39672  0.72123  1.0000
  H   H245      1.0  0.41768  0.06520  0.77605  1.0000
  C   C245      1.0  0.39403  0.08765  0.80469  1.0000
  S   S83       1.0  0.63454  0.32457  0.66279  1.0000
  C   C246      1.0  0.60503  0.03078  0.61648  1.0000
  Fe  Fe42      1.0  0.34114  0.04488  0.63308  1.0000
  N   N23       1.0  0.48202  0.47056  0.73147  1.0000
  N   N24       1.0  0.39977  0.09638  0.74227  1.0000
  H   H246      1.0  0.61650  0.00152  0.75411  1.0000
  H   H247      1.0  0.48436  0.42972  0.81116  1.0000
  C   C247      1.0  0.64541  0.28289  0.65599  1.0000
  C   C248      1.0  0.64354  0.21963  0.66106  1.0000
  Fe  Fe43      1.0  0.63759  0.06760  0.69406  1.0000
  S   S84       1.0  0.60608  0.06221  0.70941  1.0000
  S   S85       1.0  0.64301  0.08442  0.63713  1.0000
  H   H248      1.0  0.36827  0.11153  0.82532  1.0000
  Fe  Fe44      1.0  0.35486  0.43881  0.68612  1.0000
  S   S86       1.0  0.35200  0.41665  0.63040  1.0000
  C   C249      1.0  0.41186  0.47182  0.78927  1.0000
  H   H249      1.0  0.37908  0.12747  0.71431  1.0000
  C   C250      1.0  0.54789  0.05825  0.83493  1.0000
  Fe  Fe45      1.0  0.33679  0.37227  0.65586  1.0000
  H   H250      1.0  0.33212  0.25021  0.60233  1.0000
  C   C251      1.0  0.38352  0.11652  0.73971  1.0000
  S   S87       1.0  0.34175  0.39182  0.71164  1.0000
  Fe  Fe46      1.0  0.35481  0.04043  0.71122  1.0000
  S   S88       1.0  0.36316  0.07344  0.66497  1.0000
  S   S89       1.0  0.37537  0.01931  0.75438  1.0000
  C   C252      1.0  0.33610  0.24654  0.62996  1.0000
  C   C253      1.0  0.37733  0.10787  0.80221  1.0000
  H   H251      1.0  0.50336  0.46658  0.77173  1.0000
  H   H252      1.0  0.45804  0.47165  0.69647  1.0000
  S   S90       1.0  0.38206  0.47024  0.69467  1.0000
  H   H253      1.0  0.35086  0.23292  0.72835  1.0000
  C   C254      1.0  0.45338  0.43989  0.74224  1.0000
  H   H254      1.0  0.56587  0.05689  0.72044  1.0000
  H   H255      1.0  0.34972  0.46832  0.55303  1.0000
  H   H256      1.0  0.47953  0.03788  0.97623  1.0000
  C   C255      1.0  0.34004  0.27564  0.65111  1.0000
  C   C256      1.0  0.39857  0.47981  0.72953  1.0000
  Fe  Fe47      1.0  0.64832  0.37741  0.66541  1.0000
  S   S91       1.0  0.33409  0.01007  0.67912  1.0000
  C   C257      1.0  0.56205  0.01197  0.87011  1.0000
  H   H257      1.0  0.65279  0.24868  0.74319  1.0000
  H   H258      1.0  0.65404  0.31242  0.73709  1.0000
  C   C258      1.0  0.56275  0.48816  0.72701  1.0000
  S   S92       1.0  0.34395  0.16565  0.69967  1.0000
  H   H259      1.0  0.64327  0.43315  0.78915  1.0000
  H   H260      1.0  0.54874  0.99442  0.94268  1.0000
  C   C259      1.0  0.39885  0.00033  0.75383  1.0000
  C   C260      1.0  0.61566  0.02582  0.55553  1.0000
  C   C261      1.0  0.46066  0.42831  0.77485  1.0000
  C   C262      1.0  0.34532  0.27048  0.68670  1.0000
  C   C263      1.0  0.48937  0.45892  0.76317  1.0000
  C   C264      1.0  0.34667  0.23659  0.70083  1.0000
  H   H261      1.0  0.43905  0.43361  0.73436  1.0000
  C   C265      1.0  0.64785  0.45070  0.81079  1.0000
  H   H262      1.0  0.34846  0.29257  0.70325  1.0000
  C   C266      1.0  0.39816  0.46393  0.76305  1.0000
  S   S93       1.0  0.65784  0.10618  0.71752  1.0000
  H   H263      1.0  0.38733  0.44544  0.76877  1.0000
  C   C267      1.0  0.53108  0.05517  0.85412  1.0000
  H   H264      1.0  0.45198  0.41313  0.79247  1.0000
  H   H265      1.0  0.60139  0.07135  0.57720  1.0000
  C   C268      1.0  0.46421  0.46155  0.72098  1.0000
  C   C269      1.0  0.59266  0.03220  0.73477  1.0000
  H   H266      1.0  0.35900  0.13803  0.76713  1.0000
  C   C270      1.0  0.34253  0.20751  0.67978  1.0000
  H   H267      1.0  0.40405  0.06532  0.69648  1.0000
  N   N25       1.0  0.54542  0.00873  0.88840  1.0000
  H   H268      1.0  0.39796  0.07513  0.82960  1.0000
  H   H269      1.0  0.64806  0.43631  0.83640  1.0000
  C   C271      1.0  0.40517  0.08218  0.77426  1.0000
  H   H270      1.0  0.54611  0.01619  0.75477  1.0000
  Fe  Fe48      1.0  0.33895  0.10985  0.68119  1.0000
  C   C272      1.0  0.33721  0.21268  0.64422  1.0000
  C   C273      1.0  0.60673  0.04517  0.58245  1.0000
  S   S94       1.0  0.34974  0.01403  0.58280  1.0000
  C   C274      1.0  0.56141  0.01280  0.75466  1.0000
  H   H271      1.0  0.51874  0.07149  0.84781  1.0000
  H   H272      1.0  0.62096  0.25622  0.67506  1.0000
  C   C275      1.0  0.34085  0.48165  0.53355  1.0000
  S   S95       1.0  0.33780  0.31763  0.63177  1.0000
  H   H273      1.0  0.55242  0.47977  0.70774  1.0000
  H   H274      1.0  0.41138  0.45913  0.81494  1.0000
  H   H275      1.0  0.63560  0.19709  0.66817  1.0000
  C   C276      1.0  0.47878  0.43777  0.78541  1.0000
  H   H276      1.0  0.57662  0.03866  0.82812  1.0000
  H   H277      1.0  0.54875  0.07682  0.81333  1.0000
  H   H278      1.0  0.61735  0.03673  0.52910  1.0000
  H   H279      1.0  0.58661  0.46431  0.69874  1.0000
  C   C277      1.0  0.48869  0.01877  0.98926  1.0000
  C   C278      1.0  0.37209  0.12265  0.76961  1.0000
  C   C279      1.0  0.41058  0.08771  0.70996  1.0000
  C   C280      1.0  0.63528  0.25320  0.66492  1.0000
  C   C281      1.0  0.34148  0.00761  0.53838  1.0000
  H   H280      1.0  0.51705  0.02820  0.89609  1.0000
  H   H281      1.0  0.41055  0.11001  0.69123  1.0000
  C   C282      1.0  0.57269  0.03592  0.73525  1.0000
  H   H282      1.0  0.33406  0.19063  0.62764  1.0000
  H   H283      1.0  0.42560  0.08047  0.71626  1.0000
  C   C283      1.0  0.65674  0.46041  0.52183  1.0000
  C   C284      1.0  0.40879  0.99348  0.72222  1.0000
  C   C285      1.0  0.60120  0.00484  0.75402  1.0000
  C   C286      1.0  0.32679  0.02788  0.52318  1.0000
  C   C287      1.0  0.53016  0.03040  0.88125  1.0000
  H   H284      1.0  0.63698  0.47209  0.81317  1.0000
  H   H285      1.0  0.61152  0.47140  0.59037  1.0000
  H   H286      1.0  0.40198  0.99866  0.69684  1.0000
  S   S96       1.0  0.33152  0.07787  0.72926  1.0000
  C   C288      1.0  0.59585  0.49031  0.74614  1.0000
  H   H287      1.0  0.59820  0.04609  0.63737  1.0000
  H   H288      1.0  0.50803  0.48436  0.70738  1.0000
  H   H289      1.0  0.57408  0.99452  0.87536  1.0000
  H   H290      1.0  0.40050  0.99796  0.81118  1.0000
  N   N26       1.0  0.61217  0.99813  0.62355  1.0000
  H   H291      1.0  0.62135  0.99597  0.67728  1.0000
  H   H292      1.0  0.65230  0.43716  0.53516  1.0000
  S   S97       1.0  0.32674  0.46863  0.68311  1.0000
  H   H293      1.0  0.60843  0.47162  0.52464  1.0000
  C   C289      1.0  0.58220  0.47934  0.72177  1.0000
  S   S98       1.0  0.62079  0.48139  0.74038  1.0000
  C   C290      1.0  0.40802  0.99295  0.78650  1.0000
  C   C291      1.0  0.62283  0.99253  0.56296  1.0000
  H   H294      1.0  0.36393  0.49077  0.49729  1.0000
  H   H295      1.0  0.64962  0.55600  0.17929  1.0000
  C   C292      1.0  0.33041  0.51390  0.21759  1.0000
  H   H296      1.0  0.32620  0.73359  0.27131  1.0000
  S   S99       1.0  0.34496  0.89251  0.29804  1.0000
  S   S100      1.0  0.35436  0.82059  0.36843  1.0000
  Fe  Fe49      1.0  0.35900  0.94009  0.31899  1.0000
  H   H297      1.0  0.48487  0.91107  0.14766  1.0000
  S   S101      1.0  0.35810  0.92102  0.37582  1.0000
  C   C293      1.0  0.64675  0.77935  0.35767  1.0000
  S   S102      1.0  0.63638  0.82192  0.36181  1.0000
  C   C294      1.0  0.34394  0.79399  0.27242  1.0000
  H   H298      1.0  0.43011  0.95928  0.29814  1.0000
  S   S103      1.0  0.34883  0.53018  0.43837  1.0000
  Fe  Fe50      1.0  0.35096  0.55530  0.30921  1.0000
  S   S104      1.0  0.37116  0.53159  0.26679  1.0000
  S   S105      1.0  0.35522  0.59005  0.35682  1.0000
  H   H299      1.0  0.57131  0.88583  0.32711  1.0000
  H   H300      1.0  0.61953  0.86752  0.20182  1.0000
  C   C295      1.0  0.57670  0.53424  0.23786  1.0000
  C   C296      1.0  0.64257  0.71631  0.35665  1.0000
  H   H301      1.0  0.37964  0.52365  0.37797  1.0000
  H   H302      1.0  0.37046  0.75149  0.36472  1.0000
  S   S106      1.0  0.33085  0.96968  0.32376  1.0000
  Fe  Fe51      1.0  0.63431  0.56152  0.30934  1.0000
  S   S107      1.0  0.60767  0.55962  0.27346  1.0000
  S   S108      1.0  0.63604  0.58360  0.36519  1.0000
  C   C297      1.0  0.33206  0.54854  0.20783  1.0000
  C   C298      1.0  0.53607  0.53509  0.29388  1.0000
  N   N27       1.0  0.45881  0.98033  0.11816  1.0000
  H   H303      1.0  0.63334  0.89673  0.22841  1.0000
  C   C299      1.0  0.47272  0.95484  0.11896  1.0000
  Fe  Fe52      1.0  0.64264  0.93989  0.30822  1.0000
  S   S109      1.0  0.62362  0.96300  0.26351  1.0000
  S   S110      1.0  0.63242  0.92299  0.36185  1.0000
  H   H304      1.0  0.34971  0.95201  0.46817  1.0000
  C   C300      1.0  0.59966  0.97967  0.26327  1.0000
  C   C301      1.0  0.61198  0.85698  0.28690  1.0000
  C   C302      1.0  0.42791  0.51395  0.28828  1.0000
  C   C303      1.0  0.59793  0.86059  0.31306  1.0000
  H   H305      1.0  0.35666  0.69393  0.35296  1.0000
  H   H306      1.0  0.35185  0.77058  0.28242  1.0000
  H   H307      1.0  0.59380  0.91075  0.22444  1.0000
  Fe  Fe53      1.0  0.34264  0.87489  0.35471  1.0000
  H   H308      1.0  0.39256  0.49579  0.21212  1.0000
  H   H309      1.0  0.62433  0.84034  0.29227  1.0000
  C   C304      1.0  0.40871  0.52531  0.29148  1.0000
  C   C305      1.0  0.59115  0.52683  0.26299  1.0000
  H   H310      1.0  0.39009  0.97479  0.42431  1.0000
  C   C306      1.0  0.58211  0.88230  0.30676  1.0000
  C   C307      1.0  0.62550  0.87211  0.22875  1.0000
  H   H311      1.0  0.61977  0.75468  0.36168  1.0000
  C   C308      1.0  0.51920  0.54541  0.27686  1.0000
  C   C309      1.0  0.32791  0.71404  0.34998  1.0000
  C   C310      1.0  0.58042  0.89990  0.27439  1.0000
  H   H312      1.0  0.34746  0.81534  0.29101  1.0000
  H   H313      1.0  0.59470  0.97422  0.31950  1.0000
  C   C311      1.0  0.64905  0.55060  0.20830  1.0000
  C   C312      1.0  0.53797  0.50149  0.30770  1.0000
  H   H314      1.0  0.56840  0.91750  0.26946  1.0000
  C   C313      1.0  0.46001  0.93283  0.17388  1.0000
  H   H315      1.0  0.54782  0.55262  0.29551  1.0000
  H   H316      1.0  0.57563  0.55981  0.22605  1.0000
  C   C314      1.0  0.63493  0.75054  0.35880  1.0000
  H   H317      1.0  0.40400  0.53931  0.31498  1.0000
  N   N28       1.0  0.61030  0.87458  0.25535  1.0000
  S   S111      1.0  0.33343  0.51754  0.33931  1.0000
  H   H318      1.0  0.55268  0.51510  0.20825  1.0000
  C   C315      1.0  0.43452  0.49606  0.25771  1.0000
  S   S112      1.0  0.65447  0.51671  0.32012  1.0000
  H   H319      1.0  0.59967  0.98821  0.20647  1.0000
  N   N29       1.0  0.64244  0.51545  0.21450  1.0000
  C   C316      1.0  0.59479  0.89583  0.24891  1.0000
  Fe  Fe54      1.0  0.65729  0.53952  0.37564  1.0000
  H   H320      1.0  0.51741  0.49722  0.06544  1.0000
  H   H321      1.0  0.43778  0.51929  0.30957  1.0000
  C   C317      1.0  0.33759  0.51230  0.47638  1.0000
  C   C318      1.0  0.47359  0.93080  0.14686  1.0000
  Fe  Fe55      1.0  0.32952  0.94784  0.37984  1.0000
  Fe  Fe56      1.0  0.33642  0.55304  0.38647  1.0000
  H   H322      1.0  0.51764  0.57116  0.26545  1.0000
  C   C319      1.0  0.59233  0.49358  0.27788  1.0000
  H   H323      1.0  0.63331  0.69449  0.35791  1.0000
  H   H324      1.0  0.34901  0.80050  0.24533  1.0000
  C   C320      1.0  0.39576  0.51887  0.26408  1.0000
  C   C321      1.0  0.58857  0.98197  0.29416  1.0000
  H   H325      1.0  0.49126  0.52974  0.26079  1.0000
  S   S113      1.0  0.65783  0.59502  0.28977  1.0000
  H   H326      1.0  0.48339  0.95328  0.09816  1.0000
  C   C322      1.0  0.56366  0.50889  0.22762  1.0000
  C   C323      1.0  0.34366  0.77987  0.36238  1.0000
  H   H327      1.0  0.59954  0.84699  0.33827  1.0000
  C   C324      1.0  0.39557  0.98264  0.39783  1.0000
  S   S114      1.0  0.38961  0.95436  0.30352  1.0000
  C   C325      1.0  0.59130  0.98985  0.23060  1.0000
  H   H328      1.0  0.50335  0.59229  0.99871  1.0000
  C   C326      1.0  0.35527  0.74955  0.36125  1.0000
  Fe  Fe57      1.0  0.32769  0.61773  0.34105  1.0000
  C   C327      1.0  0.51227  0.96993  0.02324  1.0000
  C   C328      1.0  0.34749  0.71683  0.35482  1.0000
  C   C329      1.0  0.34333  0.97328  0.48317  1.0000
  Fe  Fe58      1.0  0.65036  0.87406  0.35290  1.0000
  C   C330      1.0  0.42398  0.97765  0.27929  1.0000
  C   C331      1.0  0.50444  0.52223  0.27417  1.0000
  H   H329      1.0  0.52138  0.95075  0.03629  1.0000
  C   C332      1.0  0.44582  0.95876  0.17271  1.0000
  H   H330      1.0  0.63586  0.85058  0.23475  1.0000
  H   H331      1.0  0.61545  0.52662  0.19072  1.0000
  H   H332      1.0  0.46056  0.91460  0.19589  1.0000
  C   C333      1.0  0.50891  0.49657  0.04144  1.0000
  C   C334      1.0  0.40236  0.50097  0.23356  1.0000
  H   H333      1.0  0.34307  0.49795  0.22272  1.0000
  H   H334      1.0  0.63920  0.56982  0.22126  1.0000
  C   C335      1.0  0.40407  0.98055  0.27580  1.0000
  H   H335      1.0  0.61978  0.52169  0.48984  1.0000
  C   C336      1.0  0.62468  0.50714  0.20319  1.0000
  C   C337      1.0  0.51470  0.51440  0.01056  1.0000
  H   H336      1.0  0.34603  0.55954  0.20569  1.0000
  H   H337      1.0  0.52771  0.52859  0.01121  1.0000
  C   C338      1.0  0.44555  0.98271  0.14473  1.0000
  H   H338      1.0  0.38774  0.49626  0.41390  1.0000
  H   H339      1.0  0.43525  0.96075  0.19366  1.0000
  H   H340      1.0  0.40040  0.49538  0.37229  1.0000
  S   S115      1.0  0.65292  0.49988  0.42077  1.0000
  H   H341      1.0  0.39708  0.95901  0.38092  1.0000
  C   C339      1.0  0.38605  0.49773  0.38447  1.0000
  H   H342      1.0  0.46767  0.59546  0.99223  1.0000
  H   H343      1.0  0.55136  0.49333  0.31980  1.0000
  Fe  Fe59      1.0  0.47048  0.53515  0.82479  1.0000
  C   C340      1.0  0.42615  0.49582  0.78264  1.0000
  C   C341      1.0  0.49307  0.49416  0.70969  1.0000
  Fe  Fe60      1.0  0.48929  0.60686  0.83364  1.0000
  S   S116      1.0  0.51752  0.58201  0.84931  1.0000
  S   S117      1.0  0.47955  0.66493  0.83499  1.0000
  Fe  Fe61      1.0  0.51268  0.54311  0.80522  1.0000
  C   C342      1.0  0.32962  0.57676  0.55015  1.0000
  Fe  Fe62      1.0  0.50050  0.54629  0.88413  1.0000
  S   S118      1.0  0.51201  0.53713  0.94093  1.0000
  S   S119      1.0  0.48535  0.57036  0.78686  1.0000
  S   S120      1.0  0.47259  0.57288  0.87063  1.0000
  Fe  Fe63      1.0  0.52556  0.94513  0.81492  1.0000
  S   S121      1.0  0.50753  0.90760  0.78506  1.0000
  H   H344      1.0  0.35599  0.57775  0.52133  1.0000
  Fe  Fe64      1.0  0.49642  0.95034  0.87649  1.0000
  S   S122      1.0  0.47654  0.91232  0.85076  1.0000
  S   S123      1.0  0.50063  0.98135  0.82610  1.0000
  Fe  Fe65      1.0  0.50300  0.88009  0.83721  1.0000
  S   S124      1.0  0.51007  0.82097  0.83688  1.0000
  Fe  Fe66      1.0  0.48211  0.94180  0.80014  1.0000
  H   H345      1.0  0.47581  0.64234  0.91073  1.0000
  S   S125      1.0  0.52236  0.91618  0.86680  1.0000
  H   H346      1.0  0.47323  0.56907  0.95374  1.0000
  H   H347      1.0  0.64066  0.51158  0.63844  1.0000
  N   N30       1.0  0.62372  0.52133  0.59271  1.0000
  C   C343      1.0  0.48814  0.63850  0.92785  1.0000
  C   C344      1.0  0.54423  0.98300  0.91697  1.0000
  H   H348      1.0  0.44362  0.80611  0.76171  1.0000
  C   C345      1.0  0.33118  0.54728  0.60684  1.0000
  H   H349      1.0  0.48897  0.72970  0.75477  1.0000
  S   S126      1.0  0.53177  0.51870  0.76130  1.0000
  H   H350      1.0  0.41340  0.51636  0.69716  1.0000
  H   H351      1.0  0.47876  0.49427  0.95445  1.0000
  C   C346      1.0  0.61408  0.49384  0.53834  1.0000
  H   H352      1.0  0.59632  0.99003  0.67093  1.0000
  H   H353      1.0  0.61580  0.50323  0.64451  1.0000
  C   C347      1.0  0.58967  0.50984  0.77594  1.0000
  C   C348      1.0  0.52026  0.62803  0.96969  1.0000
  C   C349      1.0  0.48854  0.70799  0.83661  1.0000
  C   C350      1.0  0.47573  0.73635  0.84176  1.0000
  C   C351      1.0  0.48200  0.77091  0.84260  1.0000
  C   C352      1.0  0.50127  0.77777  0.83830  1.0000
  C   C353      1.0  0.51410  0.74938  0.83351  1.0000
  C   C354      1.0  0.50784  0.71483  0.83263  1.0000
  H   H354      1.0  0.46078  0.73158  0.84502  1.0000
  H   H355      1.0  0.47189  0.79224  0.84637  1.0000
  H   H356      1.0  0.52904  0.75418  0.83009  1.0000
  H   H357      1.0  0.51794  0.69355  0.82854  1.0000
  H   H358      1.0  0.55321  0.95954  0.91093  1.0000
  S   S127      1.0  0.55670  0.95689  0.80135  1.0000
  N   N31       1.0  0.48771  0.61627  0.95624  1.0000
  C   C355      1.0  0.36080  0.52019  0.62888  1.0000
  H   H359      1.0  0.59676  0.96109  0.78868  1.0000
  C   C356      1.0  0.43674  0.97210  0.75604  1.0000
  H   H360      1.0  0.63745  0.56953  0.58711  1.0000
  H   H361      1.0  0.61290  0.95547  0.66024  1.0000
  C   C357      1.0  0.50346  0.61104  0.97715  1.0000
  H   H362      1.0  0.46543  0.87094  0.78611  1.0000
  H   H363      1.0  0.32982  0.95532  0.62468  1.0000
  N   N32       1.0  0.35025  0.54110  0.60248  1.0000
  C   C358      1.0  0.48401  0.75662  0.75411  1.0000
  H   H364      1.0  0.36115  0.96461  0.52942  1.0000
  N   N33       1.0  0.47144  0.82566  0.75566  1.0000
  C   C359      1.0  0.49043  0.81770  0.75305  1.0000
  C   C360      1.0  0.49699  0.78313  0.75195  1.0000
  C   C361      1.0  0.46492  0.86204  0.75800  1.0000
  H   H365      1.0  0.50072  0.83806  0.75287  1.0000
  H   H366      1.0  0.51212  0.77703  0.75119  1.0000
  H   H367      1.0  0.47396  0.87907  0.74170  1.0000
  H   H368      1.0  0.45016  0.86592  0.74794  1.0000
  C   C362      1.0  0.47077  0.59615  0.96323  1.0000
  H   H369      1.0  0.45803  0.60725  0.94938  1.0000
  H   H370      1.0  0.53381  0.66373  0.93434  1.0000
  C   C363      1.0  0.45861  0.79982  0.75832  1.0000
  H   H371      1.0  0.43358  0.97356  0.81303  1.0000
  C   C364      1.0  0.46468  0.76493  0.75739  1.0000
  C   C365      1.0  0.61596  0.49383  0.57549  1.0000
  S   S128      1.0  0.44375  0.50282  0.81627  1.0000
  H   H372      1.0  0.45458  0.74444  0.76033  1.0000
  H   H373      1.0  0.56578  0.53338  0.80440  1.0000
  S   S129      1.0  0.46037  0.95374  0.75561  1.0000
  C   C366      1.0  0.57020  0.51829  0.78140  1.0000
  H   H374      1.0  0.62772  0.95401  0.60332  1.0000
  C   C367      1.0  0.49553  0.98979  0.96975  1.0000
  H   H375      1.0  0.60001  0.51864  0.79499  1.0000
  C   C368      1.0  0.62132  0.97928  0.59749  1.0000
  H   H376      1.0  0.63004  0.97748  0.54232  1.0000
  C   C369      1.0  0.55656  0.50769  0.75683  1.0000
  C   C370      1.0  0.42683  0.97913  0.78766  1.0000
  H   H377      1.0  0.51269  0.94281  0.97261  1.0000
  H   H378      1.0  0.53288  0.62277  0.98560  1.0000
  H   H379      1.0  0.43732  0.53041  0.74354  1.0000
  H   H380      1.0  0.33198  0.93986  0.58035  1.0000
  C   C371      1.0  0.62043  0.52197  0.51879  1.0000
  C   C372      1.0  0.42650  0.51191  0.74920  1.0000
  H   H381      1.0  0.62348  0.54696  0.64314  1.0000
  H   H382      1.0  0.50498  0.67343  0.89711  1.0000
  C   C373      1.0  0.52081  0.65074  0.94083  1.0000
  C   C374      1.0  0.50465  0.65617  0.91986  1.0000
  S   S130      1.0  0.49749  0.50622  0.84111  1.0000
  C   C375      1.0  0.58992  0.98188  0.77363  1.0000
  H   H383      1.0  0.63438  0.57078  0.52134  1.0000
  C   C376      1.0  0.50396  0.51373  0.97885  1.0000
  C   C377      1.0  0.41289  0.50381  0.72288  1.0000
  H   H384      1.0  0.65504  0.50542  0.77018  1.0000
  C   C378      1.0  0.63036  0.54866  0.57366  1.0000
  C   C379      1.0  0.62601  0.52072  0.63158  1.0000
  C   C380      1.0  0.61065  0.98408  0.65968  1.0000
  C   C381      1.0  0.50742  0.96540  0.98700  1.0000
  C   C382      1.0  0.35919  0.55203  0.57233  1.0000
  H   H385      1.0  0.37414  0.54589  0.56819  1.0000
  H   H386      1.0  0.37604  0.52675  0.62985  1.0000
  C   C383      1.0  0.34975  0.98046  0.51801  1.0000
  C   C384      1.0  0.56995  0.98561  0.77416  1.0000
  C   C385      1.0  0.42755  0.97939  0.72337  1.0000
  H   H387      1.0  0.35508  0.52442  0.65620  1.0000
  H   H388      1.0  0.43498  0.97395  0.69869  1.0000
  C   C386      1.0  0.62864  0.54957  0.53650  1.0000
  H   H389      1.0  0.48723  0.49709  0.68234  1.0000
  H   H390      1.0  0.52947  0.97409  0.91994  1.0000
  C   C387      1.0  0.34904  0.57016  0.54580  1.0000
  C   C388      1.0  0.48722  0.49513  0.97851  1.0000
  H   H391      1.0  0.49322  0.52013  0.72256  1.0000
  S   S131      1.0  0.48869  0.98563  0.92414  1.0000
  H   H392      1.0  0.35979  0.49224  0.62231  1.0000
  C   C389      1.0  0.34885  0.49440  0.50184  1.0000
  C   C390      1.0  0.95155  0.15466  0.29959  1.0000
  Fe  Fe67      1.0  0.97907  0.04292  0.30912  1.0000
  H   H393      1.0  0.86387  0.40006  0.24309  1.0000
  C   C391      1.0  0.93357  0.11051  0.38127  1.0000
  N   N34       1.0  0.94182  0.13024  0.32268  1.0000
  S   S132      1.0  0.84365  0.99470  0.09216  1.0000
  H   H394      1.0  0.80898  0.06942  0.14939  1.0000
  S   S133      1.0  0.97714  0.06698  0.36395  1.0000
  S   S134      1.0  0.98834  0.16493  0.35794  1.0000
  S   S135      1.0  0.97898  0.40137  0.36422  1.0000
  C   C392      1.0  0.80337  0.04852  0.13358  1.0000
  H   H395      1.0  0.93820  0.44492  0.24700  1.0000
  C   C393      1.0  0.82840  0.49072  0.04828  1.0000
  Fe  Fe68      1.0  0.97442  0.44521  0.32453  1.0000
  N   N35       1.0  0.79038  0.99356  0.09326  1.0000
  H   H396      1.0  0.83299  0.43778  0.03069  1.0000
  C   C394      1.0  0.86136  0.47164  0.28429  1.0000
  H   H397      1.0  0.93395  0.09778  0.27932  1.0000
  H   H398      1.0  0.87219  0.43187  0.21162  1.0000
  H   H399      1.0  0.83062  0.48471  0.07615  1.0000
  C   C395      1.0  0.98324  0.23652  0.35888  1.0000
  C   C396      1.0  0.92502  0.07732  0.32950  1.0000
  N   N36       1.0  0.85641  0.45247  0.25518  1.0000
  H   H400      1.0  0.81199  0.48562  0.24113  1.0000
  H   H401      1.0  0.89774  0.99245  0.20641  1.0000
  H   H402      1.0  0.95302  0.18032  0.31270  1.0000
  H   H403      1.0  0.94901  0.15651  0.37072  1.0000
  C   C397      1.0  0.92754  0.46507  0.25216  1.0000
  C   C398      1.0  0.92507  0.08164  0.36640  1.0000
  H   H404      1.0  0.97252  0.23170  0.37872  1.0000
  H   H405      1.0  0.93409  0.11375  0.40998  1.0000
  C   C399      1.0  0.94199  0.13465  0.35888  1.0000
  H   H406      1.0  0.91886  0.05456  0.31761  1.0000
  C   C400      1.0  0.92270  0.00926  0.23487  1.0000
  H   H407      1.0  0.88378  0.42655  0.25375  1.0000
  C   C401      1.0  0.93358  0.10195  0.30793  1.0000
  C   C402      1.0  0.84173  0.02637  0.02645  1.0000
  C   C403      1.0  0.70391  0.99950  0.38784  1.0000
  H   H408      1.0  0.84682  0.04884  0.04039  1.0000
  H   H409      1.0  0.91886  0.06228  0.38343  1.0000
  C   C404      1.0  0.79545  0.02011  0.15030  1.0000
  H   H410      1.0  0.97899  0.29250  0.36122  1.0000
  H   H411      1.0  0.91279  0.45766  0.20230  1.0000
  C   C405      1.0  0.86970  0.42633  0.24030  1.0000
  H   H412      1.0  0.87648  0.46665  0.03587  1.0000
  C   C406      1.0  0.82974  0.46414  0.02237  1.0000
  H   H413      1.0  0.94367  0.15893  0.27425  1.0000
  C   C407      1.0  0.78902  0.99267  0.12961  1.0000
  C   C408      1.0  0.82583  0.48170  0.25352  1.0000
  H   H414      1.0  0.97933  0.02915  0.46760  1.0000
  C   C409      1.0  0.79792  0.02151  0.07660  1.0000
  H   H415      1.0  0.79962  0.02175  0.04786  1.0000
  C   C410      1.0  0.83893  0.45728  0.23973  1.0000
  H   H416      1.0  0.99022  0.36103  0.44473  1.0000
  C   C411      1.0  0.87444  0.48688  0.01607  1.0000
  H   H417      1.0  0.96608  0.14430  0.29351  1.0000
  H   H418      1.0  0.81120  0.07082  0.08321  1.0000
  S   S136      1.0  0.95461  0.03208  0.26979  1.0000
  H   H419      1.0  0.83511  0.44251  0.21632  1.0000
  H   H420      1.0  0.92604  0.02856  0.21512  1.0000
  C   C412      1.0  0.91313  0.47248  0.22678  1.0000
  C   C413      1.0  0.83911  0.99538  0.04543  1.0000
  H   H421      1.0  0.73880  0.99575  0.32536  1.0000
  H   H422      1.0  0.87527  0.46808  0.29640  1.0000
  S   S137      1.0  0.94616  0.47641  0.31705  1.0000
  H   H423      1.0  0.98422  0.01829  0.21911  1.0000
  C   C414      1.0  0.71539  0.01018  0.35991  1.0000
  C   C415      1.0  0.80451  0.04942  0.09647  1.0000
  H   H424      1.0  0.69238  0.01629  0.39749  1.0000
  H   H425      1.0  0.71286  0.03535  0.34766  1.0000
  C   C416      1.0  0.92809  0.48364  0.28417  1.0000
  H   H426      1.0  0.79473  0.01880  0.17918  1.0000
  C   C417      1.0  0.93449  0.00503  0.26506  1.0000
  C   C418      1.0  0.98687  0.27117  0.34900  1.0000
  C   C419      1.0  0.98727  0.01079  0.48398  1.0000
  Fe  Fe69      1.0  0.83099  0.43213  0.89308  1.0000
  Fe  Fe70      1.0  0.66473  0.11985  0.66077  1.0000
  S   S138      1.0  0.83111  0.43715  0.95429  1.0000
  Fe  Fe71      1.0  0.83943  0.37672  0.83615  1.0000
  S   S139      1.0  0.83697  0.41591  0.79148  1.0000
  S   S140      1.0  0.84756  0.32148  0.81804  1.0000
  Fe  Fe72      1.0  0.85396  0.45121  0.82611  1.0000
  C   C420      1.0  0.69902  0.29013  0.71188  1.0000
  Fe  Fe73      1.0  0.81074  0.43594  0.81992  1.0000
  S   S141      1.0  0.78569  0.45667  0.78561  1.0000
  S   S142      1.0  0.85831  0.41085  0.86888  1.0000
  S   S143      1.0  0.81231  0.39500  0.86292  1.0000
  Fe  Fe74      1.0  0.85739  0.06423  0.82277  1.0000
  S   S144      1.0  0.85476  0.07976  0.88080  1.0000
  S   S145      1.0  0.88723  0.05761  0.79792  1.0000
  Fe  Fe75      1.0  0.81362  0.07057  0.81140  1.0000
  S   S146      1.0  0.80845  0.08472  0.86868  1.0000
  S   S147      1.0  0.79135  0.07549  0.76654  1.0000
  Fe  Fe76      1.0  0.83312  0.12026  0.86239  1.0000
  S   S148      1.0  0.82802  0.17461  0.88544  1.0000
  Fe  Fe77      1.0  0.83048  0.04330  0.88257  1.0000
  C   C421      1.0  0.93342  0.00568  0.75516  1.0000
  S   S149      1.0  0.83747  0.10784  0.80467  1.0000
  S   S150      1.0  0.83395  0.02591  0.82505  1.0000
  Fe  Fe78      1.0  0.68069  0.41522  0.70227  1.0000
  S   S151      1.0  0.67722  0.39334  0.64686  1.0000
  S   S152      1.0  0.70471  0.39824  0.74067  1.0000
  Fe  Fe79      1.0  0.68068  0.06432  0.71126  1.0000
  S   S153      1.0  0.70219  0.05036  0.75536  1.0000
  S   S154      1.0  0.68862  0.07959  0.65585  1.0000
  H   H427      1.0  0.87683  0.44528  0.73458  1.0000
  C   C422      1.0  0.98128  0.00383  0.51914  1.0000
  C   C423      1.0  0.66557  0.48629  0.54141  1.0000
  H   H428      1.0  0.87320  0.44931  0.68693  1.0000
  C   C424      1.0  0.66320  0.02541  0.52945  1.0000
  H   H429      1.0  0.87497  0.45141  0.97189  1.0000
  C   C425      1.0  0.76615  0.07220  0.76610  1.0000
  C   C426      1.0  0.75601  0.08282  0.73539  1.0000
  C   C427      1.0  0.73632  0.07760  0.73216  1.0000
  C   C428      1.0  0.72648  0.06154  0.75966  1.0000
  C   C429      1.0  0.73651  0.05179  0.79077  1.0000
  C   C430      1.0  0.75619  0.05718  0.79407  1.0000
  H   H430      1.0  0.76354  0.09443  0.71353  1.0000
  H   H431      1.0  0.72887  0.08522  0.70805  1.0000
  C   C431      1.0  0.66196  0.21536  0.64758  1.0000
  H   H432      1.0  0.76373  0.04875  0.81783  1.0000
  C   C432      1.0  0.87367  0.47845  0.97981  1.0000
  H   H433      1.0  0.90786  0.05473  0.86909  1.0000
  C   C433      1.0  0.66021  0.02204  0.49238  1.0000
  C   C434      1.0  0.90243  0.02351  0.78058  1.0000
  Fe  Fe80      1.0  0.66633  0.04327  0.63659  1.0000
  C   C435      1.0  0.74429  0.00964  0.66662  1.0000
  C   C436      1.0  0.67201  0.24503  0.63829  1.0000
  H   H434      1.0  0.72612  0.45841  0.71641  1.0000
  C   C437      1.0  0.76367  0.43884  0.77222  1.0000
  C   C438      1.0  0.75692  0.40813  0.78665  1.0000
  C   C439      1.0  0.73906  0.39584  0.77610  1.0000
  C   C440      1.0  0.72773  0.41382  0.75078  1.0000
  C   C441      1.0  0.73459  0.44426  0.73593  1.0000
  C   C442      1.0  0.75236  0.45676  0.74679  1.0000
  H   H435      1.0  0.76537  0.39407  0.80628  1.0000
  H   H436      1.0  0.73393  0.37233  0.78790  1.0000
  H   H437      1.0  0.68395  0.19432  0.75848  1.0000
  N   N37       1.0  0.68143  0.23958  0.72641  1.0000
  H   H438      1.0  0.83994  0.43264  0.70182  1.0000
  H   H439      1.0  0.68380  0.33910  0.71682  1.0000
  H   H440      1.0  0.93514  0.44176  0.75738  1.0000
  H   H441      1.0  0.66625  0.19260  0.72348  1.0000
  C   C443      1.0  0.92056  0.03171  0.76784  1.0000
  C   C444      1.0  0.84311  0.28110  0.83885  1.0000
  C   C445      1.0  0.85017  0.25031  0.82286  1.0000
  C   C446      1.0  0.84594  0.21751  0.83697  1.0000
  C   C447      1.0  0.83471  0.21515  0.86753  1.0000
  C   C448      1.0  0.82795  0.24595  0.88392  1.0000
  C   C449      1.0  0.83205  0.27873  0.86965  1.0000
  H   H442      1.0  0.85880  0.25183  0.79913  1.0000
  H   H443      1.0  0.85131  0.19411  0.82413  1.0000
  H   H444      1.0  0.81934  0.24446  0.90768  1.0000
  H   H445      1.0  0.82657  0.30214  0.88233  1.0000
  S   S155      1.0  0.66782  0.46739  0.68786  1.0000
  N   N38       1.0  0.85364  0.47812  0.71960  1.0000
  H   H446      1.0  0.68177  0.42404  0.83026  1.0000
  H   H447      1.0  0.94729  0.01259  0.74565  1.0000
  C   C450      1.0  0.89824  0.05286  0.92373  1.0000
  H   H448      1.0  0.70856  0.00839  0.64921  1.0000
  H   H449      1.0  0.74101  0.01843  0.63980  1.0000
  H   H450      1.0  0.90528  0.07631  0.93159  1.0000
  C   C451      1.0  0.83817  0.45851  0.71289  1.0000
  C   C452      1.0  0.81990  0.47085  0.72170  1.0000
  H   H451      1.0  0.72907  0.03933  0.81223  1.0000
  H   H452      1.0  0.75739  0.48053  0.73538  1.0000
  C   C453      1.0  0.92671  0.46520  0.76212  1.0000
  N   N39       1.0  0.87934  0.99389  0.90285  1.0000
  H   H453      1.0  0.78125  0.00517  0.72512  1.0000
  C   C454      1.0  0.69788  0.25410  0.71525  1.0000
  N   N40       1.0  0.79453  0.18468  0.80905  1.0000
  C   C455      1.0  0.80396  0.17497  0.77860  1.0000
  C   C456      1.0  0.79450  0.21839  0.82037  1.0000
  C   C457      1.0  0.81381  0.19933  0.75880  1.0000
  C   C458      1.0  0.80388  0.24354  0.80083  1.0000
  C   C459      1.0  0.81372  0.23384  0.77002  1.0000
  C   C460      1.0  0.78445  0.15908  0.83008  1.0000
  H   H454      1.0  0.80413  0.14818  0.76971  1.0000
  H   H455      1.0  0.78766  0.22579  0.84523  1.0000
  H   H456      1.0  0.82172  0.19134  0.73526  1.0000
  H   H457      1.0  0.80427  0.27010  0.81038  1.0000
  H   H458      1.0  0.82172  0.25293  0.75558  1.0000
  H   H459      1.0  0.78545  0.13278  0.81795  1.0000
  H   H460      1.0  0.79069  0.15733  0.85729  1.0000
  H   H461      1.0  0.76918  0.16666  0.83215  1.0000
  H   H462      1.0  0.90395  0.43803  0.78787  1.0000
  C   C461      1.0  0.87271  0.46345  0.71271  1.0000
  H   H463      1.0  0.70057  0.00240  0.69392  1.0000
  H   H464      1.0  0.88575  0.04436  0.97541  1.0000
  H   H465      1.0  0.69067  0.18806  0.71231  1.0000
  S   S156      1.0  0.82750  0.47426  0.85200  1.0000
  H   H466      1.0  0.80767  0.45482  0.71754  1.0000
  C   C462      1.0  0.76711  0.00178  0.71423  1.0000
  C   C463      1.0  0.70056  0.46020  0.80675  1.0000
  C   C464      1.0  0.82733  0.47140  0.98580  1.0000
  S   S157      1.0  0.67340  0.17388  0.64297  1.0000
  H   H467      1.0  0.68623  0.24203  0.62769  1.0000
  C   C465      1.0  0.90895  0.46297  0.77946  1.0000
  H   H468      1.0  0.71193  0.30172  0.70247  1.0000
  H   H469      1.0  0.77369  0.02403  0.66329  1.0000
  C   C466      1.0  0.68323  0.31123  0.72013  1.0000
  C   C467      1.0  0.68058  0.20185  0.73060  1.0000
  C   C468      1.0  0.71109  0.99294  0.67388  1.0000
  H   H470      1.0  0.71334  0.44670  0.81623  1.0000
  C   C469      1.0  0.88728  0.03502  0.94825  1.0000
  H   H471      1.0  0.88350  0.48392  0.71157  1.0000
  S   S158      1.0  0.67183  0.99868  0.59700  1.0000
  H   H472      1.0  0.92475  0.05847  0.76785  1.0000
  S   S159      1.0  0.65985  0.02480  0.69223  1.0000
  C   C470      1.0  0.76281  0.01265  0.67961  1.0000
  C   C471      1.0  0.89012  0.01111  0.87877  1.0000
  C   C472      1.0  0.83118  0.99984  0.97117  1.0000
  H   H473      1.0  0.66116  0.05037  0.54226  1.0000
  N   N41       1.0  0.73041  0.99645  0.68772  1.0000
  H   H474      1.0  0.67179  0.30113  0.63548  1.0000
  S   S160      1.0  0.82698  0.00043  0.92432  1.0000
  C   C473      1.0  0.89976  0.04076  0.88877  1.0000
  C   C474      1.0  0.68265  0.44754  0.81461  1.0000
  C   C475      1.0  0.66660  0.29625  0.73187  1.0000
  H   H475      1.0  0.71011  0.23780  0.70825  1.0000
  H   H476      1.0  0.83991  0.05265  0.97542  1.0000
  C   C476      1.0  0.66596  0.26016  0.73501  1.0000
  C   C477      1.0  0.66877  0.99648  0.54982  1.0000
  H   H477      1.0  0.98915  0.44972  0.73537  1.0000
  H   H478      1.0  0.87779  0.47139  0.91045  1.0000
  H   H479      1.0  0.89103  0.00236  0.85141  1.0000
  C   C478      1.0  0.66386  0.27860  0.64268  1.0000
  H   H480      1.0  0.96871  0.01709  0.52948  1.0000
  N   N42       1.0  0.66654  0.46428  0.80234  1.0000
  C   C479      1.0  0.70196  0.48945  0.78522  1.0000
  Fe  Fe81      1.0  0.66239  0.44473  0.63313  1.0000
  C   C480      1.0  0.87794  0.00532  0.93730  1.0000
  S   S161      1.0  0.66877  0.48382  0.58865  1.0000
  C   C481      1.0  0.83777  0.02866  0.98960  1.0000
  H   H481      1.0  0.85344  0.48686  0.91194  1.0000
  Fe  Fe82      1.0  0.82867  0.56389  0.12969  1.0000
  S   S162      1.0  0.82813  0.52057  0.16997  1.0000
  S   S163      1.0  0.82424  0.56028  0.06893  1.0000
  Fe  Fe83      1.0  0.83819  0.61853  0.18652  1.0000
  S   S164      1.0  0.83908  0.57790  0.22982  1.0000
  S   S165      1.0  0.84279  0.67331  0.20837  1.0000
  Fe  Fe84      1.0  0.85512  0.54318  0.19170  1.0000
  H   H482      1.0  0.75147  0.86929  0.28998  1.0000
  Fe  Fe85      1.0  0.81199  0.55881  0.20545  1.0000
  S   S166      1.0  0.78980  0.54939  0.24922  1.0000
  S   S167      1.0  0.85630  0.58500  0.14978  1.0000
  S   S168      1.0  0.81056  0.60075  0.16378  1.0000
  Fe  Fe86      1.0  0.84004  0.95338  0.13555  1.0000
  S   S169      1.0  0.83650  0.97420  0.19151  1.0000
  C   C482      1.0  0.95710  0.54302  0.25937  1.0000
  Fe  Fe87      1.0  0.83828  0.87809  0.16209  1.0000
  S   S170      1.0  0.83451  0.89405  0.21949  1.0000
  S   S171      1.0  0.84001  0.82368  0.13763  1.0000
  Fe  Fe88      1.0  0.81366  0.93476  0.19829  1.0000
  S   S172      1.0  0.78466  0.95661  0.21789  1.0000
  Fe  Fe89      1.0  0.85765  0.93253  0.20844  1.0000
  S   S173      1.0  0.88185  0.93639  0.24988  1.0000
  S   S174      1.0  0.81614  0.91654  0.14127  1.0000
  S   S175      1.0  0.86255  0.91390  0.15219  1.0000
  H   H483      1.0  0.67022  0.93587  0.48263  1.0000
  Fe  Fe90      1.0  0.67825  0.55151  0.30411  1.0000
  S   S176      1.0  0.69917  0.53926  0.25855  1.0000
  S   S177      1.0  0.68277  0.57058  0.36004  1.0000
  Fe  Fe91      1.0  0.68415  0.91389  0.32412  1.0000
  S   S178      1.0  0.71479  0.89871  0.30778  1.0000
  H   H484      1.0  0.78328  0.97033  0.14293  1.0000
  C   C483      1.0  0.70700  0.96656  0.40269  1.0000
  H   H485      1.0  0.97525  0.96609  0.25251  1.0000
  C   C484      1.0  0.76518  0.93931  0.24192  1.0000
  C   C485      1.0  0.74831  0.95963  0.24555  1.0000
  C   C486      1.0  0.73259  0.94744  0.26475  1.0000
  C   C487      1.0  0.73359  0.91480  0.28104  1.0000
  C   C488      1.0  0.75046  0.89456  0.27752  1.0000
  C   C489      1.0  0.76610  0.90658  0.25797  1.0000
  H   H486      1.0  0.82088  0.52120  0.29326  1.0000
  H   H487      1.0  0.71976  0.96336  0.26710  1.0000
  C   C490      1.0  0.66268  0.98980  0.47506  1.0000
  H   H488      1.0  0.77891  0.89060  0.25557  1.0000
  C   C491      1.0  0.90194  0.96355  0.25490  1.0000
  C   C492      1.0  0.72416  0.91004  0.40499  1.0000
  N   N43       1.0  0.97290  0.54240  0.28063  1.0000
  C   C493      1.0  0.98990  0.96916  0.24438  1.0000
  S   S179      1.0  0.66867  0.96554  0.33017  1.0000
  C   C494      1.0  0.76454  0.54688  0.25084  1.0000
  C   C495      1.0  0.75546  0.54818  0.28428  1.0000
  C   C496      1.0  0.73552  0.54638  0.28717  1.0000
  C   C497      1.0  0.72438  0.54243  0.25662  1.0000
  C   C498      1.0  0.73346  0.54103  0.22318  1.0000
  C   C499      1.0  0.75337  0.54363  0.22023  1.0000
  H   H489      1.0  0.96583  0.53951  0.33526  1.0000
  H   H490      1.0  0.72882  0.54743  0.31308  1.0000
  C   C500      1.0  0.98914  0.52520  0.26985  1.0000
  H   H491      1.0  0.76008  0.54247  0.19432  1.0000
  S   S180      1.0  0.88069  0.50526  0.20051  1.0000
  H   H492      1.0  0.77319  0.94961  0.08493  1.0000
  H   H493      1.0  0.68921  0.73515  0.35042  1.0000
  Fe  Fe92      1.0  0.65912  0.94600  0.38397  1.0000
  H   H494      1.0  0.72161  0.89036  0.38393  1.0000
  H   H495      1.0  0.94402  0.55563  0.26842  1.0000
  C   C501      1.0  0.89979  0.51752  0.26463  1.0000
  C   C502      1.0  0.83898  0.71456  0.18791  1.0000
  C   C503      1.0  0.83757  0.74430  0.20967  1.0000
  C   C504      1.0  0.83708  0.77791  0.19475  1.0000
  C   C505      1.0  0.83822  0.78217  0.15781  1.0000
  C   C506      1.0  0.83926  0.75244  0.13604  1.0000
  C   C507      1.0  0.83951  0.71883  0.15092  1.0000
  H   H496      1.0  0.83720  0.74133  0.23833  1.0000
  H   H497      1.0  0.83626  0.80050  0.21185  1.0000
  H   H498      1.0  0.84012  0.75541  0.10742  1.0000
  H   H499      1.0  0.84073  0.69629  0.13382  1.0000
  C   C508      1.0  0.72995  0.98808  0.34749  1.0000
  C   C509      1.0  0.83245  0.96662  0.02704  1.0000
  H   H500      1.0  0.83049  0.94254  0.04112  1.0000
  S   S181      1.0  0.67292  0.66795  0.35328  1.0000
  C   C510      1.0  0.66634  0.77350  0.35411  1.0000
  H   H501      1.0  0.98628  0.56497  0.32594  1.0000
  H   H502      1.0  0.67232  0.54392  0.47305  1.0000
  H   H503      1.0  0.78057  0.97080  0.04490  1.0000
  H   H504      1.0  0.76391  0.55058  0.30820  1.0000
  C   C511      1.0  0.97196  0.55818  0.31617  1.0000
  C   C512      1.0  0.67400  0.73928  0.35249  1.0000
  N   N44       1.0  0.74680  0.63542  0.27290  1.0000
  C   C513      1.0  0.74054  0.64488  0.30613  1.0000
  C   C514      1.0  0.73410  0.62709  0.24684  1.0000
  C   C515      1.0  0.72112  0.64586  0.31406  1.0000
  C   C516      1.0  0.71460  0.62755  0.25395  1.0000
  C   C517      1.0  0.70813  0.63703  0.28776  1.0000
  C   C518      1.0  0.76723  0.63489  0.26530  1.0000
  H   H505      1.0  0.75059  0.65161  0.32675  1.0000
  H   H506      1.0  0.73901  0.61917  0.22061  1.0000
  H   H507      1.0  0.71604  0.65328  0.34040  1.0000
  H   H508      1.0  0.70460  0.61974  0.23368  1.0000
  H   H509      1.0  0.69307  0.63743  0.29371  1.0000
  H   H510      1.0  0.77511  0.61913  0.28559  1.0000
  H   H511      1.0  0.77059  0.62282  0.23902  1.0000
  H   H512      1.0  0.77257  0.66169  0.26522  1.0000
  N   N45       1.0  0.88309  0.77060  0.20479  1.0000
  C   C519      1.0  0.88385  0.79104  0.17507  1.0000
  C   C520      1.0  0.88148  0.78532  0.23790  1.0000
  C   C521      1.0  0.88284  0.82718  0.17805  1.0000
  C   C522      1.0  0.88037  0.82143  0.24181  1.0000
  C   C523      1.0  0.88111  0.84240  0.21164  1.0000
  C   C524      1.0  0.88494  0.73279  0.20127  1.0000
  H   H513      1.0  0.88459  0.77951  0.14872  1.0000
  H   H514      1.0  0.88079  0.76914  0.26145  1.0000
  H   H515      1.0  0.88279  0.84320  0.15429  1.0000
  H   H516      1.0  0.87882  0.83324  0.26795  1.0000
  H   H517      1.0  0.88014  0.87042  0.21430  1.0000
  H   H518      1.0  0.90010  0.72432  0.20290  1.0000
  H   H519      1.0  0.87683  0.71951  0.22243  1.0000
  H   H520      1.0  0.87895  0.72392  0.17548  1.0000
  C   C525      1.0  0.82154  0.53216  0.00149  1.0000
  C   C526      1.0  0.95730  0.52607  0.22639  1.0000
  C   C527      1.0  0.92984  0.97991  0.29024  1.0000
  C   C528      1.0  0.73273  0.95542  0.36312  1.0000
  C   C529      1.0  0.91373  0.95936  0.28512  1.0000
  H   H521      1.0  0.67565  0.79529  0.35329  1.0000
  C   C530      1.0  0.97376  0.50817  0.21538  1.0000
  S   S182      1.0  0.67616  0.89579  0.37941  1.0000
  C   C531      1.0  0.82447  0.52505  0.03797  1.0000
  H   H522      1.0  0.91036  0.94001  0.30481  1.0000
  H   H523      1.0  0.66792  0.49780  0.24053  1.0000
  H   H524      1.0  0.74737  0.98498  0.23327  1.0000
  C   C532      1.0  0.90657  0.98878  0.22981  1.0000
  C   C533      1.0  0.87129  0.52123  0.02670  1.0000
  C   C534      1.0  0.91406  0.50981  0.29020  1.0000
  H   H525      1.0  0.96294  0.58227  0.31596  1.0000
  H   H526      1.0  0.91431  0.52442  0.31482  1.0000
  N   N46       1.0  0.72124  0.94495  0.39015  1.0000
  H   H527      1.0  0.74372  0.93794  0.35261  1.0000
  H   H528      1.0  0.73894  0.90649  0.41492  1.0000
  H   H529      1.0  0.88916  0.53772  0.26977  1.0000
  H   H530      1.0  0.72503  0.53792  0.19932  1.0000
  H   H531      1.0  0.94455  0.52585  0.21012  1.0000
  S   S183      1.0  0.65901  0.88957  0.29779  1.0000
  C   C535      1.0  0.78511  0.96325  0.07227  1.0000
  C   C536      1.0  0.66797  0.52061  0.48638  1.0000
  H   H532      1.0  0.69771  0.95832  0.42391  1.0000
  H   H533      1.0  0.71429  0.90501  0.42735  1.0000
  H   H534      1.0  0.79754  0.94492  0.07026  1.0000
  C   C537      1.0  0.98984  0.50783  0.23714  1.0000
  H   H535      1.0  0.93865  0.97621  0.31366  1.0000
  C   C538      1.0  0.83082  0.50166  0.28288  1.0000
  H   H536      1.0  0.85282  0.51244  0.32092  1.0000
  C   C539      1.0  0.89912  0.49868  0.23280  1.0000
  C   C540      1.0  0.66221  0.71045  0.35385  1.0000
  H   H537      1.0  0.66346  0.55429  0.21957  1.0000
  H   H538      1.0  0.86412  0.57313  0.00935  1.0000
  Fe  Fe93      1.0  0.66133  0.61340  0.34599  1.0000
  H   H539      1.0  0.97400  0.49419  0.19028  1.0000
  C   C541      1.0  0.84872  0.49673  0.29837  1.0000
  H   H540      1.0  0.81837  0.55855  0.99317  1.0000
  C   C542      1.0  0.86754  0.54670  0.00108  1.0000
  C   C543      1.0  0.65882  0.49502  0.46691  1.0000
  H   H541      1.0  0.87082  0.52790  0.05483  1.0000
  S   S184      1.0  0.65861  0.98753  0.42814  1.0000
  Fe  Fe94      1.0  0.97611  0.53707  0.70221  1.0000
  C   C544      1.0  0.94897  0.78066  0.72571  1.0000
  S   S185      1.0  0.95650  0.49822  0.72982  1.0000
  C   C545      1.0  0.98892  0.71119  0.67930  1.0000
  H   H542      1.0  0.97276  0.65449  0.56577  1.0000
  N   N47       1.0  0.87025  0.50368  0.95481  1.0000
  S   S186      1.0  0.97038  0.57247  0.65546  1.0000
  S   S187      1.0  0.98340  0.97370  0.58578  1.0000
  Fe  Fe95      1.0  0.97281  0.93621  0.71093  1.0000
  H   H543      1.0  0.86336  0.55711  0.94539  1.0000
  S   S188      1.0  0.97454  0.90293  0.66141  1.0000
  H   H544      1.0  0.98898  0.69574  0.60205  1.0000
  C   C546      1.0  0.96600  0.78355  0.74458  1.0000
  C   C547      1.0  0.66778  0.49277  0.78085  1.0000
  H   H545      1.0  0.67560  0.94163  0.54790  1.0000
  C   C548      1.0  0.85144  0.51014  0.73502  1.0000
  C   C549      1.0  0.92844  0.97082  0.75541  1.0000
  C   C550      1.0  0.93863  0.81065  0.71616  1.0000
  H   H546      1.0  0.94412  0.75532  0.71786  1.0000
  H   H547      1.0  0.68643  0.52805  0.75450  1.0000
  Fe  Fe96      1.0  0.98958  0.61116  0.68170  1.0000
  H   H548      1.0  0.75598  0.98065  0.76274  1.0000
  C   C551      1.0  0.98389  0.63429  0.57156  1.0000
  H   H549      1.0  0.93731  0.86659  0.71893  1.0000
  C   C552      1.0  0.89788  0.49299  0.78621  1.0000
  C   C553      1.0  0.67135  0.51619  0.52330  1.0000
  H   H550      1.0  0.97905  0.61819  0.59413  1.0000
  C   C554      1.0  0.86876  0.96385  0.89093  1.0000
  H   H551      1.0  0.82095  0.51168  0.94766  1.0000
  C   C555      1.0  0.75293  0.98803  0.73537  1.0000
  H   H552      1.0  0.92556  0.80891  0.70104  1.0000
  H   H553      1.0  0.97421  0.76014  0.75105  1.0000
  H   H554      1.0  0.92765  0.55225  0.74932  1.0000
  C   C556      1.0  0.94523  0.84300  0.72606  1.0000
  H   H555      1.0  0.86373  0.52527  0.74138  1.0000
  C   C557      1.0  0.67137  0.96426  0.53248  1.0000
  S   S189      1.0  0.97943  0.66868  0.67537  1.0000
  C   C558      1.0  0.86701  0.53741  0.96503  1.0000
  H   H556      1.0  0.89653  0.54861  0.78013  1.0000
  C   C559      1.0  0.90485  0.52512  0.77506  1.0000
  H   H557      1.0  0.83180  0.54795  0.75790  1.0000
  H   H558      1.0  0.82357  0.94633  0.97618  1.0000
  N   N48       1.0  0.97261  0.81544  0.75340  1.0000
  C   C560      1.0  0.97837  0.73984  0.66556  1.0000
  C   C561      1.0  0.92255  0.52731  0.75751  1.0000
  C   C562      1.0  0.83340  0.52314  0.74449  1.0000
  H   H559      1.0  0.80351  0.51252  0.74593  1.0000
  C   C563      1.0  0.98510  0.77401  0.66801  1.0000
  H   H560      1.0  0.85721  0.97257  0.87248  1.0000
  H   H561      1.0  0.87832  0.94492  0.87697  1.0000
  H   H562      1.0  0.96483  0.73560  0.65287  1.0000
  S   S190      1.0  0.94447  0.93642  0.74171  1.0000
  H   H563      1.0  0.88336  0.98181  0.78933  1.0000
  C   C564      1.0  0.96224  0.84491  0.74511  1.0000
  H   H564      1.0  0.97674  0.79559  0.65735  1.0000
  H   H565      1.0  0.90617  0.93582  0.76826  1.0000
  H   H566      1.0  0.86194  0.95039  0.91355  1.0000
  C   C565      1.0  0.89729  0.98869  0.78018  1.0000
  H   H567      1.0  0.67831  0.53632  0.53801  1.0000
  C   C566      1.0  0.82302  0.50561  0.97555  1.0000
  C   C567      1.0  0.91027  0.96260  0.76804  1.0000
  H   H568      1.0  0.98533  0.61734  0.54767  1.0000
  H   H569      1.0  0.96711  0.87020  0.75297  1.0000
  H   H570      1.0  0.72340  0.97606  0.73869  1.0000
  H   H571      1.0  0.99136  0.54832  0.49325  1.0000
  H   H572      1.0  0.71583  0.49892  0.77825  1.0000
  C   C568      1.0  0.93370  0.49733  0.75101  1.0000
  H   H573      1.0  0.70841  0.96537  0.66769  1.0000
  C   C569      1.0  0.66831  0.96087  0.49540  1.0000
  S   S191      1.0  0.98883  0.97947  0.68627  1.0000
  C   C570      1.0  0.86832  0.49399  0.91723  1.0000
  C   C571      1.0  0.68549  0.50577  0.77196  1.0000
  C   C572      1.0  0.99136  0.97997  0.54106  1.0000
  C   C573      1.0  0.99045  0.81792  0.77327  1.0000
  C   C574      1.0  0.73454  0.98556  0.72163  1.0000
  C   C575      1.0  0.82854  0.96888  0.99017  1.0000
  C   C576      1.0  0.81756  0.50329  0.73778  1.0000
  H   H574      1.0  0.87209  0.51549  0.89910  1.0000
  H   H575      1.0  0.98762  0.81826  0.80233  1.0000
  H   H576      1.0  0.86936  0.99176  0.95641  1.0000
  S   S192      1.0  0.87520  0.49212  0.80775  1.0000
