data_image0
_chemical_formula_structural       SHSCFeHFeSNSHFeS2FeS2FeSFeCS2FeS2FeS2FeSFeS3C6H4C6H4C6H4C6H5NC2SHNHC2H3CSC2SH2CFeC5H3C2H6C2H5CH4C2HCH3CH2NHC2HC3HCNC6H2NH3C4HSCH2CHC3H3CHNHC2H3C2HC3HS2FeSCFeS2FeSFeS3FeS2FeS2FeSFeS3FeSCH2FeSFeHSC6H4C6H4C6H4C6H4SC3NHC4SHC2H2CH4CNHSH4CH3NC6H9NC4H4CH2C2HC4HC2HCHNCH4CHCHFeNCHCH3C2HCFeH2CHCHNCSHC4H2SHC2HFeS2HSCFeSFeSCFeS2FeS2FeSFeS3FeS2C6H5C4H3C2NH2C6H5C7H4SHCH2C3H3CH3NC6H4NHCNHFeCH3CHC2HC3H2C4H4NHCH6C2H5FeSHFeS2FeSFeSFeS2FeS2FeSFeS3FeS2C6H4C4NHCHC7H4CSHC6H4NC2NC6H9NC2NH5CH4CH3CH4C4H2C2H2C2H3CHC2H2C2HCH3SHCFeS2FeHFeSC2S2FeS2FeS2FeSFeS3CHSC6H4C6H5CH4CFeHC6H4C2H11CHS2H3C3HCNCHFeN2C6H2NCHCH3C2HC4H4C2HC2HSFeS2HSHFe2SCSFeS2FeS2FeSFeS3CSHC6H4C2H2C2H2CHC6H4FeHC2NC6H4C2NHCH2CH2C3SC2H2C2H5CHCH2CHCNHC3HCH2NCH3CH2C2H3C2H2SH3C2HCFeCHC2SFeS2FeS2FeSFeS3FeS2FeS2FeSFeS2FeS2CHCFeHS2HCHNC3H2CHNHC2HCH2CH2C6H2CHC6H4C6H5C6H4CNC6H8CH2CSH2NFeH4C2NC6H9C2HC3SCH3CHSCH3CH2C2H2C2H2NHC2NH2C3H3CH2C3HCFeCSH2CSHCSFeS2FeS2FeSFeS3FeS2FeS2Fe2S3CHC3SHC2H3C7H4C6H4C6H4CHC6H4FeC4H4CSCHCNC2HSCSNC6H8FeHCSC3H2CHNHCHSCH2SH5CH2NH2CNC5HCH3SHCH2CHCFeH3CHSHFeHCH2C2HCHCSFeS2FeSFeSFeS3FeS2FeSHFeSFeS3CFeSNSCHC6H4C6H4NC8H4C3H2C6H5C2FeCH2C3H5NHCHCSC3H2CH2NH2C2NC6H9SH2SH2C2NCHCH7FeSFeS2FeSFeS3FeSCFeS2FeSFeS3HNSHSHSC6H4C2HC2H2C6H4C6H4C3H2C6H7CHCHCH2CHSCFeSH2C2HCHCHNH3SH3C2H2NC6HCNCSHCHCFeCH2CHCH2CHCH3NS2FeS2FeS2FeSCS2FeS2CHSFeHSCH4SHSHSHFeS2FeS2FeSFeS2NC5H4C6H4C2SHC2HCHCNFeHCNHSH2C6HCH2C6H4C2HC2HCFeCH4CSHCHC3H2CNC2HSHCHC2HC2FeH2CHCH2C5SH3C2NCH3NC5FeH5FeCH2CH2C2HC2H2CHNC5H9CFeH3C2H2C2H2SHCHCHCHCHFeC3H2C2H2CSHC2HCH2CS2HCSH3SHCHFeH2SCNS2FeS2FeS2Fe2S4N2HFeS2FeS2FeSFeS2FeCSNHCHSHC2SCHCHCH2C6H4C6H3CHC4H2C6H4C3HCH3C6H4CFeH4SC2FeCHC2HFeCHC2H3C2HC2HCSHSCHNC2FeCH2SCH2C4H2CNCHC2SHC2FeH4CFeHCH2CHC2HSHC2HC2H2CHSHCNC6H6SCHCSCSCHSH3C3HCHCSHFeHCH2SFeS2FeS2FeCFeS3CHFeS2FeHCSNSC2FeS2FeS2FeSFeHS2C7H3CSHC2HC6H4NHC3HC2HC6H4C3HNCH4SC6H4CH4CNHC2H4CH2CNC5SCHCNC6H6CNC6H5CH2NC4FeCH2SCH3SCHC2HSHCHC2H2CHCH4C3HSFeHSHCSHSFeCHSH3C3FeHCNH2CHSH3C2H4C2FeCSCHC3HCNH3CH3FeCFeS2FeS2FeSFeHS2FeCSHCNHS2NSCFeSCFeS2FeSFeS3HSH3FeSCFeHCHC2H2CHC6H3C7H4SC3HC2HCH3CH2C6H4C6H6C4H9CHNHCHC2HCHNH2C4HNHCH2CHCHC2SCH2C4HNH2SFeNHC3SH2NH2CNC3H2CSC2HSHCH3CHSFeH2NHCH4CH3CSHC2H4C4Fe2HNCS2CHCH3CHCH3C2HCSCSH2FeS2FeSFeSFeS3FeSHFeS2FeSFeS3FeS2FeS2C6H4C6H2CHC4H4C6H4CH3C6H4C2H2C3H3CHCHCH3CHC2NH4CNC6H7CHCH3NCHC3HSFeS2FeSFeSFeS3FeSCFeS2FeSFeS3FeS2FeS2C6H5NC6H4C6H4C2HCH2C6H4C4H2CNHCHC5H6CH2C2HC4H3NCH2C2NHCHCH7C2H4C2H4CHCHCHCHNCH2CH2C4HC2SHFeSHCHSFeS2FeS2FeHFeS3FeS2FeS2FeSFeS4C6H4CH2C7H4C6H4C6H7C3H2C2HC3FeHNHNH3CHSH2C2H4C2H2C5HC2NH2CHC2H2C4H2C5H4SH5C2FeHSH2CN2C3H2CH4C3HCHSHCHC2SH3SCFeSFe2S2FeSFeS3FeS2FeS2FeSFeS3FeS2FeCHSHNC6H6CHC6H4C6H4C6H6CHFeHCSCHCNH2CHC4SHS2CHNC6H9C2NC6H2SH5NC3H7CH2C2HCHCFeCHCH3FeSHFeS2FeHFeSCSFeS2FeS2FeSFeS3H2SC6H9C6H5SHNCH2C7H3C2HCH2CNC5H4CH2CHSCNH2CH2CH3CFeHCHCH2C3H2NC5SHCHSHC3H2CFeSHFeS2FeSFeS2HFeS2FeS2FeSFeS3FeSHC6H4C3H2C6H4C4HC2HC7H3C4HCH2NC6H8C2HC2NCH2CH3CHCNH2CH2NH7SHCH3CHCHCHSH2CHCSH3FeSHFeS2FeHFeS3Fe2S2FeS2FeSFeS3HSC7H5C3H2C6H7C6H4C3HSH5NC2H3CSCH2CHCHC2HSC2H2CNHCH2NC3HC4H4C2SC2HCHCH4CHCHFeSCFeS2FeSFeCS2HFeS2FeS2FeSFeS4HSC6H4FeCNC7H4SC2H2C6H4C2H2C2H5CH3CHC2SH2C2H3C3H4NCNHC2NH2CH2C3H2CHCH3NC2HSC2SC4FeSC3HFeSCFeSCSFeS2FeSFeSFeS3FeS2FeS2FeSFeS3HC3HC7H4C6H4C6H4C6H4CH2CHNH4CHCHSH3C2HCSHCH2CH3NH2C2NC2HC2FeH2CH2CHNSCHCFeNC6H3CH5SHCHCHCNCH4CH2CSNH2CHC2H4CH2S2CFeS2FeS2FeSFeS2FeS2FeS2FeSFeS3CSHCHFeSHSCH2CH3C6H4C6H4C6H4C6H4C2SHCHC2FeH4C2HNC6H8SCSH2C3HCNCHC3H2NC6H8C3H2CNH2NCH5C3H3CH3CH4C4SHFe
_chemical_formula_sum              "S544 H1632 C1632 Fe272 N136"
_cell_length_a       70.6737
_cell_length_b       70.5761
_cell_length_c       60.1253
_cell_angle_alpha    88.0734
_cell_angle_beta     88.2803
_cell_angle_gamma    87.3373

_space_group_name_H-M_alt    "P 1"
_space_group_IT_number       1

loop_
  _space_group_symop_operation_xyz
  'x, y, z'

loop_
  _atom_site_type_symbol
  _atom_site_label
  _atom_site_symmetry_multiplicity
  _atom_site_fract_x
  _atom_site_fract_y
  _atom_site_fract_z
  _atom_site_occupancy
  S   S1        1.0  0.05152  0.14888  0.03725  1.0000
  H   H1        1.0  0.15159  0.23079  0.13692  1.0000
  S   S2        1.0  0.06894  0.10534  0.04525  1.0000
  C   C1        1.0  0.05610  0.12500  0.11244  1.0000
  Fe  Fe1       1.0  0.04185  0.11932  0.03300  1.0000
  H   H2        1.0  0.20068  0.04339  0.25263  1.0000
  Fe  Fe2       1.0  0.07932  0.13474  0.04693  1.0000
  S   S3        1.0  0.09755  0.13925  0.07667  1.0000
  N   N1        1.0  0.03509  0.10566  0.47366  1.0000
  S   S4        1.0  0.15584  0.03196  0.46535  1.0000
  H   H3        1.0  0.22491  0.03449  0.42870  1.0000
  Fe  Fe3       1.0  0.07456  0.21400  0.23409  1.0000
  S   S5        1.0  0.10517  0.21533  0.24344  1.0000
  S   S6        1.0  0.05117  0.22559  0.25767  1.0000
  Fe  Fe4       1.0  0.08537  0.19825  0.18820  1.0000
  S   S7        1.0  0.11662  0.19806  0.19434  1.0000
  S   S8        1.0  0.07072  0.19271  0.15585  1.0000
  Fe  Fe5       1.0  0.10927  0.18637  0.22886  1.0000
  S   S9        1.0  0.12152  0.15998  0.24797  1.0000
  Fe  Fe6       1.0  0.11025  0.22713  0.20849  1.0000
  C   C2        1.0  0.34134  0.12943  0.44899  1.0000
  S   S10       1.0  0.07814  0.18448  0.22153  1.0000
  S   S11       1.0  0.07953  0.22790  0.20030  1.0000
  Fe  Fe7       1.0  0.20005  0.08678  0.36035  1.0000
  S   S12       1.0  0.22043  0.10875  0.34808  1.0000
  S   S13       1.0  0.18434  0.09304  0.39303  1.0000
  Fe  Fe8       1.0  0.20797  0.06232  0.31965  1.0000
  S   S14       1.0  0.22899  0.08243  0.30475  1.0000
  S   S15       1.0  0.19599  0.03701  0.30303  1.0000
  Fe  Fe9       1.0  0.24015  0.08394  0.33959  1.0000
  S   S16       1.0  0.27158  0.07851  0.34825  1.0000
  Fe  Fe10      1.0  0.20746  0.10568  0.31450  1.0000
  S   S17       1.0  0.20033  0.13107  0.29072  1.0000
  S   S18       1.0  0.22029  0.06203  0.35377  1.0000
  S   S19       1.0  0.18591  0.08553  0.32748  1.0000
  C   C3        1.0  0.28994  0.09164  0.35962  1.0000
  C   C4        1.0  0.30782  0.08249  0.36314  1.0000
  C   C5        1.0  0.32271  0.09206  0.37247  1.0000
  C   C6        1.0  0.31990  0.11097  0.37861  1.0000
  C   C7        1.0  0.30200  0.12010  0.37514  1.0000
  C   C8        1.0  0.28719  0.11060  0.36559  1.0000
  H   H4        1.0  0.31022  0.06787  0.35854  1.0000
  H   H5        1.0  0.13283  0.19100  0.27856  1.0000
  H   H6        1.0  0.29963  0.13475  0.37966  1.0000
  H   H7        1.0  0.27371  0.11803  0.36272  1.0000
  C   C9        1.0  0.14362  0.15251  0.25983  1.0000
  C   C10       1.0  0.14446  0.13596  0.27362  1.0000
  C   C11       1.0  0.16150  0.12945  0.28361  1.0000
  C   C12       1.0  0.17810  0.13929  0.27972  1.0000
  C   C13       1.0  0.17724  0.15589  0.26601  1.0000
  C   C14       1.0  0.16012  0.16254  0.25624  1.0000
  H   H8        1.0  0.13181  0.12808  0.27660  1.0000
  H   H9        1.0  0.16183  0.11674  0.29418  1.0000
  H   H10       1.0  0.18996  0.16364  0.26284  1.0000
  H   H11       1.0  0.15979  0.17528  0.24571  1.0000
  C   C15       1.0  0.16348  0.04908  0.44522  1.0000
  C   C16       1.0  0.17149  0.04306  0.42480  1.0000
  C   C17       1.0  0.17768  0.05634  0.40843  1.0000
  C   C18       1.0  0.17588  0.07576  0.41240  1.0000
  C   C19       1.0  0.16792  0.08176  0.43283  1.0000
  C   C20       1.0  0.16176  0.06850  0.44918  1.0000
  H   H12       1.0  0.17278  0.02806  0.42156  1.0000
  H   H13       1.0  0.18371  0.05157  0.39273  1.0000
  H   H14       1.0  0.16652  0.09676  0.43603  1.0000
  H   H15       1.0  0.15560  0.07331  0.46479  1.0000
  C   C21       1.0  0.09082  0.15531  0.09782  1.0000
  C   C22       1.0  0.07481  0.16761  0.09601  1.0000
  C   C23       1.0  0.06925  0.17942  0.11369  1.0000
  C   C24       1.0  0.07952  0.17896  0.13339  1.0000
  C   C25       1.0  0.09579  0.16699  0.13501  1.0000
  C   C26       1.0  0.10141  0.15524  0.11726  1.0000
  H   H16       1.0  0.06658  0.16787  0.08111  1.0000
  H   H17       1.0  0.05668  0.18867  0.11228  1.0000
  H   H18       1.0  0.10379  0.16647  0.15011  1.0000
  H   H19       1.0  0.11384  0.14580  0.11878  1.0000
  H   H20       1.0  0.10431  0.21340  0.14583  1.0000
  N   N2        1.0  0.12909  0.08181  0.03879  1.0000
  C   C27       1.0  0.03017  0.21426  0.26656  1.0000
  C   C28       1.0  0.02684  0.19563  0.26102  1.0000
  S   S20       1.0  0.33781  0.12374  0.39134  1.0000
  H   H21       1.0  0.03698  0.18795  0.25046  1.0000
  N   N3        1.0  0.10718  0.18786  0.29710  1.0000
  H   H22       1.0  0.23250  0.11614  0.41316  1.0000
  C   C29       1.0  0.24476  0.09030  0.39975  1.0000
  C   C30       1.0  0.22959  0.04091  0.41243  1.0000
  H   H23       1.0  0.05244  0.18965  0.29668  1.0000
  H   H24       1.0  0.07858  0.06736  0.03262  1.0000
  H   H25       1.0  0.10575  0.15813  0.29239  1.0000
  C   C31       1.0  0.04074  0.12808  0.09842  1.0000
  S   S21       1.0  0.01582  0.10825  0.05089  1.0000
  C   C32       1.0  0.09171  0.03942  0.03729  1.0000
  C   C33       1.0  0.23257  0.10076  0.41384  1.0000
  S   S22       1.0  0.11206  0.04231  0.50534  1.0000
  H   H26       1.0  0.08467  0.03685  0.05326  1.0000
  H   H27       1.0  0.17076  0.06943  0.28441  1.0000
  C   C34       1.0  0.20792  0.01863  0.28787  1.0000
  Fe  Fe11      1.0  0.14359  0.04054  0.49912  1.0000
  C   C35       1.0  0.10450  0.02557  0.02864  1.0000
  C   C36       1.0  0.02683  0.15107  0.12262  1.0000
  C   C37       1.0  0.02028  0.12076  0.47130  1.0000
  C   C38       1.0  0.01047  0.14384  0.08855  1.0000
  C   C39       1.0  0.22755  0.01792  0.28401  1.0000
  H   H28       1.0  0.12653  0.04065  0.06908  1.0000
  H   H29       1.0  0.01573  0.14617  0.07109  1.0000
  H   H30       1.0  0.13788  0.21021  0.14202  1.0000
  C   C40       1.0  0.04194  0.14828  0.13708  1.0000
  C   C41       1.0  0.13210  0.06304  0.04471  1.0000
  H   H31       1.0  0.13357  0.19779  0.30729  1.0000
  H   H32       1.0  0.05748  0.12452  0.46719  1.0000
  H   H33       1.0  0.02317  0.13015  0.45649  1.0000
  H   H34       1.0  0.16145  0.07630  0.25740  1.0000
  H   H35       1.0  0.06951  0.21920  0.30043  1.0000
  H   H36       1.0  0.04042  0.12015  0.08330  1.0000
  C   C42       1.0  0.11183  0.08701  0.07325  1.0000
  C   C43       1.0  0.06817  0.09603  0.47412  1.0000
  H   H37       1.0  0.25318  0.06261  0.38842  1.0000
  H   H38       1.0  0.24330  0.03369  0.40743  1.0000
  H   H39       1.0  0.21851  0.11027  0.25248  1.0000
  H   H40       1.0  0.01946  0.12949  0.48635  1.0000
  H   H41       1.0  0.16957  0.05212  0.26351  1.0000
  C   C44       1.0  0.09722  0.20484  0.29914  1.0000
  H   H42       1.0  0.10458  0.21792  0.30010  1.0000
  H   H43       1.0  0.01565  0.08428  0.48285  1.0000
  H   H44       1.0  0.04065  0.05902  0.48810  1.0000
  H   H45       1.0  0.14380  0.22448  0.16495  1.0000
  C   C45       1.0  0.07805  0.17186  0.29463  1.0000
  C   C46       1.0  0.07741  0.20568  0.29933  1.0000
  H   H46       1.0  0.20995  0.09936  0.43861  1.0000
  C   C47       1.0  0.33827  0.11001  0.44845  1.0000
  H   H47       1.0  0.20922  0.06444  0.43853  1.0000
  H   H48       1.0  0.10386  0.09661  0.08416  1.0000
  H   H49       1.0  0.21890  0.03819  0.39986  1.0000
  C   C48       1.0  0.04444  0.07319  0.48264  1.0000
  H   H50       1.0  0.07457  0.06668  0.48305  1.0000
  H   H51       1.0  0.33632  0.08478  0.37496  1.0000
  N   N4        1.0  0.23147  0.06143  0.41392  1.0000
  H   H52       1.0  0.23604  0.02849  0.29099  1.0000
  C   C49       1.0  0.11936  0.09383  0.05291  1.0000
  C   C50       1.0  0.21963  0.07156  0.42800  1.0000
  H   H53       1.0  0.33296  0.10405  0.43355  1.0000
  C   C51       1.0  0.24402  0.07053  0.39998  1.0000
  C   C52       1.0  0.05371  0.11004  0.47111  1.0000
  C   C53       1.0  0.05665  0.13516  0.13190  1.0000
  H   H54       1.0  0.06773  0.11519  0.10789  1.0000
  C   C54       1.0  0.22004  0.09135  0.42824  1.0000
  N   N5        1.0  0.19142  0.07206  0.25845  1.0000
  C   C55       1.0  0.19630  0.09058  0.25828  1.0000
  C   C56       1.0  0.20445  0.05811  0.25230  1.0000
  C   C57       1.0  0.21466  0.09557  0.25196  1.0000
  C   C58       1.0  0.22301  0.06254  0.24614  1.0000
  C   C59       1.0  0.22812  0.08141  0.24599  1.0000
  C   C60       1.0  0.17231  0.06725  0.26620  1.0000
  H   H55       1.0  0.18607  0.10158  0.26345  1.0000
  H   H56       1.0  0.24256  0.08504  0.24171  1.0000
  N   N6        1.0  0.12235  0.23687  0.14462  1.0000
  H   H57       1.0  0.11714  0.10878  0.04840  1.0000
  H   H58       1.0  0.07073  0.15895  0.29225  1.0000
  H   H59       1.0  0.10837  0.06220  0.09469  1.0000
  C   C61       1.0  0.09786  0.17151  0.29475  1.0000
  C   C62       1.0  0.03035  0.08757  0.47964  1.0000
  C   C63       1.0  0.12795  0.18748  0.29591  1.0000
  C   C64       1.0  0.06780  0.18907  0.29704  1.0000
  H   H60       1.0  0.25432  0.09744  0.38819  1.0000
  S   S23       1.0  0.13042  0.25075  0.19867  1.0000
  C   C65       1.0  0.12479  0.05573  0.06494  1.0000
  H   H61       1.0  0.23341  0.05131  0.24198  1.0000
  H   H62       1.0  0.06875  0.13334  0.14260  1.0000
  C   C66       1.0  0.06346  0.07749  0.47986  1.0000
  H   H63       1.0  0.04260  0.15670  0.15183  1.0000
  C   C67       1.0  0.01683  0.22401  0.28036  1.0000
  C   C68       1.0  0.13976  0.22496  0.14719  1.0000
  C   C69       1.0  0.11446  0.06780  0.07919  1.0000
  H   H64       1.0  0.08295  0.09962  0.47287  1.0000
  H   H65       1.0  0.13963  0.05342  0.03345  1.0000
  H   H66       1.0  0.13419  0.17320  0.30068  1.0000
  C   C70       1.0  0.08834  0.05679  0.02568  1.0000
  H   H67       1.0  0.33832  0.13832  0.43434  1.0000
  N   N7        1.0  0.02643  0.14106  0.10353  1.0000
  H   H68       1.0  0.01928  0.23840  0.28477  1.0000
  C   C71       1.0  0.10517  0.22870  0.14459  1.0000
  C   C72       1.0  0.08839  0.23996  0.14345  1.0000
  H   H69       1.0  0.01559  0.16146  0.12667  1.0000
  H   H70       1.0  0.07479  0.23336  0.14388  1.0000
  H   H71       1.0  0.15179  0.09356  0.01995  1.0000
  C   C73       1.0  0.13710  0.08924  0.01767  1.0000
  C   C74       1.0  0.08926  0.25968  0.14252  1.0000
  H   H72       1.0  0.34076  0.08316  0.46647  1.0000
  C   C75       1.0  0.12334  0.25619  0.14364  1.0000
  C   C76       1.0  0.34263  0.09831  0.46692  1.0000
  C   C77       1.0  0.01047  0.18684  0.26942  1.0000
  H   H73       1.0  0.28823  0.07812  0.64414  1.0000
  S   S24       1.0  0.05802  0.17030  0.97590  1.0000
  S   S25       1.0  0.05077  0.11796  0.99689  1.0000
  Fe  Fe12      1.0  0.10217  0.23175  0.83350  1.0000
  S   S26       1.0  0.08085  0.21697  0.85564  1.0000
  C   C78       1.0  0.23967  0.14638  0.71471  1.0000
  Fe  Fe13      1.0  0.11259  0.19490  0.80772  1.0000
  S   S27       1.0  0.09182  0.17798  0.82830  1.0000
  S   S28       1.0  0.12831  0.18244  0.77714  1.0000
  Fe  Fe14      1.0  0.07150  0.20329  0.82464  1.0000
  S   S29       1.0  0.03965  0.19993  0.82223  1.0000
  Fe  Fe15      1.0  0.10269  0.19296  0.85735  1.0000
  S   S30       1.0  0.11046  0.17587  0.88860  1.0000
  S   S31       1.0  0.09130  0.21955  0.80219  1.0000
  S   S32       1.0  0.12499  0.20843  0.83715  1.0000
  Fe  Fe16      1.0  0.19652  0.08037  0.69280  1.0000
  S   S33       1.0  0.20639  0.10938  0.70024  1.0000
  S   S34       1.0  0.17170  0.07346  0.67162  1.0000
  Fe  Fe17      1.0  0.22296  0.06021  0.72608  1.0000
  S   S35       1.0  0.23511  0.08758  0.73611  1.0000
  S   S36       1.0  0.23333  0.03000  0.73552  1.0000
  Fe  Fe18      1.0  0.20474  0.09963  0.73622  1.0000
  S   S37       1.0  0.19379  0.11714  0.76589  1.0000
  Fe  Fe19      1.0  0.23604  0.09555  0.69951  1.0000
  S   S38       1.0  0.25925  0.11096  0.67932  1.0000
  S   S39       1.0  0.19286  0.07149  0.72896  1.0000
  S   S40       1.0  0.22595  0.06741  0.68934  1.0000
  Fe  Fe20      1.0  0.11799  0.02455  0.53626  1.0000
  S   S41       1.0  0.12080  0.04959  0.55808  1.0000
  C   C79       1.0  0.06577  0.12819  0.92156  1.0000
  H   H74       1.0  0.19074  0.16941  0.74033  1.0000
  H   H75       1.0  0.11603  0.19160  0.96317  1.0000
  Fe  Fe21      1.0  0.15166  0.04746  0.54798  1.0000
  S   S42       1.0  0.17678  0.05277  0.56939  1.0000
  Fe  Fe22      1.0  0.11724  0.06695  0.52645  1.0000
  H   H76       1.0  0.07774  0.06134  0.53735  1.0000
  S   S43       1.0  0.14921  0.02084  0.52869  1.0000
  C   C80       1.0  0.28444  0.11014  0.68104  1.0000
  C   C81       1.0  0.29407  0.09877  0.69693  1.0000
  C   C82       1.0  0.31408  0.09829  0.69725  1.0000
  C   C83       1.0  0.32477  0.10903  0.68167  1.0000
  C   C84       1.0  0.31512  0.12059  0.66595  1.0000
  C   C85       1.0  0.29511  0.12113  0.66567  1.0000
  H   H77       1.0  0.28615  0.09026  0.70890  1.0000
  H   H78       1.0  0.32136  0.08934  0.70955  1.0000
  H   H79       1.0  0.32307  0.12906  0.65397  1.0000
  H   H80       1.0  0.28783  0.13008  0.65338  1.0000
  C   C86       1.0  0.17380  0.06639  0.64366  1.0000
  C   C87       1.0  0.19076  0.06771  0.63126  1.0000
  C   C88       1.0  0.19153  0.06304  0.60865  1.0000
  C   C89       1.0  0.17539  0.05705  0.59824  1.0000
  C   C90       1.0  0.15853  0.05536  0.61077  1.0000
  C   C91       1.0  0.15777  0.05998  0.63340  1.0000
  H   H81       1.0  0.20320  0.07261  0.63897  1.0000
  H   H82       1.0  0.20465  0.06429  0.59909  1.0000
  H   H83       1.0  0.14603  0.05068  0.60297  1.0000
  H   H84       1.0  0.14462  0.05883  0.64292  1.0000
  C   C92       1.0  0.14552  0.16318  0.77473  1.0000
  C   C93       1.0  0.15005  0.15600  0.75353  1.0000
  C   C94       1.0  0.16416  0.14135  0.75061  1.0000
  C   C95       1.0  0.17424  0.13391  0.76885  1.0000
  C   C96       1.0  0.16966  0.14102  0.79006  1.0000
  C   C97       1.0  0.15533  0.15545  0.79303  1.0000
  H   H85       1.0  0.14257  0.16184  0.73924  1.0000
  H   H86       1.0  0.16750  0.13612  0.73418  1.0000
  H   H87       1.0  0.17736  0.13544  0.80431  1.0000
  H   H88       1.0  0.15212  0.16081  0.80942  1.0000
  C   C98       1.0  0.07237  0.17127  0.95144  1.0000
  C   C99       1.0  0.06721  0.18404  0.93398  1.0000
  C   C100      1.0  0.07857  0.18540  0.91442  1.0000
  C   C101      1.0  0.09525  0.17408  0.91230  1.0000
  C   C102      1.0  0.10041  0.16135  0.92975  1.0000
  C   C103      1.0  0.08897  0.15986  0.94921  1.0000
  H   H89       1.0  0.05439  0.19294  0.93567  1.0000
  H   H90       1.0  0.07457  0.19541  0.90120  1.0000
  H   H91       1.0  0.11333  0.15257  0.92822  1.0000
  H   H92       1.0  0.09306  0.14998  0.96254  1.0000
  S   S44       1.0  0.09926  0.09426  0.52528  1.0000
  C   C104      1.0  0.06799  0.07353  0.53551  1.0000
  C   C105      1.0  0.30349  0.07575  0.64504  1.0000
  C   C106      1.0  0.03552  0.08682  0.53496  1.0000
  N   N8        1.0  0.33489  0.08363  0.63257  1.0000
  H   H93       1.0  0.08262  0.14272  0.87065  1.0000
  C   C107      1.0  0.24963  0.13472  0.72995  1.0000
  C   C108      1.0  0.21010  0.02166  0.77245  1.0000
  C   C109      1.0  0.02677  0.20109  0.79722  1.0000
  C   C110      1.0  0.03562  0.20422  0.77638  1.0000
  S   S45       1.0  0.14839  0.06686  0.51767  1.0000
  H   H94       1.0  0.05085  0.20529  0.77514  1.0000
  C   C111      1.0  0.31565  0.08589  0.63076  1.0000
  C   C112      1.0  0.02473  0.20609  0.75708  1.0000
  H   H95       1.0  0.20735  0.18482  0.75211  1.0000
  H   H96       1.0  0.20432  0.03609  0.77083  1.0000
  C   C113      1.0  0.11014  0.04637  0.99633  1.0000
  H   H97       1.0  0.30958  0.09608  0.61879  1.0000
  H   H98       1.0  0.03217  0.16129  0.90556  1.0000
  H   H99       1.0  0.06729  0.12108  0.52424  1.0000
  H   H100      1.0  0.13618  0.20787  0.89031  1.0000
  C   C114      1.0  0.12908  0.22152  0.89540  1.0000
  N   N9        1.0  0.11748  0.21889  0.91580  1.0000
  H   H101      1.0  0.01324  0.24079  0.80736  1.0000
  S   S46       1.0  0.09576  0.08305  0.99191  1.0000
  H   H102      1.0  0.15339  0.03210  0.73835  1.0000
  H   H103      1.0  0.14000  0.23199  0.89796  1.0000
  H   H104      1.0  0.13528  0.19603  0.92845  1.0000
  H   H105      1.0  0.04028  0.13973  0.93753  1.0000
  C   C115      1.0  0.12292  0.20539  0.93149  1.0000
  H   H106      1.0  0.05560  0.15948  0.85099  1.0000
  H   H107      1.0  0.24386  0.14640  0.69718  1.0000
  H   H108      1.0  0.09751  0.24133  0.90710  1.0000
  N   N10       1.0  0.15232  0.09961  0.57819  1.0000
  C   C116      1.0  0.15325  0.10081  0.60080  1.0000
  C   C117      1.0  0.13524  0.09795  0.56847  1.0000
  C   C118      1.0  0.13688  0.09961  0.61437  1.0000
  C   C119      1.0  0.11860  0.09668  0.58152  1.0000
  C   C120      1.0  0.11948  0.09739  0.60462  1.0000
  C   C121      1.0  0.16958  0.10101  0.56421  1.0000
  H   H109      1.0  0.16678  0.10205  0.60858  1.0000
  H   H110      1.0  0.13440  0.09740  0.55051  1.0000
  H   H111      1.0  0.13785  0.09990  0.63235  1.0000
  H   H112      1.0  0.10515  0.09498  0.57368  1.0000
  H   H113      1.0  0.10672  0.09611  0.61494  1.0000
  H   H114      1.0  0.18225  0.09543  0.57331  1.0000
  H   H115      1.0  0.16890  0.09213  0.54935  1.0000
  H   H116      1.0  0.17151  0.11598  0.55877  1.0000
  H   H117      1.0  0.08690  0.21189  0.96963  1.0000
  N   N11       1.0  0.21868  0.15740  0.74420  1.0000
  C   C122      1.0  0.22842  0.14606  0.75928  1.0000
  C   C123      1.0  0.22414  0.15770  0.72217  1.0000
  C   C124      1.0  0.24394  0.13446  0.75237  1.0000
  C   C125      1.0  0.20282  0.16999  0.75166  1.0000
  H   H118      1.0  0.22381  0.14540  0.77665  1.0000
  H   H119      1.0  0.21638  0.16661  0.71020  1.0000
  H   H120      1.0  0.25125  0.12504  0.76424  1.0000
  H   H121      1.0  0.19738  0.16570  0.76855  1.0000
  C   C126      1.0  0.09576  0.21425  0.95479  1.0000
  H   H122      1.0  0.03674  0.17036  0.86712  1.0000
  H   H123      1.0  0.26155  0.12566  0.72429  1.0000
  C   C127      1.0  0.03813  0.24828  0.82394  1.0000
  C   C128      1.0  0.10169  0.23047  0.91943  1.0000
  H   H124      1.0  0.19173  0.01420  0.80043  1.0000
  C   C129      1.0  0.07290  0.14157  0.88492  1.0000
  C   C130      1.0  0.11213  0.20283  0.95117  1.0000
  C   C131      1.0  0.07485  0.09146  0.53035  1.0000
  C   C132      1.0  0.04238  0.10486  0.53035  1.0000
  H   H125      1.0  0.06033  0.17887  0.86849  1.0000
  C   C133      1.0  0.04926  0.13980  0.92254  1.0000
  C   C134      1.0  0.06203  0.10717  0.52814  1.0000
  H   H126      1.0  0.12019  0.22659  0.88128  1.0000
  C   C135      1.0  0.07771  0.12908  0.90266  1.0000
  H   H127      1.0  0.03172  0.20861  0.74107  1.0000
  N   N12       1.0  0.05647  0.15261  0.88583  1.0000
  C   C136      1.0  0.04839  0.07125  0.53787  1.0000
  H   H128      1.0  0.03256  0.11695  0.52821  1.0000
  H   H129      1.0  0.06957  0.11895  0.93571  1.0000
  H   H130      1.0  0.09090  0.12059  0.90204  1.0000
  H   H131      1.0  0.33686  0.05234  0.67639  1.0000
  C   C137      1.0  0.09783  0.06048  0.00539  1.0000
  H   H132      1.0  0.11743  0.04909  0.98055  1.0000
  C   C138      1.0  0.04481  0.15203  0.90442  1.0000
  H   H133      1.0  0.02919  0.24642  0.75128  1.0000
  Fe  Fe23      1.0  0.06281  0.14645  0.00176  1.0000
  N   N13       1.0  0.19107  0.01837  0.70576  1.0000
  C   C139      1.0  0.05205  0.16598  0.86729  1.0000
  H   H134      1.0  0.17063  0.04158  0.70370  1.0000
  C   C140      1.0  0.17538  0.02881  0.71288  1.0000
  H   H135      1.0  0.19634  0.03822  0.67870  1.0000
  H   H136      1.0  0.06476  0.25702  0.83580  1.0000
  H   H137      1.0  0.07773  0.23708  0.94150  1.0000
  C   C141      1.0  0.16547  0.02346  0.73242  1.0000
  C   C142      1.0  0.09052  0.22824  0.93890  1.0000
  H   H138      1.0  0.04318  0.05727  0.54151  1.0000
  C   C143      1.0  0.31113  0.06336  0.66132  1.0000
  Fe  Fe24      1.0  0.07867  0.10623  0.00952  1.0000
  H   H139      1.0  0.13709  0.07840  0.00465  1.0000
  H   H140      1.0  0.12334  0.01829  0.00113  1.0000
  C   C144      1.0  0.02686  0.24722  0.80533  1.0000
  H   H141      1.0  0.03333  0.24257  0.84001  1.0000
  C   C145      1.0  0.33076  0.06128  0.66318  1.0000
  H   H142      1.0  0.30184  0.05596  0.67302  1.0000
  N   N14       1.0  0.03318  0.25363  0.78482  1.0000
  C   C146      1.0  0.22462  0.01536  0.75779  1.0000
  S   S47       1.0  0.01109  0.08279  0.53562  1.0000
  H   H143      1.0  0.21685  0.02540  0.68929  1.0000
  C   C147      1.0  0.02112  0.25292  0.76546  1.0000
  C   C148      1.0  0.20165  0.02418  0.68552  1.0000
  C   C149      1.0  0.11344  0.02891  0.00790  1.0000
  C   C150      1.0  0.34250  0.07163  0.64862  1.0000
  H   H144      1.0  0.34104  0.09941  0.60234  1.0000
  H   H145      1.0  0.20038  0.01360  0.67246  1.0000
  S   S48       1.0  0.09146  0.13464  0.01185  1.0000
  H   H146      1.0  0.12834  0.10161  0.01119  1.0000
  C   C151      1.0  0.05583  0.25616  0.82153  1.0000
  C   C152      1.0  0.05060  0.26128  0.78228  1.0000
  H   H147      1.0  0.12021  0.26133  0.87877  1.0000
  Fe  Fe25      1.0  0.31411  0.44921  0.22741  1.0000
  S   S49       1.0  0.30061  0.42474  0.24603  1.0000
  S   S50       1.0  0.30943  0.48103  0.23324  1.0000
  H   H148      1.0  0.10770  0.28322  0.14246  1.0000
  S   S51       1.0  0.32341  0.39711  0.21109  1.0000
  C   C153      1.0  0.11779  0.46912  0.17507  1.0000
  Fe  Fe26      1.0  0.29523  0.41355  0.21207  1.0000
  S   S52       1.0  0.27151  0.39554  0.19978  1.0000
  Fe  Fe27      1.0  0.32981  0.41014  0.24327  1.0000
  S   S53       1.0  0.30679  0.43891  0.19348  1.0000
  C   C154      1.0  0.14481  0.44721  0.17887  1.0000
  Fe  Fe28      1.0  0.12859  0.36365  0.15902  1.0000
  S   S54       1.0  0.11260  0.38088  0.13267  1.0000
  S   S55       1.0  0.11189  0.33859  0.17351  1.0000
  Fe  Fe29      1.0  0.15937  0.39346  0.16078  1.0000
  S   S56       1.0  0.14490  0.41209  0.13453  1.0000
  S   S57       1.0  0.18297  0.40804  0.17866  1.0000
  Fe  Fe30      1.0  0.11762  0.40617  0.15345  1.0000
  S   S58       1.0  0.09457  0.42969  0.15991  1.0000
  Fe  Fe31      1.0  0.14106  0.38534  0.11581  1.0000
  S   S59       1.0  0.15019  0.38173  0.07866  1.0000
  S   S60       1.0  0.13201  0.38894  0.18044  1.0000
  S   S61       1.0  0.15706  0.36674  0.14131  1.0000
  Fe  Fe32      1.0  0.03204  0.48514  0.26246  1.0000
  S   S62       1.0  0.05247  0.46136  0.24845  1.0000
  S   S63       1.0  0.03477  0.48550  0.29979  1.0000
  C   C155      1.0  0.08347  0.43855  0.18485  1.0000
  C   C156      1.0  0.08785  0.43107  0.20604  1.0000
  C   C157      1.0  0.07833  0.43835  0.22520  1.0000
  C   C158      1.0  0.06442  0.45331  0.22357  1.0000
  C   C159      1.0  0.06027  0.46094  0.20239  1.0000
  C   C160      1.0  0.06966  0.45356  0.18322  1.0000
  H   H149      1.0  0.09844  0.41958  0.20766  1.0000
  H   H150      1.0  0.08170  0.43231  0.24146  1.0000
  H   H151      1.0  0.04963  0.47240  0.20075  1.0000
  H   H152      1.0  0.06613  0.45952  0.16697  1.0000
  H   H153      1.0  0.31647  0.46871  0.27953  1.0000
  C   C161      1.0  0.12342  0.39083  0.04571  1.0000
  C   C162      1.0  0.14208  0.38495  0.05064  1.0000
  C   C163      1.0  0.15487  0.38115  0.03267  1.0000
  C   C164      1.0  0.32398  0.34697  0.24981  1.0000
  H   H154      1.0  0.11335  0.39385  0.05918  1.0000
  H   H155      1.0  0.16936  0.37666  0.03614  1.0000
  H   H156      1.0  0.12495  0.45638  0.22910  1.0000
  C   C165      1.0  0.31042  0.49336  0.25847  1.0000
  C   C166      1.0  0.31465  0.48403  0.27873  1.0000
  N   N15       1.0  0.30961  0.41763  0.13139  1.0000
  H   H157      1.0  0.16981  0.43693  0.21061  1.0000
  H   H158      1.0  0.07633  0.26859  0.14227  1.0000
  C   C167      1.0  0.24704  0.39967  0.19338  1.0000
  C   C168      1.0  0.23687  0.41659  0.19826  1.0000
  C   C169      1.0  0.21739  0.41886  0.19349  1.0000
  C   C170      1.0  0.20778  0.40439  0.18357  1.0000
  C   C171      1.0  0.21801  0.38756  0.17846  1.0000
  C   C172      1.0  0.23744  0.38521  0.18344  1.0000
  H   H159      1.0  0.24393  0.42786  0.20593  1.0000
  H   H160      1.0  0.20972  0.43196  0.19755  1.0000
  H   H161      1.0  0.21090  0.37626  0.17089  1.0000
  H   H162      1.0  0.24506  0.37203  0.17958  1.0000
  H   H163      1.0  0.10324  0.47641  0.20586  1.0000
  C   C173      1.0  0.15474  0.43437  0.21515  1.0000
  C   C174      1.0  0.12503  0.27529  0.19251  1.0000
  C   C175      1.0  0.13969  0.28690  0.18477  1.0000
  C   C176      1.0  0.13600  0.30623  0.17878  1.0000
  C   C177      1.0  0.11757  0.31427  0.18061  1.0000
  C   C178      1.0  0.10291  0.30265  0.18836  1.0000
  C   C179      1.0  0.10658  0.28330  0.19423  1.0000
  H   H164      1.0  0.15403  0.28091  0.18338  1.0000
  H   H165      1.0  0.14745  0.31494  0.17291  1.0000
  H   H166      1.0  0.08859  0.30865  0.18987  1.0000
  H   H167      1.0  0.09513  0.27459  0.20010  1.0000
  S   S64       1.0  0.34218  0.39464  0.27405  1.0000
  H   H168      1.0  0.05414  0.47379  0.34932  1.0000
  C   C180      1.0  0.11773  0.39282  0.02331  1.0000
  H   H169      1.0  0.10048  0.36673  0.20949  1.0000
  H   H170      1.0  0.29223  0.40975  0.15985  1.0000
  C   C181      1.0  0.01049  0.51025  0.36142  1.0000
  C   C182      1.0  0.29274  0.38060  0.28279  1.0000
  C   C183      1.0  0.13268  0.45836  0.16532  1.0000
  H   H171      1.0  0.02188  0.48400  0.34862  1.0000
  H   H172      1.0  0.08240  0.36488  0.23113  1.0000
  H   H173      1.0  0.08223  0.35002  0.20740  1.0000
  C   C184      1.0  0.32826  0.42437  0.09821  1.0000
  H   H174      1.0  0.07051  0.48719  0.36401  1.0000
  H   H175      1.0  0.28999  0.35788  0.21199  1.0000
  H   H176      1.0  0.27751  0.37723  0.24297  1.0000
  N   N16       1.0  0.07362  0.37880  0.20053  1.0000
  C   C185      1.0  0.06191  0.39157  0.21159  1.0000
  C   C186      1.0  0.07499  0.37949  0.17779  1.0000
  C   C187      1.0  0.05114  0.40545  0.19978  1.0000
  C   C188      1.0  0.06455  0.39327  0.16547  1.0000
  C   C189      1.0  0.05258  0.40633  0.17658  1.0000
  C   C190      1.0  0.08518  0.36447  0.21288  1.0000
  H   H177      1.0  0.06109  0.39137  0.22963  1.0000
  H   H178      1.0  0.08443  0.36950  0.16906  1.0000
  H   H179      1.0  0.04236  0.41598  0.20858  1.0000
  H   H180      1.0  0.32317  0.45199  0.08262  1.0000
  N   N17       1.0  0.04373  0.50146  0.35876  1.0000
  H   H181      1.0  0.28344  0.39267  0.27662  1.0000
  C   C191      1.0  0.29054  0.36868  0.24509  1.0000
  N   N18       1.0  0.30021  0.36900  0.26445  1.0000
  H   H182      1.0  0.29823  0.46174  0.11058  1.0000
  Fe  Fe33      1.0  0.33509  0.42322  0.19441  1.0000
  C   C192      1.0  0.30057  0.43517  0.12952  1.0000
  H   H183      1.0  0.15261  0.43681  0.23321  1.0000
  H   H184      1.0  0.06629  0.39426  0.14748  1.0000
  H   H185      1.0  0.14347  0.34151  0.01472  1.0000
  C   C193      1.0  0.31646  0.35797  0.26715  1.0000
  H   H186      1.0  0.10786  0.47727  0.16469  1.0000
  C   C194      1.0  0.31684  0.49456  0.29794  1.0000
  C   C195      1.0  0.30512  0.44770  0.11181  1.0000
  H   H187      1.0  0.15225  0.41924  0.21208  1.0000
  C   C196      1.0  0.31899  0.44219  0.09602  1.0000
  C   C197      1.0  0.11518  0.46859  0.19817  1.0000
  C   C198      1.0  0.10684  0.26789  0.14247  1.0000
  H   H188      1.0  0.28993  0.43965  0.14187  1.0000
  H   H189      1.0  0.13445  0.45817  0.14733  1.0000
  C   C199      1.0  0.31445  0.34688  0.22982  1.0000
  C   C200      1.0  0.30486  0.40455  0.14996  1.0000
  C   C201      1.0  0.32349  0.41227  0.11623  1.0000
  C   C202      1.0  0.12747  0.45711  0.21122  1.0000
  H   H190      1.0  0.32035  0.48721  0.31347  1.0000
  H   H191      1.0  0.32024  0.33861  0.21612  1.0000
  H   H192      1.0  0.10325  0.39735  0.01989  1.0000
  H   H193      1.0  0.15625  0.43873  0.17115  1.0000
  N   N19       1.0  0.14213  0.44671  0.20150  1.0000
  H   H194      1.0  0.06535  0.49347  0.33537  1.0000
  C   C203      1.0  0.29752  0.35766  0.22749  1.0000
  H   H195      1.0  0.32409  0.35814  0.28255  1.0000
  H   H196      1.0  0.04499  0.41755  0.16725  1.0000
  H   H197      1.0  0.28456  0.37174  0.29488  1.0000
  H   H198      1.0  0.33730  0.33885  0.25180  1.0000
  H   H199      1.0  0.30450  0.38692  0.29148  1.0000
  H   H200      1.0  0.31699  0.40275  0.16127  1.0000
  C   C204      1.0  0.05918  0.48827  0.35157  1.0000
  C   C205      1.0  0.02528  0.49729  0.35575  1.0000
  H   H201      1.0  0.33129  0.39876  0.11836  1.0000
  H   H202      1.0  0.30161  0.39047  0.14370  1.0000
  H   H203      1.0  0.33974  0.45531  0.15435  1.0000
  H   H204      1.0  0.33962  0.42032  0.08654  1.0000
  H   H205      1.0  0.13688  0.26269  0.14472  1.0000
  Fe  Fe34      1.0  0.33211  0.42323  0.85927  1.0000
  S   S65       1.0  0.32261  0.39711  0.84308  1.0000
  H   H206      1.0  0.30360  0.37611  0.91440  1.0000
  Fe  Fe35      1.0  0.31190  0.44959  0.82566  1.0000
  S   S66       1.0  0.30080  0.42532  0.80730  1.0000
  S   S67       1.0  0.30348  0.48073  0.81781  1.0000
  Fe  Fe36      1.0  0.29394  0.41236  0.84117  1.0000
  S   S68       1.0  0.26942  0.39281  0.84922  1.0000
  Fe  Fe37      1.0  0.33024  0.41173  0.81067  1.0000
  S   S69       1.0  0.30300  0.43744  0.85963  1.0000
  Fe  Fe38      1.0  0.13300  0.35914  0.90144  1.0000
  S   S70       1.0  0.10920  0.37620  0.91827  1.0000
  S   S71       1.0  0.13120  0.32654  0.90059  1.0000
  Fe  Fe39      1.0  0.15909  0.39280  0.89971  1.0000
  S   S72       1.0  0.13665  0.41145  0.91683  1.0000
  S   S73       1.0  0.18575  0.40947  0.89085  1.0000
  Fe  Fe40      1.0  0.13136  0.38683  0.94051  1.0000
  S   S74       1.0  0.12201  0.39080  0.97745  1.0000
  Fe  Fe41      1.0  0.11597  0.39993  0.89351  1.0000
  S   S75       1.0  0.09294  0.42211  0.88153  1.0000
  S   S76       1.0  0.15500  0.36876  0.92496  1.0000
  S   S77       1.0  0.13861  0.38230  0.87511  1.0000
  Fe  Fe42      1.0  0.03087  0.48349  0.78303  1.0000
  S   S78       1.0  0.02611  0.48125  0.74612  1.0000
  S   S79       1.0  0.05374  0.46100  0.79479  1.0000
  C   C206      1.0  0.06391  0.45001  0.81931  1.0000
  C   C207      1.0  0.05903  0.45588  0.84083  1.0000
  C   C208      1.0  0.06781  0.44694  0.85954  1.0000
  C   C209      1.0  0.08158  0.43197  0.85717  1.0000
  C   C210      1.0  0.08643  0.42606  0.83565  1.0000
  C   C211      1.0  0.07772  0.43506  0.81693  1.0000
  H   H207      1.0  0.04847  0.46730  0.84310  1.0000
  H   H208      1.0  0.06387  0.45170  0.87604  1.0000
  H   H209      1.0  0.09694  0.41459  0.83342  1.0000
  H   H210      1.0  0.08162  0.43028  0.80044  1.0000
  C   C212      1.0  0.30553  0.38725  0.90117  1.0000
  C   C213      1.0  0.32071  0.35553  0.77140  1.0000
  C   C214      1.0  0.30954  0.49363  0.79297  1.0000
  C   C215      1.0  0.07047  0.47980  0.70838  1.0000
  N   N20       1.0  0.29811  0.40564  0.90906  1.0000
  H   H211      1.0  0.06887  0.46464  0.71333  1.0000
  C   C216      1.0  0.32325  0.48669  0.77768  1.0000
  H   H212      1.0  0.06806  0.47191  0.75208  1.0000
  C   C217      1.0  0.30248  0.43393  0.92910  1.0000
  C   C218      1.0  0.24600  0.39788  0.86019  1.0000
  C   C219      1.0  0.23366  0.38290  0.86383  1.0000
  C   C220      1.0  0.21519  0.38610  0.87306  1.0000
  C   C221      1.0  0.20882  0.40439  0.87891  1.0000
  C   C222      1.0  0.22119  0.41937  0.87528  1.0000
  C   C223      1.0  0.23961  0.41618  0.86595  1.0000
  H   H213      1.0  0.23840  0.36866  0.85951  1.0000
  H   H214      1.0  0.20592  0.37441  0.87573  1.0000
  H   H215      1.0  0.21645  0.43359  0.87968  1.0000
  H   H216      1.0  0.24884  0.42790  0.86319  1.0000
  C   C224      1.0  0.33242  0.33744  0.81059  1.0000
  S   S80       1.0  0.10442  0.26421  0.83380  1.0000
  H   H217      1.0  0.11022  0.35269  0.00985  1.0000
  C   C225      1.0  0.11189  0.28128  0.85274  1.0000
  C   C226      1.0  0.11899  0.27611  0.87369  1.0000
  C   C227      1.0  0.12476  0.29014  0.88799  1.0000
  C   C228      1.0  0.12353  0.30958  0.88166  1.0000
  C   C229      1.0  0.11633  0.31477  0.86077  1.0000
  C   C230      1.0  0.11058  0.30072  0.84646  1.0000
  H   H218      1.0  0.15930  0.38028  0.99681  1.0000
  H   H219      1.0  0.13036  0.28591  0.90403  1.0000
  H   H220      1.0  0.11528  0.32959  0.85557  1.0000
  H   H221      1.0  0.10516  0.30498  0.83033  1.0000
  N   N21       1.0  0.10970  0.34494  0.97587  1.0000
  C   C231      1.0  0.30918  0.41623  0.92164  1.0000
  C   C232      1.0  0.31833  0.35207  0.81080  1.0000
  N   N22       1.0  0.13255  0.45267  0.87794  1.0000
  C   C233      1.0  0.15001  0.44364  0.87546  1.0000
  C   C234      1.0  0.12109  0.45549  0.86009  1.0000
  C   C235      1.0  0.15626  0.43690  0.85475  1.0000
  C   C236      1.0  0.12689  0.44896  0.83914  1.0000
  C   C237      1.0  0.14455  0.43949  0.83654  1.0000
  C   C238      1.0  0.12557  0.45880  0.89988  1.0000
  H   H222      1.0  0.15911  0.44122  0.88959  1.0000
  H   H223      1.0  0.10705  0.46219  0.86221  1.0000
  H   H224      1.0  0.16996  0.42938  0.85302  1.0000
  H   H225      1.0  0.11747  0.45075  0.82523  1.0000
  H   H226      1.0  0.14907  0.43393  0.82054  1.0000
  H   H227      1.0  0.13669  0.45708  0.91258  1.0000
  H   H228      1.0  0.12060  0.47395  0.89902  1.0000
  H   H229      1.0  0.11354  0.45006  0.90564  1.0000
  H   H230      1.0  0.07960  0.49068  0.78235  1.0000
  N   N23       1.0  0.07878  0.49017  0.72614  1.0000
  C   C239      1.0  0.11986  0.33771  0.95812  1.0000
  C   C240      1.0  0.14921  0.38324  0.01027  1.0000
  N   N24       1.0  0.31274  0.36096  0.79135  1.0000
  H   H231      1.0  0.31666  0.36297  0.75607  1.0000
  H   H232      1.0  0.05568  0.26626  0.76602  1.0000
  H   H233      1.0  0.27884  0.45435  0.92951  1.0000
  H   H234      1.0  0.32988  0.47271  0.78043  1.0000
  H   H235      1.0  0.30259  0.38869  0.78159  1.0000
  C   C241      1.0  0.29785  0.37614  0.79159  1.0000
  H   H236      1.0  0.27094  0.40309  0.89525  1.0000
  H   H237      1.0  0.08168  0.35162  0.98848  1.0000
  H   H238      1.0  0.14682  0.32598  0.94601  1.0000
  H   H239      1.0  0.31155  0.44245  0.93860  1.0000
  C   C242      1.0  0.27270  0.42936  0.91184  1.0000
  H   H240      1.0  0.28470  0.37113  0.78457  1.0000
  H   H241      1.0  0.31207  0.35643  0.82662  1.0000
  H   H242      1.0  0.32088  0.38784  0.89655  1.0000
  C   C243      1.0  0.13877  0.33135  0.96033  1.0000
  H   H243      1.0  0.32343  0.41113  0.92570  1.0000
  H   H244      1.0  0.29439  0.38098  0.80872  1.0000
  H   H245      1.0  0.05623  0.48632  0.70466  1.0000
  H   H246      1.0  0.33928  0.49249  0.74729  1.0000
  C   C244      1.0  0.08241  0.49505  0.76512  1.0000
  C   C245      1.0  0.07585  0.48449  0.74790  1.0000
  C   C246      1.0  0.13684  0.33991  0.99886  1.0000
  C   C247      1.0  0.11795  0.34611  0.99605  1.0000
  H   H247      1.0  0.08978  0.51130  0.70375  1.0000
  H   H248      1.0  0.16214  0.32823  0.98259  1.0000
  C   C248      1.0  0.32858  0.49798  0.75893  1.0000
  C   C249      1.0  0.27992  0.41175  0.90462  1.0000
  H   H249      1.0  0.29820  0.38325  0.88600  1.0000
  H   H250      1.0  0.11349  0.33715  0.94198  1.0000
  C   C250      1.0  0.09033  0.35276  0.97280  1.0000
  C   C251      1.0  0.33470  0.34086  0.77057  1.0000
  H   H251      1.0  0.09078  0.36802  0.96761  1.0000
  H   H252      1.0  0.34281  0.47677  0.92901  1.0000
  H   H253      1.0  0.08312  0.34519  0.95979  1.0000
  C   C252      1.0  0.28415  0.44057  0.92400  1.0000
  H   H254      1.0  0.25837  0.43426  0.90787  1.0000
  C   C253      1.0  0.13053  0.38906  0.00537  1.0000
  C   C254      1.0  0.14732  0.33258  0.98082  1.0000
  H   H255      1.0  0.07945  0.48035  0.69292  1.0000
  H   H256      1.0  0.33732  0.45585  0.89755  1.0000
  C   C255      1.0  0.08826  0.50627  0.72093  1.0000
  C   C256      1.0  0.34063  0.33183  0.79031  1.0000
  H   H257      1.0  0.34282  0.49943  0.65032  1.0000
  C   C257      1.0  0.06216  0.26269  0.80059  1.0000
  H   H258      1.0  0.07608  0.26858  0.79860  1.0000
  H   H259      1.0  0.33717  0.33073  0.82605  1.0000
  H   H260      1.0  0.34145  0.33700  0.75480  1.0000
  S   S81       1.0  0.34180  0.43703  0.82678  1.0000
  H   H261      1.0  0.01585  0.26745  0.76042  1.0000
  C   C258      1.0  0.04795  0.51839  0.36741  1.0000
  Fe  Fe43      1.0  0.29757  0.59476  0.34163  1.0000
  S   S82       1.0  0.31072  0.56975  0.36058  1.0000
  S   S83       1.0  0.27137  0.61197  0.35466  1.0000
  Fe  Fe44      1.0  0.33288  0.59788  0.30961  1.0000
  H   H262      1.0  0.27785  0.60984  0.26851  1.0000
  Fe  Fe45      1.0  0.31997  0.55897  0.32668  1.0000
  S   S84       1.0  0.31952  0.52706  0.32144  1.0000
  C   C259      1.0  0.31150  0.56739  0.43984  1.0000
  C   C260      1.0  0.19467  0.60088  0.45039  1.0000
  S   S85       1.0  0.30512  0.58313  0.30768  1.0000
  S   S86       1.0  0.32409  0.61142  0.34168  1.0000
  Fe  Fe46      1.0  0.13658  0.61598  0.43592  1.0000
  S   S87       1.0  0.15716  0.63316  0.41511  1.0000
  S   S88       1.0  0.14292  0.61732  0.47359  1.0000
  Fe  Fe47      1.0  0.11489  0.60589  0.39305  1.0000
  S   S89       1.0  0.13399  0.62317  0.37042  1.0000
  S   S90       1.0  0.08715  0.59446  0.37992  1.0000
  Fe  Fe48      1.0  0.15803  0.60976  0.39060  1.0000
  S   S91       1.0  0.18418  0.59402  0.37494  1.0000
  Fe  Fe49      1.0  0.13175  0.64530  0.39673  1.0000
  S   S92       1.0  0.12464  0.67732  0.39607  1.0000
  S   S93       1.0  0.13891  0.59146  0.41235  1.0000
  S   S94       1.0  0.11122  0.62901  0.41840  1.0000
  C   C261      1.0  0.32402  0.57300  0.45561  1.0000
  H   H263      1.0  0.32858  0.56320  0.46894  1.0000
  S   S95       1.0  0.06027  0.53063  0.31441  1.0000
  C   C262      1.0  0.08029  0.57709  0.36077  1.0000
  C   C263      1.0  0.06115  0.57684  0.35475  1.0000
  C   C264      1.0  0.05486  0.56321  0.34016  1.0000
  C   C265      1.0  0.06757  0.54929  0.33153  1.0000
  C   C266      1.0  0.08671  0.54956  0.33752  1.0000
  C   C267      1.0  0.09306  0.56335  0.35187  1.0000
  H   H264      1.0  0.05106  0.58733  0.36140  1.0000
  H   H265      1.0  0.04012  0.56336  0.33576  1.0000
  H   H266      1.0  0.09677  0.53897  0.33103  1.0000
  H   H267      1.0  0.10781  0.56321  0.35620  1.0000
  C   C268      1.0  0.24726  0.60648  0.36047  1.0000
  C   C269      1.0  0.24023  0.58881  0.35613  1.0000
  C   C270      1.0  0.22091  0.58537  0.36054  1.0000
  C   C271      1.0  0.20834  0.59946  0.36937  1.0000
  C   C272      1.0  0.21540  0.61711  0.37381  1.0000
  C   C273      1.0  0.23470  0.62058  0.36932  1.0000
  H   H268      1.0  0.24962  0.57780  0.34929  1.0000
  H   H269      1.0  0.21565  0.57166  0.35703  1.0000
  H   H270      1.0  0.20596  0.62813  0.38056  1.0000
  H   H271      1.0  0.23990  0.63434  0.37271  1.0000
  H   H272      1.0  0.09234  0.64712  0.31272  1.0000
  C   C274      1.0  0.31015  0.52382  0.27705  1.0000
  H   H273      1.0  0.24545  0.62654  0.31464  1.0000
  H   H274      1.0  0.08471  0.66383  0.40671  1.0000
  H   H275      1.0  0.11058  0.59969  0.49724  1.0000
  H   H276      1.0  0.06148  0.67253  0.39778  1.0000
  C   C275      1.0  0.27878  0.64033  0.31014  1.0000
  Fe  Fe50      1.0  0.33758  0.58555  0.35873  1.0000
  H   H277      1.0  0.30849  0.53913  0.27621  1.0000
  C   C276      1.0  0.11345  0.72515  0.34309  1.0000
  C   C277      1.0  0.12003  0.70696  0.33652  1.0000
  C   C278      1.0  0.12414  0.69228  0.35244  1.0000
  C   C279      1.0  0.12140  0.69555  0.37516  1.0000
  C   C280      1.0  0.11502  0.71377  0.38171  1.0000
  C   C281      1.0  0.11113  0.72850  0.36582  1.0000
  H   H278      1.0  0.12196  0.70424  0.31898  1.0000
  H   H279      1.0  0.12913  0.67839  0.34713  1.0000
  H   H280      1.0  0.11295  0.71652  0.39923  1.0000
  H   H281      1.0  0.10607  0.74238  0.37114  1.0000
  C   C282      1.0  0.30060  0.62814  0.27385  1.0000
  C   C283      1.0  0.18660  0.57486  0.42805  1.0000
  H   H282      1.0  0.16201  0.57823  0.49858  1.0000
  H   H283      1.0  0.29688  0.57539  0.40993  1.0000
  H   H284      1.0  0.18106  0.60185  0.48271  1.0000
  H   H285      1.0  0.20537  0.59663  0.41690  1.0000
  H   H286      1.0  0.30452  0.52062  0.24228  1.0000
  H   H287      1.0  0.27055  0.64490  0.32469  1.0000
  H   H288      1.0  0.08183  0.68734  0.39555  1.0000
  H   H289      1.0  0.32137  0.64724  0.28398  1.0000
  H   H290      1.0  0.08942  0.62443  0.34513  1.0000
  H   H291      1.0  0.18762  0.56757  0.41240  1.0000
  H   H292      1.0  0.24537  0.61793  0.28689  1.0000
  C   C284      1.0  0.28285  0.62080  0.27880  1.0000
  H   H293      1.0  0.08761  0.68188  0.31849  1.0000
  S   S96       1.0  0.10731  0.74273  0.32229  1.0000
  S   S97       1.0  0.03418  0.51708  0.25867  1.0000
  H   H294      1.0  0.14506  0.57497  0.47760  1.0000
  H   H295      1.0  0.30189  0.65820  0.31665  1.0000
  H   H296      1.0  0.06259  0.52203  0.36897  1.0000
  C   C285      1.0  0.19656  0.59122  0.43055  1.0000
  C   C286      1.0  0.13644  0.61361  0.50247  1.0000
  C   C287      1.0  0.17472  0.56845  0.44546  1.0000
  H   H297      1.0  0.30608  0.55325  0.44096  1.0000
  C   C288      1.0  0.18290  0.59392  0.46759  1.0000
  N   N25       1.0  0.31392  0.59750  0.42028  1.0000
  C   C289      1.0  0.30650  0.57993  0.42222  1.0000
  H   H298      1.0  0.25652  0.60377  0.30902  1.0000
  Fe  Fe51      1.0  0.03563  0.51737  0.29626  1.0000
  N   N26       1.0  0.17308  0.57790  0.46497  1.0000
  N   N27       1.0  0.08118  0.66569  0.37165  1.0000
  C   C290      1.0  0.08215  0.67823  0.35384  1.0000
  C   C291      1.0  0.08336  0.64657  0.36858  1.0000
  C   C292      1.0  0.08621  0.67178  0.33240  1.0000
  C   C293      1.0  0.08738  0.63961  0.34736  1.0000
  C   C294      1.0  0.08895  0.65233  0.32920  1.0000
  C   C295      1.0  0.07693  0.67268  0.39401  1.0000
  H   H299      1.0  0.08047  0.69342  0.35623  1.0000
  H   H300      1.0  0.08218  0.63655  0.38258  1.0000
  N   N28       1.0  0.27216  0.62697  0.29671  1.0000
  C   C296      1.0  0.31484  0.51451  0.29718  1.0000
  H   H301      1.0  0.20187  0.61396  0.45221  1.0000
  C   C297      1.0  0.25397  0.61842  0.30200  1.0000
  H   H302      1.0  0.30930  0.62295  0.25995  1.0000
  H   H303      1.0  0.16650  0.55612  0.44307  1.0000
  H   H304      1.0  0.16170  0.55574  0.48548  1.0000
  C   C298      1.0  0.30744  0.64176  0.28743  1.0000
  C   C299      1.0  0.29651  0.64790  0.30573  1.0000
  H   H305      1.0  0.29951  0.62275  0.40847  1.0000
  C   C300      1.0  0.15987  0.57132  0.48254  1.0000
  C   C301      1.0  0.30791  0.51328  0.25784  1.0000
  C   C302      1.0  0.33140  0.59098  0.45358  1.0000
  C   C303      1.0  0.32624  0.60309  0.43565  1.0000
  H   H306      1.0  0.32131  0.61628  0.39340  1.0000
  H   H307      1.0  0.03699  0.54521  0.37978  1.0000
  H   H308      1.0  0.33259  0.61677  0.43369  1.0000
  H   H309      1.0  0.30033  0.60378  0.38925  1.0000
  C   C304      1.0  0.30846  0.61072  0.40199  1.0000
  C   C305      1.0  0.03350  0.53164  0.37340  1.0000
  H   H310      1.0  0.34168  0.59518  0.46532  1.0000
  C   C306      1.0  0.12000  0.60453  0.50950  1.0000
  C   C307      1.0  0.01467  0.52755  0.37023  1.0000
  H   H311      1.0  0.01796  0.76132  0.27538  1.0000
  S   S98       1.0  0.11789  0.74345  0.71395  1.0000
  Fe  Fe52      1.0  0.32062  0.56180  0.72661  1.0000
  S   S99       1.0  0.30479  0.58251  0.74873  1.0000
  S   S100      1.0  0.32848  0.53040  0.73228  1.0000
  H   H312      1.0  0.07975  0.72183  0.75757  1.0000
  S   S101      1.0  0.31637  0.61581  0.71249  1.0000
  H   H313      1.0  0.33561  0.54461  0.61835  1.0000
  Fe  Fe53      1.0  0.32957  0.60140  0.74251  1.0000
  Fe  Fe54      1.0  0.29273  0.59541  0.71684  1.0000
  S   S102      1.0  0.26216  0.60797  0.71515  1.0000
  C   C308      1.0  0.32745  0.57124  0.80376  1.0000
  S   S103      1.0  0.30697  0.57324  0.69507  1.0000
  Fe  Fe55      1.0  0.13205  0.64443  0.64574  1.0000
  S   S104      1.0  0.15291  0.63286  0.61963  1.0000
  S   S105      1.0  0.12414  0.67648  0.64395  1.0000
  Fe  Fe56      1.0  0.12191  0.60418  0.66311  1.0000
  S   S106      1.0  0.14188  0.59025  0.63802  1.0000
  S   S107      1.0  0.10697  0.58890  0.69301  1.0000
  Fe  Fe57      1.0  0.16277  0.61198  0.64672  1.0000
  S   S108      1.0  0.19346  0.59987  0.64930  1.0000
  Fe  Fe58      1.0  0.13094  0.61205  0.61246  1.0000
  S   S109      1.0  0.12078  0.60435  0.57774  1.0000
  S   S110      1.0  0.14349  0.62495  0.67320  1.0000
  S   S111      1.0  0.10938  0.62458  0.63719  1.0000
  C   C309      1.0  0.12334  0.66464  0.55442  1.0000
  S   S112      1.0  0.04525  0.52565  0.71335  1.0000
  H   H314      1.0  0.32814  0.63573  0.64880  1.0000
  C   C310      1.0  0.08900  0.57196  0.69796  1.0000
  C   C311      1.0  0.08204  0.56129  0.68103  1.0000
  C   C312      1.0  0.06845  0.54752  0.68605  1.0000
  C   C313      1.0  0.06142  0.54426  0.70798  1.0000
  C   C314      1.0  0.06825  0.55506  0.72489  1.0000
  C   C315      1.0  0.08200  0.56867  0.71991  1.0000
  H   H315      1.0  0.08719  0.56354  0.66407  1.0000
  H   H316      1.0  0.06333  0.53934  0.67276  1.0000
  H   H317      1.0  0.06305  0.55282  0.74184  1.0000
  H   H318      1.0  0.08716  0.57682  0.73320  1.0000
  C   C316      1.0  0.12765  0.60776  0.54892  1.0000
  C   C317      1.0  0.11572  0.60160  0.53249  1.0000
  H   H319      1.0  0.31572  0.61154  0.62811  1.0000
  H   H320      1.0  0.26678  0.64468  0.68962  1.0000
  C   C318      1.0  0.28322  0.62832  0.66557  1.0000
  C   C319      1.0  0.14410  0.61687  0.54189  1.0000
  H   H321      1.0  0.10295  0.59454  0.53759  1.0000
  H   H322      1.0  0.29249  0.66683  0.69518  1.0000
  C   C320      1.0  0.32037  0.51632  0.75534  1.0000
  H   H323      1.0  0.15346  0.62175  0.55419  1.0000
  C   C321      1.0  0.24337  0.60563  0.69640  1.0000
  C   C322      1.0  0.24450  0.59260  0.67931  1.0000
  C   C323      1.0  0.22922  0.59134  0.66488  1.0000
  C   C324      1.0  0.21260  0.60300  0.66730  1.0000
  C   C325      1.0  0.21151  0.61608  0.68433  1.0000
  C   C326      1.0  0.22678  0.61733  0.69877  1.0000
  H   H324      1.0  0.25708  0.58342  0.67729  1.0000
  H   H325      1.0  0.23024  0.58113  0.65181  1.0000
  H   H326      1.0  0.19886  0.62516  0.68644  1.0000
  H   H327      1.0  0.22574  0.62750  0.71188  1.0000
  Fe  Fe59      1.0  0.33124  0.59269  0.69276  1.0000
  H   H328      1.0  0.27206  0.61852  0.66363  1.0000
  C   C327      1.0  0.19074  0.57816  0.70622  1.0000
  C   C328      1.0  0.15403  0.59177  0.71547  1.0000
  N   N29       1.0  0.12139  0.66815  0.57666  1.0000
  C   C329      1.0  0.12003  0.72522  0.69398  1.0000
  C   C330      1.0  0.11551  0.72848  0.67163  1.0000
  C   C331      1.0  0.11684  0.71340  0.65667  1.0000
  C   C332      1.0  0.12268  0.69485  0.66378  1.0000
  C   C333      1.0  0.12706  0.69158  0.68616  1.0000
  C   C334      1.0  0.12575  0.70666  0.70111  1.0000
  H   H329      1.0  0.11106  0.74262  0.66584  1.0000
  H   H330      1.0  0.11343  0.71618  0.63942  1.0000
  H   H331      1.0  0.13157  0.67745  0.69195  1.0000
  H   H332      1.0  0.12927  0.70392  0.71834  1.0000
  C   C335      1.0  0.05697  0.75409  0.72561  1.0000
  C   C336      1.0  0.13432  0.68059  0.58714  1.0000
  N   N30       1.0  0.06934  0.73914  0.73046  1.0000
  H   H333      1.0  0.14310  0.68853  0.57472  1.0000
  C   C337      1.0  0.04995  0.75686  0.70418  1.0000
  H   H334      1.0  0.06798  0.74377  0.76548  1.0000
  H   H335      1.0  0.14391  0.67206  0.59831  1.0000
  C   C338      1.0  0.07745  0.73705  0.75261  1.0000
  H   H336      1.0  0.31764  0.53018  0.83218  1.0000
  H   H337      1.0  0.17093  0.56324  0.66134  1.0000
  C   C339      1.0  0.11112  0.65264  0.54442  1.0000
  C   C340      1.0  0.31881  0.55911  0.81937  1.0000
  C   C341      1.0  0.32442  0.53988  0.82035  1.0000
  S   S113      1.0  0.34214  0.61454  0.77293  1.0000
  C   C342      1.0  0.15798  0.57910  0.69837  1.0000
  C   C343      1.0  0.30322  0.60979  0.63958  1.0000
  H   H338      1.0  0.13451  0.67092  0.54430  1.0000
  H   H339      1.0  0.29067  0.60814  0.62925  1.0000
  C   C344      1.0  0.30646  0.52316  0.77044  1.0000
  C   C345      1.0  0.09541  0.64737  0.58011  1.0000
  H   H340      1.0  0.32337  0.66220  0.67457  1.0000
  H   H341      1.0  0.10204  0.53022  0.73348  1.0000
  H   H342      1.0  0.13958  0.59710  0.71875  1.0000
  H   H343      1.0  0.19904  0.59574  0.73264  1.0000
  H   H344      1.0  0.16601  0.60803  0.74083  1.0000
  C   C346      1.0  0.31188  0.65295  0.67186  1.0000
  H   H345      1.0  0.10645  0.66202  0.60721  1.0000
  C   C347      1.0  0.18733  0.59095  0.72333  1.0000
  H   H346      1.0  0.17724  0.54470  0.68181  1.0000
  H   H347      1.0  0.14638  0.57465  0.68862  1.0000
  C   C348      1.0  0.31447  0.63793  0.65728  1.0000
  H   H348      1.0  0.20521  0.57312  0.70257  1.0000
  C   C349      1.0  0.09710  0.64395  0.55741  1.0000
  N   N31       1.0  0.30017  0.62594  0.65418  1.0000
  H   H349      1.0  0.30776  0.56460  0.83064  1.0000
  C   C350      1.0  0.28013  0.64317  0.68026  1.0000
  C   C351      1.0  0.14845  0.61969  0.51888  1.0000
  C   C352      1.0  0.34056  0.56927  0.63726  1.0000
  H   H350      1.0  0.29995  0.53721  0.76784  1.0000
  C   C353      1.0  0.10772  0.65961  0.58950  1.0000
  H   H351      1.0  0.08811  0.63392  0.55010  1.0000
  H   H352      1.0  0.11298  0.64948  0.52691  1.0000
  N   N32       1.0  0.17619  0.57271  0.69371  1.0000
  C   C354      1.0  0.29457  0.65554  0.68342  1.0000
  H   H353      1.0  0.32962  0.56633  0.64968  1.0000
  H   H354      1.0  0.08507  0.64005  0.59051  1.0000
  H   H355      1.0  0.12618  0.69115  0.59742  1.0000
  C   C355      1.0  0.16885  0.59787  0.72786  1.0000
  H   H356      1.0  0.30587  0.59660  0.64982  1.0000
  H   H357      1.0  0.19486  0.55997  0.66928  1.0000
  C   C356      1.0  0.17998  0.55937  0.67577  1.0000
  C   C357      1.0  0.07516  0.72678  0.71431  1.0000
  H   H358      1.0  0.32333  0.58628  0.80285  1.0000
  H   H359      1.0  0.07381  0.71973  0.67977  1.0000
  H   H360      1.0  0.29034  0.51726  0.80077  1.0000
  C   C358      1.0  0.05594  0.74441  0.68757  1.0000
  C   C359      1.0  0.34145  0.56388  0.78910  1.0000
  H   H361      1.0  0.16121  0.62675  0.51378  1.0000
  H   H362      1.0  0.09668  0.52014  0.77318  1.0000
  S   S114      1.0  0.03496  0.51515  0.78012  1.0000
  H   H363      1.0  0.09137  0.74382  0.75239  1.0000
  H   H364      1.0  0.33621  0.51564  0.68615  1.0000
  H   H365      1.0  0.08550  0.71533  0.71794  1.0000
  C   C360      1.0  0.09510  0.51713  0.73773  1.0000
  C   C361      1.0  0.06862  0.72925  0.69263  1.0000
  H   H366      1.0  0.05102  0.74672  0.67074  1.0000
  C   C362      1.0  0.33851  0.53302  0.80548  1.0000
  Fe  Fe60      1.0  0.02879  0.51310  0.74381  1.0000
  C   C363      1.0  0.09200  0.51153  0.75997  1.0000
  H   H367      1.0  0.34249  0.51796  0.80608  1.0000
  C   C364      1.0  0.30104  0.51182  0.78910  1.0000
  C   C365      1.0  0.01098  0.81549  0.28251  1.0000
  S   S115      1.0  0.05495  0.86184  0.45956  1.0000
  Fe  Fe61      1.0  0.22240  0.94844  0.22798  1.0000
  S   S116      1.0  0.22604  0.91770  0.23899  1.0000
  S   S117      1.0  0.23706  0.97138  0.24607  1.0000
  Fe  Fe62      1.0  0.20179  0.93832  0.18575  1.0000
  S   S118      1.0  0.20433  0.90693  0.19355  1.0000
  S   S119      1.0  0.18446  0.95361  0.15867  1.0000
  Fe  Fe63      1.0  0.19590  0.91441  0.22878  1.0000
  S   S120      1.0  0.17041  0.90362  0.24942  1.0000
  Fe  Fe64      1.0  0.23439  0.91273  0.20301  1.0000
  S   S121      1.0  0.26049  0.89322  0.19568  1.0000
  S   S122      1.0  0.19189  0.94574  0.22041  1.0000
  S   S123      1.0  0.23228  0.94354  0.19258  1.0000
  Fe  Fe65      1.0  0.07400  0.80814  0.31435  1.0000
  S   S124      1.0  0.09575  0.79172  0.29381  1.0000
  S   S125      1.0  0.04556  0.81951  0.30100  1.0000
  Fe  Fe66      1.0  0.10061  0.81095  0.35300  1.0000
  S   S126      1.0  0.12416  0.79440  0.33504  1.0000
  S   S127      1.0  0.10914  0.82235  0.38625  1.0000
  Fe  Fe67      1.0  0.11665  0.81250  0.30474  1.0000
  S   S128      1.0  0.14104  0.82232  0.28162  1.0000
  Fe  Fe68      1.0  0.10176  0.77484  0.32571  1.0000
  S   S129      1.0  0.09458  0.83021  0.32321  1.0000
  S   S130      1.0  0.07848  0.79009  0.34570  1.0000
  Fe  Fe69      1.0  0.14234  0.94090  0.04142  1.0000
  S   S131      1.0  0.15255  0.96895  0.02852  1.0000
  S   S132      1.0  0.15808  0.92215  0.06708  1.0000
  C   C366      1.0  0.09753  0.99440  0.48753  1.0000
  H   H368      1.0  0.20057  0.93054  0.06202  1.0000
  C   C367      1.0  0.12036  0.93936  0.47297  1.0000
  Fe  Fe70      1.0  0.12173  0.97845  0.02935  1.0000
  H   H369      1.0  0.05854  0.81663  0.46032  1.0000
  S   S133      1.0  0.34224  0.91719  0.15907  1.0000
  S   S134      1.0  0.11177  0.95096  0.04470  1.0000
  H   H370      1.0  0.02869  0.83210  0.47116  1.0000
  C   C368      1.0  0.04152  0.86726  0.01733  1.0000
  H   H371      1.0  0.10966  0.92831  0.47524  1.0000
  N   N33       1.0  0.04989  0.82225  0.49387  1.0000
  C   C369      1.0  0.03190  0.91199  0.03474  1.0000
  C   C370      1.0  0.04803  0.91733  0.04560  1.0000
  C   C371      1.0  0.12373  0.97350  0.47606  1.0000
  H   H372      1.0  0.04836  0.91636  0.06359  1.0000
  H   H373      1.0  0.07667  0.92667  0.04185  1.0000
  C   C372      1.0  0.02755  0.80599  0.29030  1.0000
  H   H374      1.0  0.05637  0.78614  0.25115  1.0000
  N   N34       1.0  0.03925  0.80822  0.23556  1.0000
  H   H375      1.0  0.28882  0.89188  0.23463  1.0000
  C   C373      1.0  0.33078  0.87738  0.09579  1.0000
  C   C374      1.0  0.27734  0.93806  0.23273  1.0000
  H   H376      1.0  0.04244  0.77884  0.29406  1.0000
  C   C375      1.0  0.22543  0.98949  0.26196  1.0000
  H   H377      1.0  0.02225  0.81264  0.48987  1.0000
  H   H378      1.0  0.31643  0.91003  0.22401  1.0000
  C   C376      1.0  0.20578  0.99034  0.26565  1.0000
  H   H379      1.0  0.07128  0.98078  0.49469  1.0000
  H   H380      1.0  0.19728  0.97977  0.25870  1.0000
  C   C377      1.0  0.28285  0.89988  0.18424  1.0000
  C   C378      1.0  0.28577  0.91817  0.17548  1.0000
  C   C379      1.0  0.30392  0.92301  0.16733  1.0000
  C   C380      1.0  0.31944  0.90978  0.16810  1.0000
  C   C381      1.0  0.31647  0.89140  0.17653  1.0000
  C   C382      1.0  0.29827  0.88650  0.18448  1.0000
  H   H381      1.0  0.27407  0.92861  0.17507  1.0000
  H   H382      1.0  0.30599  0.93724  0.16074  1.0000
  C   C383      1.0  0.08591  0.97894  0.48887  1.0000
  H   H383      1.0  0.29617  0.87228  0.19109  1.0000
  C   C384      1.0  0.17845  0.94483  0.13268  1.0000
  C   C385      1.0  0.16706  0.95646  0.11854  1.0000
  C   C386      1.0  0.16092  0.94977  0.09830  1.0000
  C   C387      1.0  0.16602  0.93129  0.09207  1.0000
  C   C388      1.0  0.17759  0.91969  0.10605  1.0000
  C   C389      1.0  0.18385  0.92644  0.12626  1.0000
  H   H384      1.0  0.16281  0.97070  0.12338  1.0000
  H   H385      1.0  0.15202  0.95884  0.08769  1.0000
  H   H386      1.0  0.18165  0.90538  0.10133  1.0000
  H   H387      1.0  0.19258  0.91735  0.13703  1.0000
  C   C390      1.0  0.16221  0.88079  0.25742  1.0000
  C   C391      1.0  0.17230  0.86396  0.25209  1.0000
  C   C392      1.0  0.16538  0.84625  0.25928  1.0000
  C   C393      1.0  0.14832  0.84508  0.27190  1.0000
  C   C394      1.0  0.13812  0.86191  0.27705  1.0000
  C   C395      1.0  0.14506  0.87963  0.26987  1.0000
  H   H388      1.0  0.18551  0.86456  0.24257  1.0000
  H   H389      1.0  0.17339  0.83333  0.25519  1.0000
  H   H390      1.0  0.12499  0.86128  0.28671  1.0000
  H   H391      1.0  0.13709  0.89254  0.27407  1.0000
  H   H392      1.0  0.32215  0.86592  0.10200  1.0000
  C   C396      1.0  0.07050  0.85175  0.43901  1.0000
  C   C397      1.0  0.09004  0.84946  0.44188  1.0000
  C   C398      1.0  0.10166  0.84044  0.42555  1.0000
  C   C399      1.0  0.09389  0.83369  0.40620  1.0000
  C   C400      1.0  0.07437  0.83604  0.40332  1.0000
  C   C401      1.0  0.06275  0.84498  0.41968  1.0000
  H   H393      1.0  0.09617  0.85452  0.45672  1.0000
  H   H394      1.0  0.11676  0.83865  0.42792  1.0000
  H   H395      1.0  0.06820  0.83091  0.38853  1.0000
  H   H396      1.0  0.04763  0.84665  0.41733  1.0000
  C   C402      1.0  0.31368  0.93953  0.21423  1.0000
  N   N35       1.0  0.14375  0.85501  0.34539  1.0000
  C   C403      1.0  0.14860  0.83602  0.34619  1.0000
  C   C404      1.0  0.15323  0.86705  0.33113  1.0000
  C   C405      1.0  0.16316  0.82857  0.33236  1.0000
  C   C406      1.0  0.16813  0.86013  0.31737  1.0000
  C   C407      1.0  0.17297  0.84074  0.31788  1.0000
  C   C408      1.0  0.12790  0.86218  0.35951  1.0000
  H   H397      1.0  0.14096  0.82645  0.35731  1.0000
  H   H398      1.0  0.14912  0.88203  0.32997  1.0000
  H   H399      1.0  0.16637  0.81338  0.33232  1.0000
  H   H400      1.0  0.17528  0.86960  0.30561  1.0000
  H   H401      1.0  0.18379  0.83504  0.30644  1.0000
  H   H402      1.0  0.12996  0.85743  0.37714  1.0000
  H   H403      1.0  0.12637  0.87791  0.35888  1.0000
  H   H404      1.0  0.11444  0.85646  0.35410  1.0000
  C   C409      1.0  0.01736  0.83452  0.22763  1.0000
  H   H405      1.0  0.02905  0.86355  0.02719  1.0000
  H   H406      1.0  0.05792  0.87143  0.04635  1.0000
  C   C410      1.0  0.05745  0.80086  0.24420  1.0000
  S   S135      1.0  0.11071  0.00546  0.04546  1.0000
  H   H407      1.0  0.32777  0.93973  0.20650  1.0000
  H   H408      1.0  0.32822  0.88102  0.17717  1.0000
  N   N36       1.0  0.11227  0.95837  0.47762  1.0000
  Fe  Fe71      1.0  0.06159  0.87487  0.49242  1.0000
  H   H409      1.0  0.06857  0.80104  0.23079  1.0000
  H   H410      1.0  0.03113  0.78109  0.22557  1.0000
  H   H411      1.0  0.21203  0.95089  0.05049  1.0000
  H   H412      1.0  0.04347  0.83663  0.24465  1.0000
  C   C411      1.0  0.02983  0.78635  0.28800  1.0000
  C   C412      1.0  0.01593  0.77646  0.27739  1.0000
  N   N37       1.0  0.14697  0.92518  0.18458  1.0000
  C   C413      1.0  0.15337  0.90686  0.18888  1.0000
  C   C414      1.0  0.14119  0.93076  0.16376  1.0000
  C   C415      1.0  0.15425  0.89363  0.17203  1.0000
  C   C416      1.0  0.14160  0.91784  0.14661  1.0000
  C   C417      1.0  0.14833  0.89920  0.15076  1.0000
  C   C418      1.0  0.14620  0.93909  0.20218  1.0000
  H   H413      1.0  0.15804  0.90240  0.20534  1.0000
  H   H414      1.0  0.13674  0.94544  0.16017  1.0000
  H   H415      1.0  0.15968  0.87923  0.17546  1.0000
  H   H416      1.0  0.13742  0.92246  0.12998  1.0000
  H   H417      1.0  0.14924  0.88922  0.13739  1.0000
  H   H418      1.0  0.15501  0.95124  0.19707  1.0000
  H   H419      1.0  0.13137  0.94439  0.20532  1.0000
  H   H420      1.0  0.15168  0.93290  0.21814  1.0000
  H   H421      1.0  0.09192  0.00829  0.49225  1.0000
  C   C419      1.0  0.03440  0.82718  0.23647  1.0000
  C   C420      1.0  0.09355  0.96090  0.48383  1.0000
  H   H422      1.0  0.18643  0.95089  0.05260  1.0000
  C   C421      1.0  0.02995  0.82598  0.48840  1.0000
  C   C422      1.0  0.06283  0.81725  0.47746  1.0000
  C   C423      1.0  0.11655  0.99174  0.48097  1.0000
  S   S136      1.0  0.01323  0.90217  0.05073  1.0000
  C   C424      1.0  0.02757  0.79620  0.22580  1.0000
  H   H423      1.0  0.10247  0.81241  0.50819  1.0000
  H   H424      1.0  0.28671  0.90349  0.26118  1.0000
  H   H425      1.0  0.12579  0.00366  0.48012  1.0000
  C   C425      1.0  0.30715  0.92272  0.22409  1.0000
  H   H426      1.0  0.26704  0.90360  0.24257  1.0000
  S   S137      1.0  0.06288  0.90645  0.49586  1.0000
  C   C426      1.0  0.06407  0.92324  0.03333  1.0000
  H   H427      1.0  0.08454  0.94887  0.48569  1.0000
  H   H428      1.0  0.13184  0.93545  0.48475  1.0000
  H   H429      1.0  0.30636  0.96879  0.20558  1.0000
  C   C427      1.0  0.33308  0.89303  0.10883  1.0000
  H   H430      1.0  0.27380  0.96759  0.22256  1.0000
  H   H431      1.0  0.25146  0.00283  0.26845  1.0000
  C   C428      1.0  0.28336  0.95507  0.22291  1.0000
  C   C429      1.0  0.30162  0.95576  0.21353  1.0000
  H   H432      1.0  0.18700  0.90846  0.03830  1.0000
  H   H433      1.0  0.26314  0.93773  0.24005  1.0000
  C   C430      1.0  0.28267  0.90442  0.24348  1.0000
  C   C431      1.0  0.08193  0.81374  0.48231  1.0000
  H   H434      1.0  0.13861  0.97150  0.47139  1.0000
  H   H435      1.0  0.09221  0.81049  0.46903  1.0000
  N   N38       1.0  0.28910  0.92209  0.23290  1.0000
  H   H436      1.0  0.01334  0.84948  0.22881  1.0000
  C   C432      1.0  0.07362  0.87758  0.01587  1.0000
  C   C433      1.0  0.19183  0.91688  0.02399  1.0000
  N   N39       1.0  0.19880  0.93441  0.02668  1.0000
  H   H437      1.0  0.06197  0.80948  0.25811  1.0000
  H   H438      1.0  0.12613  0.93893  0.45561  1.0000
  C   C434      1.0  0.08766  0.81488  0.50422  1.0000
  C   C435      1.0  0.05786  0.87166  0.02829  1.0000
  C   C436      1.0  0.19954  0.94208  0.04899  1.0000
  H   H439      1.0  0.02304  0.83664  0.49955  1.0000
  H   H440      1.0  0.08604  0.88200  0.02417  1.0000
  H   H441      1.0  0.32625  0.89381  0.12520  1.0000
  C   C437      1.0  0.23625  0.00338  0.27117  1.0000
  H   H442      1.0  0.18190  0.00529  0.28135  1.0000
  H   H443      1.0  0.33867  0.86410  0.06484  1.0000
  C   C438      1.0  0.19711  0.00482  0.27854  1.0000
  C   C439      1.0  0.33996  0.87639  0.07496  1.0000
  C   C440      1.0  0.01041  0.80305  0.21686  1.0000
  H   H444      1.0  0.01679  0.84703  0.75305  1.0000
  C   C441      1.0  0.15625  0.99182  0.91538  1.0000
  Fe  Fe72      1.0  0.06190  0.86727  0.54304  1.0000
  C   C442      1.0  0.19701  0.00228  0.71736  1.0000
  S   S138      1.0  0.05726  0.84468  0.57019  1.0000
  H   H445      1.0  0.19556  0.91506  0.96755  1.0000
  H   H446      1.0  0.11936  0.90959  0.58117  1.0000
  C   C443      1.0  0.04542  0.84138  0.76389  1.0000
  S   S139      1.0  0.06299  0.89812  0.55027  1.0000
  H   H447      1.0  0.33172  0.93660  0.88111  1.0000
  C   C444      1.0  0.10545  0.90282  0.58183  1.0000
  S   S140      1.0  0.16802  0.96449  0.96586  1.0000
  Fe  Fe73      1.0  0.20132  0.90266  0.80641  1.0000
  S   S141      1.0  0.18421  0.92488  0.82502  1.0000
  S   S142      1.0  0.19045  0.88612  0.77728  1.0000
  Fe  Fe74      1.0  0.23807  0.91153  0.83080  1.0000
  S   S143      1.0  0.22318  0.93439  0.85114  1.0000
  S   S144      1.0  0.26966  0.90177  0.82936  1.0000
  Fe  Fe75      1.0  0.19965  0.91407  0.85537  1.0000
  S   S145      1.0  0.18237  0.90735  0.88694  1.0000
  Fe  Fe76      1.0  0.20881  0.94381  0.81926  1.0000
  S   S146      1.0  0.20022  0.97505  0.81229  1.0000
  S   S147      1.0  0.21533  0.89038  0.83718  1.0000
  S   S148      1.0  0.22515  0.92238  0.79850  1.0000
  Fe  Fe77      1.0  0.07365  0.80165  0.71985  1.0000
  S   S149      1.0  0.09530  0.78769  0.74214  1.0000
  S   S150      1.0  0.04160  0.80372  0.72627  1.0000
  Fe  Fe78      1.0  0.10377  0.81288  0.68494  1.0000
  S   S151      1.0  0.12776  0.79960  0.70518  1.0000
  S   S152      1.0  0.11121  0.82882  0.65242  1.0000
  Fe  Fe79      1.0  0.10852  0.77507  0.71091  1.0000
  Fe  Fe80      1.0  0.11282  0.81333  0.73458  1.0000
  S   S153      1.0  0.12427  0.82795  0.76485  1.0000
  S   S154      1.0  0.08559  0.78756  0.68894  1.0000
  S   S155      1.0  0.09003  0.82805  0.71402  1.0000
  C   C445      1.0  0.02840  0.79899  0.75131  1.0000
  H   H448      1.0  0.13466  0.96153  0.91852  1.0000
  C   C446      1.0  0.19663  0.92037  0.98419  1.0000
  C   C447      1.0  0.03714  0.79293  0.77104  1.0000
  C   C448      1.0  0.23195  0.99654  0.76014  1.0000
  S   S156      1.0  0.11697  0.97055  0.99420  1.0000
  H   H449      1.0  0.05235  0.79046  0.77118  1.0000
  C   C449      1.0  0.21021  0.99033  0.79144  1.0000
  C   C450      1.0  0.22478  0.98407  0.77683  1.0000
  H   H450      1.0  0.05780  0.82782  0.81573  1.0000
  H   H451      1.0  0.33461  0.88524  0.85362  1.0000
  H   H452      1.0  0.23052  0.96962  0.77838  1.0000
  C   C451      1.0  0.17149  0.00710  0.74441  1.0000
  C   C452      1.0  0.28783  0.90029  0.84950  1.0000
  C   C453      1.0  0.30595  0.89263  0.84335  1.0000
  C   C454      1.0  0.32081  0.89116  0.85865  1.0000
  C   C455      1.0  0.31779  0.89745  0.88036  1.0000
  C   C456      1.0  0.29966  0.90505  0.88651  1.0000
  C   C457      1.0  0.28478  0.90643  0.87125  1.0000
  H   H453      1.0  0.30852  0.88781  0.82660  1.0000
  H   H454      1.0  0.14767  0.98886  0.93083  1.0000
  H   H455      1.0  0.29710  0.90997  0.90323  1.0000
  H   H456      1.0  0.27098  0.91236  0.87631  1.0000
  C   C458      1.0  0.17170  0.87023  0.77429  1.0000
  C   C459      1.0  0.16026  0.86408  0.79228  1.0000
  C   C460      1.0  0.14590  0.85119  0.78904  1.0000
  C   C461      1.0  0.14271  0.84422  0.76782  1.0000
  C   C462      1.0  0.15419  0.85033  0.74985  1.0000
  C   C463      1.0  0.16858  0.86318  0.75310  1.0000
  H   H457      1.0  0.16245  0.86926  0.80869  1.0000
  H   H458      1.0  0.13719  0.84658  0.80311  1.0000
  H   H459      1.0  0.15204  0.84513  0.73344  1.0000
  H   H460      1.0  0.17734  0.86772  0.73904  1.0000
  C   C464      1.0  0.17249  0.94799  0.94465  1.0000
  C   C465      1.0  0.16228  0.93155  0.94377  1.0000
  C   C466      1.0  0.16584  0.91900  0.92628  1.0000
  C   C467      1.0  0.17940  0.92289  0.90937  1.0000
  C   C468      1.0  0.18980  0.93920  0.91042  1.0000
  C   C469      1.0  0.18644  0.95162  0.92810  1.0000
  H   H461      1.0  0.15152  0.92859  0.95642  1.0000
  H   H462      1.0  0.15776  0.90638  0.92557  1.0000
  H   H463      1.0  0.20035  0.94228  0.89756  1.0000
  H   H464      1.0  0.19455  0.96421  0.92877  1.0000
  C   C470      1.0  0.04762  0.91924  0.99921  1.0000
  H   H465      1.0  0.09459  0.91420  0.57767  1.0000
  C   C471      1.0  0.07257  0.84005  0.59272  1.0000
  C   C472      1.0  0.06568  0.83068  0.61210  1.0000
  C   C473      1.0  0.07742  0.82678  0.63039  1.0000
  C   C474      1.0  0.09629  0.83193  0.62927  1.0000
  C   C475      1.0  0.10331  0.84090  0.60966  1.0000
  C   C476      1.0  0.09148  0.84513  0.59154  1.0000
  H   H466      1.0  0.05111  0.82657  0.61307  1.0000
  H   H467      1.0  0.07184  0.81989  0.64537  1.0000
  H   H468      1.0  0.11794  0.84479  0.60862  1.0000
  H   H469      1.0  0.09704  0.85210  0.57661  1.0000
  Fe  Fe81      1.0  0.14698  0.95855  0.99437  1.0000
  C   C477      1.0  0.08911  0.94653  0.53778  1.0000
  C   C478      1.0  0.08628  0.96581  0.54259  1.0000
  C   C479      1.0  0.10140  0.97804  0.54101  1.0000
  C   C480      1.0  0.02329  0.86492  0.98362  1.0000
  H   H470      1.0  0.08526  0.83680  0.79239  1.0000
  H   H471      1.0  0.07721  0.93743  0.53842  1.0000
  H   H472      1.0  0.07219  0.97139  0.54703  1.0000
  H   H473      1.0  0.04507  0.82680  0.52858  1.0000
  C   C481      1.0  0.14257  0.94760  0.88825  1.0000
  S   S157      1.0  0.33611  0.89684  0.90029  1.0000
  C   C482      1.0  0.04891  0.83264  0.80209  1.0000
  H   H474      1.0  0.33695  0.92531  0.84270  1.0000
  C   C483      1.0  0.05634  0.87446  0.98227  1.0000
  N   N40       1.0  0.05674  0.83627  0.78137  1.0000
  C   C484      1.0  0.16619  0.96284  0.86502  1.0000
  C   C485      1.0  0.14329  0.96222  0.90330  1.0000
  H   H475      1.0  0.13656  0.94573  0.52647  1.0000
  S   S158      1.0  0.08494  0.86751  0.51637  1.0000
  C   C486      1.0  0.20359  0.93827  0.98709  1.0000
  S   S159      1.0  0.09672  0.00241  0.54543  1.0000
  N   N41       1.0  0.24670  0.85318  0.82295  1.0000
  C   C487      1.0  0.24726  0.86370  0.80340  1.0000
  C   C488      1.0  0.23224  0.84127  0.82750  1.0000
  C   C489      1.0  0.23342  0.86197  0.78753  1.0000
  C   C490      1.0  0.21821  0.83914  0.81194  1.0000
  C   C491      1.0  0.21895  0.84945  0.79178  1.0000
  C   C492      1.0  0.26088  0.85564  0.83981  1.0000
  H   H476      1.0  0.25823  0.87378  0.80016  1.0000
  H   H477      1.0  0.23135  0.83352  0.84335  1.0000
  H   H478      1.0  0.23351  0.87072  0.77232  1.0000
  H   H479      1.0  0.20661  0.82988  0.81560  1.0000
  H   H480      1.0  0.20797  0.84821  0.77971  1.0000
  H   H481      1.0  0.25572  0.86691  0.85131  1.0000
  H   H482      1.0  0.26388  0.84227  0.84957  1.0000
  H   H483      1.0  0.27453  0.86005  0.83202  1.0000
  Fe  Fe82      1.0  0.08427  0.89905  0.52193  1.0000
  H   H484      1.0  0.15415  0.93631  0.85768  1.0000
  C   C493      1.0  0.11956  0.97072  0.53524  1.0000
  S   S160      1.0  0.03841  0.87218  0.51877  1.0000
  C   C494      1.0  0.15416  0.94791  0.86907  1.0000
  C   C495      1.0  0.12248  0.95131  0.53091  1.0000
  C   C496      1.0  0.07723  0.83331  0.77755  1.0000
  H   H485      1.0  0.06447  0.87658  0.63408  1.0000
  H   H486      1.0  0.17543  0.96310  0.85024  1.0000
  C   C497      1.0  0.02616  0.79050  0.79083  1.0000
  H   H487      1.0  0.20976  0.99431  0.71208  1.0000
  N   N42       1.0  0.15529  0.97672  0.89934  1.0000
  H   H488      1.0  0.02297  0.83101  0.82206  1.0000
  C   C498      1.0  0.16656  0.97723  0.88043  1.0000
  H   H489      1.0  0.09050  0.86784  0.65996  1.0000
  S   S161      1.0  0.11086  0.91533  0.52449  1.0000
  C   C499      1.0  0.07427  0.81939  0.52097  1.0000
  H   H490      1.0  0.13030  0.89156  0.61288  1.0000
  H   H491      1.0  0.10567  0.89204  0.56876  1.0000
  S   S162      1.0  0.08502  0.92767  0.99416  1.0000
  H   H492      1.0  0.03305  0.78611  0.80611  1.0000
  H   H493      1.0  0.24320  0.99153  0.74891  1.0000
  H   H494      1.0  0.12349  0.87513  0.64914  1.0000
  H   H495      1.0  0.05569  0.87627  0.96433  1.0000
  H   H496      1.0  0.04753  0.91976  0.98122  1.0000
  C   C500      1.0  0.10721  0.93924  0.53183  1.0000
  H   H497      1.0  0.19228  0.98382  0.74622  1.0000
  H   H498      1.0  0.07171  0.89292  0.59803  1.0000
  N   N43       1.0  0.04096  0.86857  0.99459  1.0000
  H   H499      1.0  0.05151  0.84321  0.74720  1.0000
  H   H500      1.0  0.04035  0.76893  0.70040  1.0000
  C   C501      1.0  0.05532  0.82304  0.51547  1.0000
  N   N44       1.0  0.10131  0.89390  0.60372  1.0000
  C   C502      1.0  0.11575  0.88886  0.61773  1.0000
  C   C503      1.0  0.08306  0.88965  0.60947  1.0000
  C   C504      1.0  0.11201  0.87974  0.63833  1.0000
  C   C505      1.0  0.07883  0.88052  0.62991  1.0000
  C   C506      1.0  0.09342  0.87566  0.64446  1.0000
  H   H501      1.0  0.20773  0.94699  0.97270  1.0000
  C   C507      1.0  0.02928  0.83456  0.80584  1.0000
  H   H502      1.0  0.13131  0.98002  0.53411  1.0000
  H   H503      1.0  0.08253  0.84252  0.76355  1.0000
  H   H504      1.0  0.01293  0.87710  0.98574  1.0000
  S   S163      1.0  0.01836  0.92594  0.52927  1.0000
  H   H505      1.0  0.01691  0.85190  0.99082  1.0000
  C   C508      1.0  0.20297  0.00920  0.78919  1.0000
  H   H506      1.0  0.17110  0.99299  0.92060  1.0000
  H   H507      1.0  0.17617  0.98864  0.87729  1.0000
  C   C509      1.0  0.07291  0.87896  0.99271  1.0000
  H   H508      1.0  0.13364  0.93572  0.89182  1.0000
  C   C510      1.0  0.02576  0.84357  0.76708  1.0000
  Fe  Fe83      1.0  0.04138  0.90311  0.52383  1.0000
  H   H509      1.0  0.07853  0.82040  0.53809  1.0000
  H   H510      1.0  0.08074  0.81830  0.77354  1.0000
  H   H511      1.0  0.08478  0.88448  0.98304  1.0000
  C   C511      1.0  0.18721  0.99631  0.73672  1.0000
  H   H512      1.0  0.15101  0.00559  0.90786  1.0000
  S   S164      1.0  0.13917  0.92965  0.00708  1.0000
  H   H513      1.0  0.02553  0.86275  0.96549  1.0000
  Fe  Fe84      1.0  0.10930  0.94224  0.00936  1.0000
  H   H514      1.0  0.01909  0.90954  0.00300  1.0000
  C   C512      1.0  0.01767  0.84012  0.78820  1.0000
  H   H515      1.0  0.16425  0.00295  0.75987  1.0000
  H   H516      1.0  0.05264  0.76414  0.73823  1.0000
  C   C513      1.0  0.03153  0.91341  0.01150  1.0000
  C   C514      1.0  0.06407  0.92379  0.01007  1.0000
  H   H517      1.0  0.20898  0.95948  0.01052  1.0000
  C   C515      1.0  0.19059  0.90962  0.00273  1.0000
  H   H518      1.0  0.18476  0.89587  0.00064  1.0000
  C   C516      1.0  0.20426  0.94526  0.00853  1.0000
  S   S165      1.0  0.60993  0.24369  0.22014  1.0000
  Fe  Fe85      1.0  0.62629  0.14806  0.14613  1.0000
  S   S166      1.0  0.60462  0.12756  0.13612  1.0000
  S   S167      1.0  0.61786  0.17990  0.14658  1.0000
  Fe  Fe86      1.0  0.65816  0.11675  0.14803  1.0000
  S   S168      1.0  0.63829  0.09432  0.13882  1.0000
  Fe  Fe87      1.0  0.62742  0.11562  0.11252  1.0000
  S   S169      1.0  0.62365  0.10431  0.07717  1.0000
  Fe  Fe88      1.0  0.61694  0.10782  0.16295  1.0000
  S   S170      1.0  0.59967  0.09429  0.19245  1.0000
  S   S171      1.0  0.64814  0.13731  0.12081  1.0000
  S   S172      1.0  0.63774  0.12911  0.17389  1.0000
  Fe  Fe89      1.0  0.40547  0.14331  0.39337  1.0000
  S   S173      1.0  0.42198  0.12258  0.41557  1.0000
  S   S174      1.0  0.42242  0.16749  0.37733  1.0000
  Fe  Fe90      1.0  0.36972  0.11986  0.39847  1.0000
  S   S175      1.0  0.38414  0.09778  0.42122  1.0000
  H   H519      1.0  0.55487  0.19511  0.16699  1.0000
  Fe  Fe91      1.0  0.39626  0.12224  0.43872  1.0000
  S   S176      1.0  0.39848  0.12968  0.47604  1.0000
  Fe  Fe92      1.0  0.40918  0.09963  0.39642  1.0000
  S   S177      1.0  0.42781  0.07310  0.38655  1.0000
  S   S178      1.0  0.38052  0.14431  0.41728  1.0000
  S   S179      1.0  0.39395  0.12034  0.37298  1.0000
  C   C517      1.0  0.35250  0.12566  0.48579  1.0000
  Fe  Fe93      1.0  0.52568  0.01491  0.24713  1.0000
  S   S180      1.0  0.54213  0.02780  0.21671  1.0000
  N   N45       1.0  0.44223  0.02596  0.27566  1.0000
  S   S181      1.0  0.47944  0.04456  0.30268  1.0000
  C   C518      1.0  0.57046  0.19431  0.16875  1.0000
  H   H520      1.0  0.44742  0.03285  0.24111  1.0000
  C   C519      1.0  0.44167  0.06528  0.36274  1.0000
  C   C520      1.0  0.45193  0.04766  0.36407  1.0000
  C   C521      1.0  0.46361  0.04112  0.34608  1.0000
  C   C522      1.0  0.46536  0.05217  0.32640  1.0000
  C   C523      1.0  0.45507  0.06978  0.32506  1.0000
  C   C524      1.0  0.44326  0.07624  0.34297  1.0000
  H   H521      1.0  0.45092  0.03902  0.37923  1.0000
  H   H522      1.0  0.47133  0.02755  0.34751  1.0000
  H   H523      1.0  0.45616  0.07849  0.30996  1.0000
  H   H524      1.0  0.43539  0.08972  0.34147  1.0000
  C   C525      1.0  0.41738  0.19244  0.37396  1.0000
  C   C526      1.0  0.43102  0.20376  0.36318  1.0000
  C   C527      1.0  0.42776  0.22358  0.36009  1.0000
  C   C528      1.0  0.41075  0.23237  0.36775  1.0000
  C   C529      1.0  0.39716  0.22107  0.37863  1.0000
  C   C530      1.0  0.40042  0.20125  0.38173  1.0000
  H   H525      1.0  0.44417  0.19716  0.35703  1.0000
  H   H526      1.0  0.43836  0.23201  0.35167  1.0000
  H   H527      1.0  0.38392  0.22766  0.38459  1.0000
  H   H528      1.0  0.38976  0.19279  0.38999  1.0000
  N   N46       1.0  0.59291  0.02007  0.23124  1.0000
  C   C531      1.0  0.35283  0.15710  0.46744  1.0000
  C   C532      1.0  0.58647  0.14442  0.20639  1.0000
  C   C533      1.0  0.58269  0.07650  0.19845  1.0000
  C   C534      1.0  0.57586  0.06511  0.18210  1.0000
  C   C535      1.0  0.56306  0.05077  0.18795  1.0000
  C   C536      1.0  0.55682  0.04746  0.21020  1.0000
  C   C537      1.0  0.56337  0.05908  0.22650  1.0000
  C   C538      1.0  0.57621  0.07340  0.22066  1.0000
  H   H529      1.0  0.58056  0.06724  0.16494  1.0000
  H   H530      1.0  0.55810  0.04200  0.17510  1.0000
  H   H531      1.0  0.55873  0.05688  0.24366  1.0000
  H   H532      1.0  0.58123  0.08211  0.23352  1.0000
  C   C539      1.0  0.62758  0.13164  0.04227  1.0000
  C   C540      1.0  0.62444  0.11273  0.04859  1.0000
  C   C541      1.0  0.62233  0.09973  0.03158  1.0000
  H   H533      1.0  0.62919  0.14189  0.05498  1.0000
  H   H534      1.0  0.61977  0.08509  0.03611  1.0000
  C   C542      1.0  0.61378  0.22660  0.19903  1.0000
  C   C543      1.0  0.61980  0.20787  0.20519  1.0000
  C   C544      1.0  0.62196  0.19356  0.18927  1.0000
  C   C545      1.0  0.61788  0.19774  0.16696  1.0000
  C   C546      1.0  0.61226  0.21654  0.16073  1.0000
  C   C547      1.0  0.61024  0.23088  0.17660  1.0000
  H   H535      1.0  0.62268  0.20440  0.22245  1.0000
  H   H536      1.0  0.62634  0.17922  0.19437  1.0000
  H   H537      1.0  0.60914  0.22002  0.14352  1.0000
  H   H538      1.0  0.60566  0.24518  0.17153  1.0000
  H   H539      1.0  0.39170  0.09326  0.50045  1.0000
  C   C548      1.0  0.62846  0.13739  0.01945  1.0000
  C   C549      1.0  0.58077  0.14323  0.18452  1.0000
  Fe  Fe94      1.0  0.49819  0.01984  0.28803  1.0000
  C   C550      1.0  0.34971  0.10617  0.48579  1.0000
  H   H540      1.0  0.57478  0.20742  0.17664  1.0000
  H   H541      1.0  0.58179  0.19221  0.21094  1.0000
  C   C551      1.0  0.43471  0.03212  0.29552  1.0000
  C   C552      1.0  0.59726  0.03118  0.24843  1.0000
  C   C553      1.0  0.39361  0.10397  0.51253  1.0000
  H   H542      1.0  0.43106  0.04706  0.29766  1.0000
  H   H543      1.0  0.42709  0.02456  0.32960  1.0000
  H   H544      1.0  0.58037  0.12948  0.17704  1.0000
  H   H545      1.0  0.59010  0.02072  0.19603  1.0000
  H   H546      1.0  0.59072  0.13156  0.21576  1.0000
  N   N47       1.0  0.34847  0.13699  0.46748  1.0000
  H   H547      1.0  0.36846  0.15843  0.46610  1.0000
  C   C554      1.0  0.39757  0.12246  0.50513  1.0000
  H   H548      1.0  0.57200  0.15886  0.15505  1.0000
  C   C555      1.0  0.59084  0.02684  0.27019  1.0000
  S   S182      1.0  0.53021  0.01979  0.28332  1.0000
  C   C556      1.0  0.60041  0.02429  0.20870  1.0000
  C   C557      1.0  0.58679  0.16214  0.21597  1.0000
  C   C558      1.0  0.57586  0.15986  0.17228  1.0000
  H   H549      1.0  0.61394  0.01605  0.20573  1.0000
  H   H550      1.0  0.34744  0.16365  0.48306  1.0000
  C   C559      1.0  0.67458  0.09325  0.09299  1.0000
  H   H551      1.0  0.57749  0.19413  0.15193  1.0000
  H   H552      1.0  0.60292  0.03967  0.20616  1.0000
  N   N48       1.0  0.57624  0.17718  0.18177  1.0000
  H   H553      1.0  0.59135  0.16326  0.23292  1.0000
  H   H554      1.0  0.60545  0.04367  0.24530  1.0000
  C   C560      1.0  0.44567  0.03979  0.25742  1.0000
  C   C561      1.0  0.58136  0.17846  0.20344  1.0000
  N   N49       1.0  0.46472  0.13960  0.39879  1.0000
  C   C562      1.0  0.46094  0.13529  0.37739  1.0000
  C   C563      1.0  0.46966  0.12549  0.41400  1.0000
  C   C564      1.0  0.46241  0.11649  0.37064  1.0000
  C   C565      1.0  0.47120  0.10653  0.40782  1.0000
  C   C566      1.0  0.46762  0.10206  0.38597  1.0000
  C   C567      1.0  0.46226  0.15921  0.40605  1.0000
  H   H555      1.0  0.45636  0.14636  0.36550  1.0000
  H   H556      1.0  0.47191  0.12882  0.43117  1.0000
  H   H557      1.0  0.45913  0.11309  0.35376  1.0000
  H   H558      1.0  0.47464  0.09529  0.41998  1.0000
  H   H559      1.0  0.46846  0.08738  0.38107  1.0000
  H   H560      1.0  0.47376  0.16272  0.41718  1.0000
  H   H561      1.0  0.46236  0.16955  0.39165  1.0000
  H   H562      1.0  0.44833  0.16118  0.41499  1.0000
  H   H563      1.0  0.43367  0.05048  0.25619  1.0000
  S   S183      1.0  0.40577  0.25734  0.36441  1.0000
  H   H564      1.0  0.67502  0.08859  0.11037  1.0000
  H   H565      1.0  0.45884  0.04722  0.26051  1.0000
  S   S184      1.0  0.49374  0.01670  0.25122  1.0000
  H   H566      1.0  0.59400  0.03583  0.28374  1.0000
  H   H567      1.0  0.35858  0.13159  0.50024  1.0000
  C   C568      1.0  0.43252  0.01944  0.31370  1.0000
  C   C569      1.0  0.67284  0.11185  0.02513  1.0000
  N   N50       1.0  0.67289  0.10556  0.04863  1.0000
  C   C570      1.0  0.66666  0.08806  0.05498  1.0000
  H   H568      1.0  0.66061  0.07914  0.04295  1.0000
  C   C571      1.0  0.66731  0.08169  0.07726  1.0000
  H   H569      1.0  0.66167  0.06816  0.08240  1.0000
  H   H570      1.0  0.35350  0.09721  0.50013  1.0000
  H   H571      1.0  0.34642  0.16525  0.45319  1.0000
  H   H572      1.0  0.63078  0.15208  0.01494  1.0000
  H   H573      1.0  0.66787  0.12699  0.02343  1.0000
  H   H574      1.0  0.66305  0.10367  0.01543  1.0000
  H   H575      1.0  0.61792  0.21032  0.94590  1.0000
  Fe  Fe95      1.0  0.65761  0.11167  0.89833  1.0000
  S   S185      1.0  0.63893  0.09475  0.92192  1.0000
  Fe  Fe96      1.0  0.62568  0.14225  0.89102  1.0000
  S   S186      1.0  0.60517  0.12678  0.91388  1.0000
  S   S187      1.0  0.61349  0.16826  0.87132  1.0000
  Fe  Fe97      1.0  0.62972  0.12254  0.93728  1.0000
  S   S188      1.0  0.62834  0.13256  0.97382  1.0000
  Fe  Fe98      1.0  0.61591  0.10012  0.89664  1.0000
  S   S189      1.0  0.60037  0.07377  0.88563  1.0000
  S   S190      1.0  0.64976  0.13930  0.91487  1.0000
  S   S191      1.0  0.63505  0.11579  0.87267  1.0000
  Fe  Fe99      1.0  0.37531  0.11818  0.66167  1.0000
  S   S192      1.0  0.39446  0.09606  0.64501  1.0000
  C   C572      1.0  0.58931  0.18412  0.91711  1.0000
  Fe  Fe100     1.0  0.40215  0.14999  0.64863  1.0000
  S   S193      1.0  0.42256  0.12961  0.63081  1.0000
  S   S194      1.0  0.41051  0.18120  0.64684  1.0000
  Fe  Fe101     1.0  0.39679  0.11755  0.61616  1.0000
  S   S195      1.0  0.39253  0.10580  0.58100  1.0000
  Fe  Fe102     1.0  0.41870  0.10973  0.66084  1.0000
  S   S196      1.0  0.44578  0.09781  0.67835  1.0000
  S   S197      1.0  0.37643  0.13898  0.63233  1.0000
  S   S198      1.0  0.39952  0.13081  0.67910  1.0000
  H   H576      1.0  0.49676  0.06689  0.85245  1.0000
  N   N51       1.0  0.51043  0.03947  0.85601  1.0000
  S   S199      1.0  0.54446  0.04819  0.81014  1.0000
  H   H577      1.0  0.66144  0.04235  0.87215  1.0000
  S   S200      1.0  0.47542  0.02528  0.73785  1.0000
  H   H578      1.0  0.35012  0.10850  0.62745  1.0000
  S   S201      1.0  0.35002  0.10669  0.68210  1.0000
  C   C573      1.0  0.45312  0.07789  0.69595  1.0000
  C   C574      1.0  0.44243  0.06175  0.69912  1.0000
  C   C575      1.0  0.44933  0.04607  0.71233  1.0000
  C   C576      1.0  0.46686  0.04628  0.72293  1.0000
  C   C577      1.0  0.47744  0.06253  0.72001  1.0000
  C   C578      1.0  0.47068  0.07809  0.70650  1.0000
  H   H579      1.0  0.42895  0.06123  0.69116  1.0000
  H   H580      1.0  0.44098  0.03362  0.71434  1.0000
  H   H581      1.0  0.49098  0.06300  0.72784  1.0000
  H   H582      1.0  0.47916  0.09041  0.70420  1.0000
  C   C579      1.0  0.39486  0.11278  0.55191  1.0000
  C   C580      1.0  0.39889  0.13125  0.54450  1.0000
  H   H583      1.0  0.54927  0.03612  0.88773  1.0000
  C   C581      1.0  0.53264  0.01257  0.87949  1.0000
  C   C582      1.0  0.39219  0.09925  0.53563  1.0000
  H   H584      1.0  0.40097  0.14192  0.55659  1.0000
  H   H585      1.0  0.38916  0.08489  0.54096  1.0000
  C   C583      1.0  0.41258  0.19893  0.66703  1.0000
  C   C584      1.0  0.40688  0.19622  0.68936  1.0000
  C   C585      1.0  0.40963  0.21041  0.70486  1.0000
  C   C586      1.0  0.41804  0.22753  0.69834  1.0000
  C   C587      1.0  0.42369  0.23025  0.67598  1.0000
  C   C588      1.0  0.42091  0.21609  0.66047  1.0000
  H   H586      1.0  0.40044  0.18316  0.69473  1.0000
  H   H587      1.0  0.40520  0.20809  0.72208  1.0000
  H   H588      1.0  0.43046  0.24311  0.67073  1.0000
  H   H589      1.0  0.42541  0.21835  0.64327  1.0000
  C   C589      1.0  0.58549  0.06708  0.86371  1.0000
  C   C590      1.0  0.57597  0.08034  0.84968  1.0000
  C   C591      1.0  0.56381  0.07426  0.83326  1.0000
  C   C592      1.0  0.56105  0.05484  0.83031  1.0000
  C   C593      1.0  0.57094  0.04155  0.84397  1.0000
  C   C594      1.0  0.58290  0.04764  0.86060  1.0000
  H   H590      1.0  0.57769  0.09534  0.85173  1.0000
  H   H591      1.0  0.55635  0.08476  0.82285  1.0000
  H   H592      1.0  0.56915  0.02657  0.84197  1.0000
  H   H593      1.0  0.59018  0.03716  0.87120  1.0000
  C   C595      1.0  0.62650  0.12436  0.00244  1.0000
  C   C596      1.0  0.60706  0.20693  0.93450  1.0000
  C   C597      1.0  0.59837  0.22158  0.92163  1.0000
  H   H594      1.0  0.62590  0.16926  0.93662  1.0000
  H   H595      1.0  0.62174  0.09519  0.99606  1.0000
  C   C598      1.0  0.62125  0.23307  0.86892  1.0000
  C   C599      1.0  0.63280  0.22099  0.88249  1.0000
  C   C600      1.0  0.63093  0.20112  0.88318  1.0000
  C   C601      1.0  0.61756  0.19304  0.87013  1.0000
  C   C602      1.0  0.60627  0.20511  0.85625  1.0000
  C   C603      1.0  0.60804  0.22498  0.85568  1.0000
  H   H596      1.0  0.64313  0.22705  0.89275  1.0000
  H   H597      1.0  0.63976  0.19207  0.89388  1.0000
  H   H598      1.0  0.59590  0.19905  0.84604  1.0000
  H   H599      1.0  0.59910  0.23401  0.84508  1.0000
  H   H600      1.0  0.51777  0.04556  0.68765  1.0000
  H   H601      1.0  0.60259  0.23610  0.92284  1.0000
  H   H602      1.0  0.61527  0.07753  0.82987  1.0000
  C   C604      1.0  0.58489  0.21725  0.90634  1.0000
  H   H603      1.0  0.57054  0.19476  0.89143  1.0000
  C   C605      1.0  0.61225  0.17333  0.94517  1.0000
  H   H604      1.0  0.61516  0.17779  0.96224  1.0000
  C   C606      1.0  0.34738  0.09539  0.61861  1.0000
  H   H605      1.0  0.52978  0.05965  0.86607  1.0000
  H   H606      1.0  0.60373  0.16048  0.94716  1.0000
  C   C607      1.0  0.58029  0.19841  0.90405  1.0000
  H   H607      1.0  0.45016  0.16280  0.64154  1.0000
  S   S202      1.0  0.53086  0.01752  0.75803  1.0000
  C   C608      1.0  0.63020  0.07864  0.83310  1.0000
  Fe  Fe103     1.0  0.49908  0.01525  0.76189  1.0000
  S   S203      1.0  0.42190  0.24447  0.71899  1.0000
  H   H608      1.0  0.66834  0.10407  0.81739  1.0000
  H   H609      1.0  0.57862  0.22837  0.89562  1.0000
  C   C609      1.0  0.65994  0.09352  0.82611  1.0000
  C   C610      1.0  0.40015  0.13602  0.52139  1.0000
  H   H610      1.0  0.63433  0.10125  0.80871  1.0000
  C   C611      1.0  0.49920  0.05367  0.84307  1.0000
  H   H611      1.0  0.47309  0.16921  0.65095  1.0000
  C   C612      1.0  0.50602  0.02077  0.85632  1.0000
  H   H612      1.0  0.43673  0.15440  0.73720  1.0000
  N   N52       1.0  0.65738  0.06880  0.85439  1.0000
  H   H613      1.0  0.44411  0.18765  0.72599  1.0000
  H   H614      1.0  0.44907  0.13763  0.67024  1.0000
  H   H615      1.0  0.50689  0.05713  0.82715  1.0000
  S   S204      1.0  0.62365  0.25810  0.86962  1.0000
  H   H616      1.0  0.43946  0.12928  0.70901  1.0000
  H   H617      1.0  0.35769  0.07069  0.65091  1.0000
  H   H618      1.0  0.45373  0.19533  0.68706  1.0000
  C   C613      1.0  0.64089  0.09194  0.82127  1.0000
  C   C614      1.0  0.51021  0.03252  0.68855  1.0000
  H   H619      1.0  0.40319  0.15039  0.51609  1.0000
  H   H620      1.0  0.45341  0.18661  0.64866  1.0000
  N   N53       1.0  0.45176  0.16697  0.67635  1.0000
  C   C615      1.0  0.45086  0.18076  0.69185  1.0000
  C   C616      1.0  0.44806  0.14864  0.68244  1.0000
  C   C617      1.0  0.44543  0.17649  0.71396  1.0000
  C   C618      1.0  0.44266  0.14383  0.70441  1.0000
  C   C619      1.0  0.44121  0.15790  0.72020  1.0000
  C   C620      1.0  0.45755  0.17163  0.65327  1.0000
  H   H621      1.0  0.58634  0.16944  0.91441  1.0000
  C   C621      1.0  0.63872  0.06715  0.84973  1.0000
  N   N54       1.0  0.60232  0.18852  0.93230  1.0000
  C   C622      1.0  0.53699  0.03166  0.87918  1.0000
  S   S205      1.0  0.49844  0.02189  0.79828  1.0000
  H   H622      1.0  0.63020  0.05717  0.85924  1.0000
  C   C623      1.0  0.52582  0.04496  0.86703  1.0000
  H   H623      1.0  0.48536  0.04499  0.67280  1.0000
  C   C624      1.0  0.51829  0.01609  0.69876  1.0000
  Fe  Fe104     1.0  0.53043  0.02244  0.79530  1.0000
  C   C625      1.0  0.66801  0.08176  0.84281  1.0000
  H   H624      1.0  0.49398  0.01626  0.84739  1.0000
  H   H625      1.0  0.48513  0.04846  0.83909  1.0000
  C   C626      1.0  0.49207  0.03217  0.68008  1.0000
  H   H626      1.0  0.46784  0.01533  0.67617  1.0000
  C   C627      1.0  0.62341  0.10543  0.00876  1.0000
  H   H627      1.0  0.53237  0.01648  0.70539  1.0000
  H   H628      1.0  0.36119  0.08776  0.61488  1.0000
  C   C628      1.0  0.66556  0.05731  0.87278  1.0000
  H   H629      1.0  0.66046  0.06327  0.88890  1.0000
  C   C629      1.0  0.48222  0.01550  0.68197  1.0000
  H   H630      1.0  0.66237  0.26032  0.80663  1.0000
  H   H631      1.0  0.45146  0.44937  0.01854  1.0000
  H   H632      1.0  0.36049  0.37619  0.31150  1.0000
  N   N55       1.0  0.47898  0.28887  0.24642  1.0000
  S   S206      1.0  0.61762  0.45167  0.50198  1.0000
  S   S207      1.0  0.38402  0.48824  0.02260  1.0000
  Fe  Fe105     1.0  0.60214  0.31300  0.18963  1.0000
  S   S208      1.0  0.62606  0.29691  0.20732  1.0000
  S   S209      1.0  0.60800  0.32398  0.15415  1.0000
  Fe  Fe106     1.0  0.57435  0.30815  0.22882  1.0000
  S   S210      1.0  0.59599  0.29151  0.24893  1.0000
  S   S211      1.0  0.54493  0.31941  0.24041  1.0000
  Fe  Fe107     1.0  0.61664  0.31362  0.23738  1.0000
  S   S212      1.0  0.63467  0.32465  0.26525  1.0000
  C   C630      1.0  0.48127  0.44137  0.01676  1.0000
  S   S213      1.0  0.59442  0.33114  0.21891  1.0000
  S   S214      1.0  0.58051  0.29126  0.19800  1.0000
  Fe  Fe108     1.0  0.55765  0.38024  0.05727  1.0000
  S   S215      1.0  0.53831  0.37715  0.02868  1.0000
  S   S216      1.0  0.54971  0.37112  0.09279  1.0000
  C   C631      1.0  0.56263  0.35389  0.27157  1.0000
  H   H633      1.0  0.65957  0.49632  0.30962  1.0000
  S   S217      1.0  0.55895  0.41169  0.05165  1.0000
  Fe  Fe109     1.0  0.38365  0.46504  0.04928  1.0000
  H   H634      1.0  0.51519  0.40053  0.08906  1.0000
  S   S218      1.0  0.36372  0.47092  0.07893  1.0000
  C   C632      1.0  0.38841  0.32549  0.39976  1.0000
  H   H635      1.0  0.45535  0.45618  0.47602  1.0000
  H   H636      1.0  0.41971  0.26689  0.40765  1.0000
  H   H637      1.0  0.56997  0.35342  0.25495  1.0000
  H   H638      1.0  0.65505  0.42382  0.46274  1.0000
  S   S219      1.0  0.41544  0.46203  0.05027  1.0000
  H   H639      1.0  0.64762  0.36731  0.13623  1.0000
  S   S220      1.0  0.47104  0.39460  0.49599  1.0000
  H   H640      1.0  0.61681  0.49684  0.45100  1.0000
  S   S221      1.0  0.47502  0.33987  0.47814  1.0000
  H   H641      1.0  0.37846  0.31816  0.38934  1.0000
  Fe  Fe110     1.0  0.43743  0.31999  0.35824  1.0000
  S   S222      1.0  0.40930  0.31043  0.34729  1.0000
  S   S223      1.0  0.43589  0.34295  0.38407  1.0000
  Fe  Fe111     1.0  0.45938  0.29520  0.32487  1.0000
  S   S224      1.0  0.43271  0.28383  0.31185  1.0000
  S   S225      1.0  0.48808  0.28306  0.31216  1.0000
  Fe  Fe112     1.0  0.42100  0.31426  0.31243  1.0000
  S   S226      1.0  0.40615  0.32730  0.28163  1.0000
  Fe  Fe113     1.0  0.42317  0.28087  0.34776  1.0000
  S   S227      1.0  0.44847  0.32563  0.32312  1.0000
  S   S228      1.0  0.45049  0.29039  0.36106  1.0000
  N   N56       1.0  0.56833  0.33713  0.28525  1.0000
  C   C633      1.0  0.36851  0.36782  0.25667  1.0000
  C   C634      1.0  0.38242  0.35287  0.25885  1.0000
  C   C635      1.0  0.38862  0.34633  0.27993  1.0000
  C   C636      1.0  0.38061  0.35491  0.29887  1.0000
  C   C637      1.0  0.60491  0.38139  0.12501  1.0000
  H   H642      1.0  0.43334  0.31043  0.45221  1.0000
  H   H643      1.0  0.38849  0.34638  0.24406  1.0000
  H   H644      1.0  0.38518  0.35008  0.31519  1.0000
  H   H645      1.0  0.53647  0.41150  0.45644  1.0000
  C   C638      1.0  0.46475  0.34143  0.45162  1.0000
  C   C639      1.0  0.46885  0.32685  0.43658  1.0000
  C   C640      1.0  0.46051  0.32731  0.41556  1.0000
  C   C641      1.0  0.44797  0.34236  0.40945  1.0000
  C   C642      1.0  0.44413  0.35708  0.42436  1.0000
  C   C643      1.0  0.45247  0.35664  0.44536  1.0000
  H   H646      1.0  0.47838  0.31506  0.44129  1.0000
  H   H647      1.0  0.46357  0.31590  0.40423  1.0000
  H   H648      1.0  0.43444  0.36878  0.41974  1.0000
  H   H649      1.0  0.44920  0.36792  0.45679  1.0000
  C   C644      1.0  0.40430  0.29388  0.40375  1.0000
  C   C645      1.0  0.36317  0.45665  0.10365  1.0000
  S   S229      1.0  0.58428  0.37383  0.03715  1.0000
  H   H650      1.0  0.39635  0.28917  0.38998  1.0000
  C   C646      1.0  0.66516  0.37250  0.25405  1.0000
  C   C647      1.0  0.37301  0.43903  0.10517  1.0000
  H   H651      1.0  0.43602  0.30209  0.26857  1.0000
  C   C648      1.0  0.54768  0.35415  0.49398  1.0000
  H   H652      1.0  0.38204  0.43433  0.09140  1.0000
  C   C649      1.0  0.61931  0.38894  0.08239  1.0000
  N   N57       1.0  0.35758  0.50051  0.26162  1.0000
  Fe  Fe114     1.0  0.41282  0.44075  0.02377  1.0000
  H   H653      1.0  0.59355  0.40568  0.07712  1.0000
  C   C650      1.0  0.35145  0.46259  0.12166  1.0000
  N   N58       1.0  0.41303  0.48057  0.47892  1.0000
  H   H654      1.0  0.63512  0.34702  0.12768  1.0000
  S   S230      1.0  0.35478  0.41690  0.16478  1.0000
  H   H655      1.0  0.62493  0.39170  0.06564  1.0000
  H   H656      1.0  0.64805  0.35497  0.23440  1.0000
  C   C651      1.0  0.52984  0.30939  0.26120  1.0000
  C   C652      1.0  0.53411  0.29177  0.27158  1.0000
  C   C653      1.0  0.52143  0.28421  0.28771  1.0000
  C   C654      1.0  0.50438  0.29414  0.29357  1.0000
  C   C655      1.0  0.50038  0.31202  0.28364  1.0000
  C   C656      1.0  0.51306  0.31958  0.26751  1.0000
  H   H657      1.0  0.54705  0.28386  0.26699  1.0000
  C   C657      1.0  0.60712  0.44632  0.02719  1.0000
  H   H658      1.0  0.48733  0.31982  0.28804  1.0000
  H   H659      1.0  0.50972  0.33331  0.25968  1.0000
  C   C658      1.0  0.59060  0.33526  0.13704  1.0000
  C   C659      1.0  0.57361  0.34313  0.14595  1.0000
  C   C660      1.0  0.56100  0.35371  0.13209  1.0000
  C   C661      1.0  0.56525  0.35651  0.10925  1.0000
  C   C662      1.0  0.58204  0.34829  0.10027  1.0000
  C   C663      1.0  0.59463  0.33771  0.11411  1.0000
  H   H660      1.0  0.57036  0.34136  0.16358  1.0000
  H   H661      1.0  0.54800  0.35995  0.13917  1.0000
  H   H662      1.0  0.58541  0.35020  0.08269  1.0000
  H   H663      1.0  0.60765  0.33153  0.10703  1.0000
  C   C664      1.0  0.64894  0.34464  0.26842  1.0000
  C   C665      1.0  0.65624  0.34781  0.28949  1.0000
  H   H664      1.0  0.62708  0.48867  0.03534  1.0000
  C   C666      1.0  0.37070  0.42724  0.12433  1.0000
  C   C667      1.0  0.40118  0.46576  0.47908  1.0000
  H   H665      1.0  0.41360  0.50832  0.49142  1.0000
  C   C668      1.0  0.58701  0.33118  0.28551  1.0000
  Fe  Fe115     1.0  0.47260  0.36322  0.50346  1.0000
  C   C669      1.0  0.46192  0.43769  0.01839  1.0000
  H   H666      1.0  0.49983  0.39605  0.01875  1.0000
  H   H667      1.0  0.39925  0.43523  0.47940  1.0000
  H   H668      1.0  0.49300  0.26512  0.26269  1.0000
  H   H669      1.0  0.54978  0.30390  0.32032  1.0000
  C   C670      1.0  0.59426  0.39293  0.11019  1.0000
  S   S231      1.0  0.43873  0.50421  0.01725  1.0000
  H   H670      1.0  0.59750  0.33867  0.27552  1.0000
  C   C671      1.0  0.35857  0.43295  0.14206  1.0000
  H   H671      1.0  0.44237  0.33137  0.24655  1.0000
  C   C672      1.0  0.41191  0.31794  0.42819  1.0000
  C   C673      1.0  0.49505  0.42642  0.01711  1.0000
  C   C674      1.0  0.52407  0.48579  0.01825  1.0000
  H   H672      1.0  0.34382  0.47622  0.12059  1.0000
  H   H673      1.0  0.54720  0.35431  0.26832  1.0000
  C   C675      1.0  0.63344  0.36162  0.13409  1.0000
  N   N59       1.0  0.62236  0.37386  0.11863  1.0000
  C   C676      1.0  0.65344  0.35718  0.25072  1.0000
  C   C677      1.0  0.49248  0.27246  0.24601  1.0000
  H   H674      1.0  0.45981  0.27523  0.26921  1.0000
  S   S232      1.0  0.38077  0.44181  0.02495  1.0000
  H   H675      1.0  0.50948  0.38354  0.06894  1.0000
  C   C678      1.0  0.61949  0.45933  0.03524  1.0000
  H   H676      1.0  0.51669  0.40644  0.05955  1.0000
  C   C679      1.0  0.42503  0.30553  0.43881  1.0000
  C   C680      1.0  0.59283  0.31513  0.29826  1.0000
  H   H677      1.0  0.39034  0.50076  0.48673  1.0000
  C   C681      1.0  0.61758  0.47869  0.02895  1.0000
  C   C682      1.0  0.40521  0.50013  0.48008  1.0000
  Fe  Fe116     1.0  0.64910  0.45406  0.50322  1.0000
  H   H678      1.0  0.59883  0.37798  0.14137  1.0000
  H   H679      1.0  0.52464  0.27037  0.29535  1.0000
  C   C683      1.0  0.67239  0.37570  0.27513  1.0000
  H   H680      1.0  0.54035  0.33265  0.29810  1.0000
  C   C684      1.0  0.36659  0.36975  0.29670  1.0000
  H   H681      1.0  0.60764  0.31024  0.29796  1.0000
  H   H682      1.0  0.34975  0.47655  0.24375  1.0000
  C   C685      1.0  0.48245  0.30479  0.23359  1.0000
  C   C686      1.0  0.43225  0.47731  0.47733  1.0000
  C   C687      1.0  0.55516  0.32786  0.29812  1.0000
  C   C688      1.0  0.66778  0.36325  0.29288  1.0000
  C   C689      1.0  0.60355  0.48498  0.01417  1.0000
  S   S233      1.0  0.43200  0.41426  0.02449  1.0000
  H   H683      1.0  0.48551  0.45589  0.01552  1.0000
  H   H684      1.0  0.54908  0.43912  0.50049  1.0000
  H   H685      1.0  0.56813  0.49195  0.03679  1.0000
  C   C690      1.0  0.60162  0.39680  0.08882  1.0000
  C   C691      1.0  0.46254  0.28780  0.25891  1.0000
  N   N60       1.0  0.40165  0.31200  0.41100  1.0000
  C   C692      1.0  0.62953  0.37737  0.09758  1.0000
  H   H686      1.0  0.63161  0.48268  0.46942  1.0000
  H   H687      1.0  0.56617  0.36700  0.27992  1.0000
  H   H688      1.0  0.35471  0.47156  0.27224  1.0000
  N   N61       1.0  0.48877  0.40641  0.07367  1.0000
  C   C693      1.0  0.47417  0.39434  0.07596  1.0000
  C   C694      1.0  0.48517  0.42563  0.07245  1.0000
  C   C695      1.0  0.45535  0.40147  0.07659  1.0000
  C   C696      1.0  0.46652  0.43324  0.07319  1.0000
  C   C697      1.0  0.45155  0.42104  0.07520  1.0000
  Fe  Fe117     1.0  0.60388  0.27605  0.21730  1.0000
  H   H689      1.0  0.66079  0.40406  0.42956  1.0000
  H   H690      1.0  0.49674  0.43514  0.07010  1.0000
  H   H691      1.0  0.44374  0.39192  0.07734  1.0000
  H   H692      1.0  0.46364  0.44843  0.07130  1.0000
  H   H693      1.0  0.43700  0.42668  0.07476  1.0000
  Fe  Fe118     1.0  0.54173  0.40825  0.02157  1.0000
  C   C698      1.0  0.66331  0.42914  0.44862  1.0000
  H   H694      1.0  0.37986  0.33384  0.41209  1.0000
  H   H695      1.0  0.47700  0.37911  0.07673  1.0000
  C   C699      1.0  0.55396  0.42628  0.50933  1.0000
  H   H696      1.0  0.43405  0.42908  0.47714  1.0000
  H   H697      1.0  0.67321  0.36542  0.30918  1.0000
  C   C700      1.0  0.34909  0.45076  0.14078  1.0000
  C   C701      1.0  0.56043  0.31161  0.31085  1.0000
  H   H698      1.0  0.48825  0.26232  0.23357  1.0000
  C   C702      1.0  0.50845  0.39886  0.07283  1.0000
  C   C703      1.0  0.44010  0.45878  0.47627  1.0000
  H   H699      1.0  0.53999  0.35257  0.51029  1.0000
  H   H700      1.0  0.49554  0.30569  0.22376  1.0000
  C   C704      1.0  0.66658  0.41797  0.42979  1.0000
  H   H701      1.0  0.50710  0.27687  0.24180  1.0000
  N   N62       1.0  0.53664  0.36697  0.47909  1.0000
  C   C705      1.0  0.51972  0.36138  0.47170  1.0000
  C   C706      1.0  0.54286  0.38459  0.47331  1.0000
  C   C707      1.0  0.50842  0.37364  0.45836  1.0000
  C   C708      1.0  0.53184  0.39727  0.46016  1.0000
  C   C709      1.0  0.51447  0.39176  0.45275  1.0000
  H   H702      1.0  0.44162  0.48905  0.47774  1.0000
  H   H703      1.0  0.51467  0.34747  0.47644  1.0000
  H   H704      1.0  0.55615  0.38920  0.47939  1.0000
  H   H705      1.0  0.49488  0.36923  0.45281  1.0000
  H   H706      1.0  0.40540  0.50721  0.46329  1.0000
  H   H707      1.0  0.35043  0.50831  0.22823  1.0000
  H   H708      1.0  0.62634  0.36036  0.15081  1.0000
  H   H709      1.0  0.54987  0.33995  0.48662  1.0000
  H   H710      1.0  0.58014  0.39832  0.11497  1.0000
  C   C710      1.0  0.45268  0.31945  0.24629  1.0000
  Fe  Fe119     1.0  0.41553  0.48327  0.02167  1.0000
  H   H711      1.0  0.47243  0.33317  0.22373  1.0000
  H   H712      1.0  0.64318  0.37109  0.09238  1.0000
  H   H713      1.0  0.67307  0.50500  0.26048  1.0000
  C   C711      1.0  0.36049  0.37637  0.27563  1.0000
  C   C712      1.0  0.46993  0.40399  0.02026  1.0000
  H   H714      1.0  0.36390  0.49661  0.29601  1.0000
  H   H715      1.0  0.58368  0.29242  0.32027  1.0000
  C   C713      1.0  0.46946  0.32041  0.23353  1.0000
  C   C714      1.0  0.35920  0.48015  0.25732  1.0000
  H   H716      1.0  0.41034  0.33252  0.43338  1.0000
  H   H717      1.0  0.37809  0.41347  0.12525  1.0000
  S   S234      1.0  0.60987  0.42210  0.03488  1.0000
  H   H718      1.0  0.63048  0.45443  0.04649  1.0000
  C   C715      1.0  0.40857  0.44704  0.47820  1.0000
  H   H719      1.0  0.50558  0.40158  0.44295  1.0000
  C   C716      1.0  0.57940  0.30517  0.31078  1.0000
  H   H720      1.0  0.38595  0.46833  0.48047  1.0000
  C   C717      1.0  0.44912  0.30300  0.25887  1.0000
  H   H721      1.0  0.36398  0.37269  0.24034  1.0000
  C   C718      1.0  0.36092  0.50669  0.28242  1.0000
  H   H722      1.0  0.58266  0.43493  0.51049  1.0000
  Fe  Fe120     1.0  0.58410  0.40524  0.02939  1.0000
  C   C719      1.0  0.42815  0.44358  0.47682  1.0000
  C   C720      1.0  0.62077  0.49461  0.46864  1.0000
  C   C721      1.0  0.67457  0.49827  0.30443  1.0000
  H   H723      1.0  0.65291  0.33824  0.30334  1.0000
  H   H724      1.0  0.39647  0.33540  0.38872  1.0000
  C   C722      1.0  0.42793  0.28707  0.43140  1.0000
  C   C723      1.0  0.55399  0.49566  0.03108  1.0000
  H   H725      1.0  0.60818  0.49025  0.47876  1.0000
  H   H726      1.0  0.46556  0.38950  0.02168  1.0000
  C   C724      1.0  0.48934  0.40768  0.01867  1.0000
  S   S235      1.0  0.51919  0.43181  0.01681  1.0000
  H   H727      1.0  0.43841  0.27744  0.43909  1.0000
  C   C725      1.0  0.54223  0.48114  0.02575  1.0000
  C   C726      1.0  0.45617  0.41899  0.02034  1.0000
  H   H728      1.0  0.54721  0.46634  0.02722  1.0000
  C   C727      1.0  0.41749  0.28116  0.41378  1.0000
  H   H729      1.0  0.37403  0.47589  0.25249  1.0000
  H   H730      1.0  0.66862  0.38196  0.24014  1.0000
  C   C728      1.0  0.67088  0.44705  0.44920  1.0000
  S   S236      1.0  0.66760  0.46141  0.47273  1.0000
  S   S237      1.0  0.51711  0.41685  0.50951  1.0000
  H   H731      1.0  0.56186  0.35959  0.49711  1.0000
  C   C729      1.0  0.51788  0.50483  0.01611  1.0000
  S   S238      1.0  0.34348  0.43532  0.22667  1.0000
  H   H732      1.0  0.65559  0.50016  0.48316  1.0000
  H   H733      1.0  0.51490  0.47460  0.01398  1.0000
  H   H734      1.0  0.64194  0.26314  0.82522  1.0000
  S   S239      1.0  0.61670  0.45278  0.55707  1.0000
  H   H735      1.0  0.35196  0.32088  0.78990  1.0000
  C   C730      1.0  0.42321  0.29848  0.61794  1.0000
  H   H736      1.0  0.65390  0.42353  0.59680  1.0000
  Fe  Fe121     1.0  0.64833  0.45480  0.55438  1.0000
  H   H737      1.0  0.43240  0.31392  0.58817  1.0000
  H   H738      1.0  0.45159  0.27269  0.65239  1.0000
  S   S240      1.0  0.56718  0.40415  0.99841  1.0000
  C   C731      1.0  0.43110  0.50872  0.96160  1.0000
  N   N63       1.0  0.66124  0.28563  0.82476  1.0000
  S   S241      1.0  0.56768  0.34790  0.98480  1.0000
  S   S242      1.0  0.41497  0.46172  0.99510  1.0000
  Fe  Fe122     1.0  0.59420  0.32437  0.85981  1.0000
  S   S243      1.0  0.62244  0.31084  0.84980  1.0000
  S   S244      1.0  0.59050  0.34997  0.88172  1.0000
  Fe  Fe123     1.0  0.57266  0.30067  0.82819  1.0000
  S   S245      1.0  0.59944  0.28521  0.81569  1.0000
  S   S246      1.0  0.54169  0.29459  0.82245  1.0000
  Fe  Fe124     1.0  0.60771  0.28298  0.85159  1.0000
  Fe  Fe125     1.0  0.61242  0.31407  0.81477  1.0000
  S   S247      1.0  0.63176  0.32289  0.78520  1.0000
  S   S248      1.0  0.58023  0.29659  0.86439  1.0000
  S   S249      1.0  0.58495  0.32945  0.82447  1.0000
  S   S250      1.0  0.45176  0.36469  0.53255  1.0000
  N   N64       1.0  0.64037  0.39679  0.74628  1.0000
  N   N65       1.0  0.64628  0.50124  0.96908  1.0000
  H   H739      1.0  0.40724  0.26871  0.64664  1.0000
  Fe  Fe126     1.0  0.46127  0.30323  0.72921  1.0000
  S   S251      1.0  0.43989  0.28811  0.75079  1.0000
  S   S252      1.0  0.49215  0.30919  0.73565  1.0000
  Fe  Fe127     1.0  0.43210  0.31386  0.69391  1.0000
  S   S253      1.0  0.40849  0.29968  0.71324  1.0000
  S   S254      1.0  0.42426  0.32909  0.66140  1.0000
  Fe  Fe128     1.0  0.41978  0.31323  0.74321  1.0000
  S   S255      1.0  0.40318  0.32638  0.77283  1.0000
  Fe  Fe129     1.0  0.43018  0.27568  0.71895  1.0000
  S   S256      1.0  0.44181  0.32902  0.72340  1.0000
  S   S257      1.0  0.45312  0.28915  0.69781  1.0000
  Fe  Fe130     1.0  0.47710  0.36820  0.55354  1.0000
  C   C732      1.0  0.54085  0.35330  0.89840  1.0000
  S   S258      1.0  0.48451  0.35190  0.58562  1.0000
  N   N66       1.0  0.54103  0.33724  0.88624  1.0000
  H   H740      1.0  0.43135  0.49359  0.96745  1.0000
  C   C733      1.0  0.46107  0.28745  0.62263  1.0000
  H   H741      1.0  0.40853  0.30339  0.61637  1.0000
  S   S259      1.0  0.47620  0.40008  0.55009  1.0000
  H   H742      1.0  0.64336  0.40683  0.77905  1.0000
  C   C734      1.0  0.43114  0.44062  0.53056  1.0000
  C   C735      1.0  0.59134  0.47194  0.00596  1.0000
  S   S260      1.0  0.44283  0.50392  0.53094  1.0000
  C   C736      1.0  0.41431  0.28128  0.65248  1.0000
  H   H743      1.0  0.57173  0.38060  0.54120  1.0000
  C   C737      1.0  0.62631  0.36738  0.73877  1.0000
  H   H744      1.0  0.41842  0.37451  0.77309  1.0000
  C   C738      1.0  0.62938  0.38209  0.75309  1.0000
  H   H745      1.0  0.58056  0.47670  0.99437  1.0000
  H   H746      1.0  0.46745  0.47075  0.52896  1.0000
  C   C739      1.0  0.44142  0.33688  0.64152  1.0000
  C   C740      1.0  0.43538  0.34695  0.62225  1.0000
  C   C741      1.0  0.44845  0.35201  0.60516  1.0000
  C   C742      1.0  0.46772  0.34706  0.60727  1.0000
  C   C743      1.0  0.47381  0.33732  0.62676  1.0000
  C   C744      1.0  0.46073  0.33226  0.64383  1.0000
  H   H747      1.0  0.42047  0.35063  0.62036  1.0000
  H   H748      1.0  0.44361  0.35956  0.59029  1.0000
  H   H749      1.0  0.48870  0.33350  0.62854  1.0000
  H   H750      1.0  0.46557  0.32453  0.65860  1.0000
  C   C745      1.0  0.36132  0.37839  0.77858  1.0000
  C   C746      1.0  0.36844  0.36892  0.79758  1.0000
  C   C747      1.0  0.38138  0.35318  0.79545  1.0000
  C   C748      1.0  0.38741  0.34674  0.77436  1.0000
  C   C749      1.0  0.38061  0.35647  0.75537  1.0000
  C   C750      1.0  0.36765  0.37218  0.75750  1.0000
  H   H751      1.0  0.36373  0.37351  0.81390  1.0000
  H   H752      1.0  0.38656  0.34580  0.81028  1.0000
  H   H753      1.0  0.38510  0.35173  0.73903  1.0000
  C   C751      1.0  0.54108  0.41249  0.51573  1.0000
  H   H754      1.0  0.66150  0.37966  0.81211  1.0000
  C   C752      1.0  0.36924  0.43790  0.94624  1.0000
  C   C753      1.0  0.36606  0.42606  0.92844  1.0000
  C   C754      1.0  0.35458  0.43244  0.91075  1.0000
  C   C755      1.0  0.64097  0.46939  0.98243  1.0000
  H   H755      1.0  0.37812  0.43280  0.95974  1.0000
  H   H756      1.0  0.37254  0.41187  0.92840  1.0000
  C   C756      1.0  0.52850  0.29809  0.79776  1.0000
  C   C757      1.0  0.53558  0.30791  0.77893  1.0000
  C   C758      1.0  0.52433  0.31092  0.76002  1.0000
  C   C759      1.0  0.50593  0.30412  0.75960  1.0000
  C   C760      1.0  0.49891  0.29414  0.77835  1.0000
  C   C761      1.0  0.51010  0.29126  0.79734  1.0000
  H   H757      1.0  0.54968  0.31324  0.77897  1.0000
  H   H758      1.0  0.52993  0.31859  0.74559  1.0000
  H   H759      1.0  0.48483  0.28875  0.77826  1.0000
  H   H760      1.0  0.57659  0.46619  0.55272  1.0000
  C   C762      1.0  0.64763  0.34181  0.78380  1.0000
  C   C763      1.0  0.65945  0.34417  0.76471  1.0000
  C   C764      1.0  0.67240  0.37246  0.77943  1.0000
  H   H761      1.0  0.63164  0.45762  0.98458  1.0000
  C   C765      1.0  0.64857  0.35465  0.80091  1.0000
  H   H762      1.0  0.65895  0.33427  0.75140  1.0000
  H   H763      1.0  0.62065  0.48717  0.96472  1.0000
  H   H764      1.0  0.63967  0.35301  0.81576  1.0000
  C   C766      1.0  0.57621  0.34872  0.95681  1.0000
  C   C767      1.0  0.57888  0.36591  0.94516  1.0000
  C   C768      1.0  0.58387  0.36600  0.92230  1.0000
  C   C769      1.0  0.58626  0.34895  0.91089  1.0000
  C   C770      1.0  0.58409  0.33172  0.92266  1.0000
  C   C771      1.0  0.57913  0.33163  0.94553  1.0000
  H   H765      1.0  0.57670  0.37914  0.95365  1.0000
  H   H766      1.0  0.58557  0.37939  0.91332  1.0000
  H   H767      1.0  0.58593  0.31851  0.91408  1.0000
  H   H768      1.0  0.57715  0.31827  0.95446  1.0000
  C   C772      1.0  0.55177  0.41098  0.58155  1.0000
  Fe  Fe131     1.0  0.38327  0.46477  0.99818  1.0000
  H   H769      1.0  0.54365  0.36690  0.89033  1.0000
  H   H770      1.0  0.66354  0.45548  0.00094  1.0000
  H   H771      1.0  0.63182  0.42346  0.75949  1.0000
  H   H772      1.0  0.40354  0.29297  0.65557  1.0000
  S   S261      1.0  0.34360  0.39712  0.78014  1.0000
  C   C773      1.0  0.67650  0.31541  0.82297  1.0000
  C   C774      1.0  0.44726  0.28158  0.63822  1.0000
  Fe  Fe132     1.0  0.45247  0.39649  0.52686  1.0000
  C   C775      1.0  0.45306  0.46614  0.53019  1.0000
  H   H773      1.0  0.36226  0.37941  0.74267  1.0000
  C   C776      1.0  0.66095  0.36979  0.79877  1.0000
  C   C777      1.0  0.66411  0.50001  0.97747  1.0000
  H   H774      1.0  0.65644  0.40937  0.71946  1.0000
  Fe  Fe133     1.0  0.56520  0.37306  0.00770  1.0000
  C   C778      1.0  0.44970  0.44672  0.52944  1.0000
  H   H775      1.0  0.54934  0.41326  0.59961  1.0000
  C   C779      1.0  0.53307  0.43543  0.56075  1.0000
  C   C780      1.0  0.45568  0.29902  0.60441  1.0000
  H   H776      1.0  0.47591  0.28347  0.62494  1.0000
  H   H777      1.0  0.65177  0.38370  0.69375  1.0000
  H   H778      1.0  0.39648  0.49526  0.96337  1.0000
  C   C781      1.0  0.54750  0.39591  0.52708  1.0000
  C   C782      1.0  0.57953  0.40752  0.52654  1.0000
  H   H779      1.0  0.55551  0.34806  0.85738  1.0000
  C   C783      1.0  0.54358  0.33882  0.86197  1.0000
  C   C784      1.0  0.43792  0.47962  0.53200  1.0000
  H   H780      1.0  0.65918  0.27182  0.85682  1.0000
  C   C785      1.0  0.53517  0.33475  0.93219  1.0000
  S   S262      1.0  0.60323  0.40487  0.53489  1.0000
  H   H781      1.0  0.54132  0.40096  0.57596  1.0000
  S   S263      1.0  0.35026  0.41659  0.88940  1.0000
  C   C786      1.0  0.66401  0.28403  0.84719  1.0000
  H   H782      1.0  0.53043  0.34488  0.85438  1.0000
  N   N67       1.0  0.42866  0.28739  0.63595  1.0000
  C   C787      1.0  0.56677  0.39334  0.53223  1.0000
  C   C788      1.0  0.65887  0.46822  0.99167  1.0000
  Fe  Fe134     1.0  0.61552  0.47365  0.52812  1.0000
  C   C789      1.0  0.64318  0.41219  0.76144  1.0000
  H   H783      1.0  0.54703  0.32480  0.85459  1.0000
  H   H784      1.0  0.61816  0.35540  0.74458  1.0000
  S   S264      1.0  0.36420  0.47158  0.96872  1.0000
  C   C790      1.0  0.63447  0.36785  0.71734  1.0000
  H   H785      1.0  0.64292  0.27701  0.79985  1.0000
  H   H786      1.0  0.65717  0.41847  0.75816  1.0000
  C   C791      1.0  0.63484  0.48614  0.97120  1.0000
  C   C792      1.0  0.53535  0.31844  0.91966  1.0000
  C   C793      1.0  0.56559  0.44012  0.56658  1.0000
  C   C794      1.0  0.36087  0.45623  0.94656  1.0000
  H   H787      1.0  0.46631  0.30431  0.59263  1.0000
  H   H788      1.0  0.53365  0.33377  0.95023  1.0000
  C   C795      1.0  0.56428  0.45765  0.55502  1.0000
  N   N68       1.0  0.55014  0.42917  0.56909  1.0000
  C   C796      1.0  0.67163  0.35949  0.76242  1.0000
  H   H789      1.0  0.42065  0.27758  0.66885  1.0000
  C   C797      1.0  0.66785  0.30078  0.81256  1.0000
  C   C798      1.0  0.66487  0.41762  0.62969  1.0000
  S   S265      1.0  0.59159  0.49579  0.52401  1.0000
  H   H790      1.0  0.63247  0.35637  0.70621  1.0000
  C   C799      1.0  0.53132  0.45279  0.54887  1.0000
  C   C800      1.0  0.66950  0.44675  0.60783  1.0000
  Fe  Fe135     1.0  0.62080  0.43093  0.53085  1.0000
  H   H791      1.0  0.46147  0.43651  0.52748  1.0000
  H   H792      1.0  0.56607  0.40400  0.57882  1.0000
  H   H793      1.0  0.50450  0.28358  0.81177  1.0000
  H   H794      1.0  0.51795  0.45725  0.54147  1.0000
  C   C801      1.0  0.54708  0.46393  0.54597  1.0000
  Fe  Fe136     1.0  0.49487  0.39604  0.51966  1.0000
  H   H795      1.0  0.53361  0.30470  0.92787  1.0000
  C   C802      1.0  0.67545  0.42423  0.64704  1.0000
  H   H796      1.0  0.62339  0.38136  0.76991  1.0000
  H   H797      1.0  0.58342  0.44278  0.00629  1.0000
  C   C803      1.0  0.41935  0.47355  0.53352  1.0000
  H   H798      1.0  0.40759  0.48381  0.53502  1.0000
  C   C804      1.0  0.53784  0.35231  0.92151  1.0000
  C   C805      1.0  0.66189  0.42883  0.61016  1.0000
  H   H799      1.0  0.53837  0.30723  0.88687  1.0000
  S   S266      1.0  0.49808  0.36456  0.52485  1.0000
  H   H800      1.0  0.52083  0.42668  0.56248  1.0000
  C   C806      1.0  0.53819  0.31997  0.89652  1.0000
  C   C807      1.0  0.43662  0.30444  0.60191  1.0000
  H   H801      1.0  0.43432  0.38195  0.75103  1.0000
  C   C808      1.0  0.41599  0.45407  0.53281  1.0000
  C   C809      1.0  0.34623  0.45079  0.91103  1.0000
  H   H802      1.0  0.53839  0.36495  0.93124  1.0000
  H   H803      1.0  0.65911  0.40369  0.63123  1.0000
  C   C810      1.0  0.34934  0.46260  0.92890  1.0000
  H   H804      1.0  0.57917  0.43511  0.57304  1.0000
  S   S267      1.0  0.64668  0.47774  0.52741  1.0000
  H   H805      1.0  0.53760  0.38522  0.53211  1.0000
  C   C811      1.0  0.64534  0.38308  0.71039  1.0000
  N   N69       1.0  0.44466  0.35820  0.77086  1.0000
  C   C812      1.0  0.44140  0.34821  0.79039  1.0000
  C   C813      1.0  0.46208  0.35694  0.76030  1.0000
  C   C814      1.0  0.45594  0.33696  0.80014  1.0000
  C   C815      1.0  0.47696  0.34594  0.76967  1.0000
  C   C816      1.0  0.47386  0.33598  0.78977  1.0000
  C   C817      1.0  0.42908  0.36934  0.76044  1.0000
  H   H806      1.0  0.42740  0.34859  0.79833  1.0000
  H   H807      1.0  0.46446  0.36408  0.74428  1.0000
  H   H808      1.0  0.45321  0.32878  0.81540  1.0000
  H   H809      1.0  0.49066  0.34463  0.76104  1.0000
  H   H810      1.0  0.48524  0.32723  0.79704  1.0000
  H   H811      1.0  0.42182  0.36036  0.74883  1.0000
  S   S268      1.0  0.65286  0.43123  0.53014  1.0000
  C   C818      1.0  0.65172  0.27075  0.81354  1.0000
  H   H812      1.0  0.40160  0.44942  0.53370  1.0000
  C   C819      1.0  0.64805  0.39758  0.72511  1.0000
  S   S269      1.0  0.42655  0.41652  0.52723  1.0000
  C   C820      1.0  0.39679  0.50975  0.96883  1.0000
  S   S270      1.0  0.60091  0.50891  0.00523  1.0000
  C   C821      1.0  0.67058  0.48358  0.98911  1.0000
  H   H813      1.0  0.54613  0.47728  0.53648  1.0000
  S   S271      1.0  0.66716  0.46092  0.58312  1.0000
  H   H814      1.0  0.36815  0.51101  0.62423  1.0000
  H   H815      1.0  0.66603  0.30185  0.79469  1.0000
  H   H816      1.0  0.43233  0.50948  0.94316  1.0000
  C   C822      1.0  0.59294  0.45272  0.01268  1.0000
  C   C823      1.0  0.35106  0.51130  0.65464  1.0000
  C   C824      1.0  0.57305  0.42391  0.51494  1.0000
  H   H817      1.0  0.67419  0.29735  0.87606  1.0000
  C   C825      1.0  0.67260  0.29841  0.85816  1.0000
  H   H818      1.0  0.50375  0.50858  0.01028  1.0000
  C   C826      1.0  0.66683  0.70677  0.36531  1.0000
  S   S272      1.0  0.61469  0.54688  0.04794  1.0000
  H   H819      1.0  0.64553  0.55854  0.49978  1.0000
  Fe  Fe137     1.0  0.64619  0.54548  0.05271  1.0000
  H   H820      1.0  0.61652  0.58143  0.07283  1.0000
  C   C827      1.0  0.35340  0.51325  0.24462  1.0000
  H   H821      1.0  0.65092  0.58659  0.15264  1.0000
  H   H822      1.0  0.52664  0.61637  0.44290  1.0000
  S   S273      1.0  0.57616  0.66509  0.48585  1.0000
  Fe  Fe138     1.0  0.57369  0.71065  0.32070  1.0000
  S   S274      1.0  0.60196  0.72336  0.31285  1.0000
  S   S275      1.0  0.54772  0.72299  0.30264  1.0000
  Fe  Fe139     1.0  0.59026  0.68417  0.35683  1.0000
  S   S276      1.0  0.61960  0.69476  0.35142  1.0000
  S   S277      1.0  0.58347  0.65944  0.38054  1.0000
  Fe  Fe140     1.0  0.60524  0.72413  0.34989  1.0000
  C   C828      1.0  0.65129  0.74746  0.32742  1.0000
  Fe  Fe141     1.0  0.61414  0.69316  0.31487  1.0000
  S   S278      1.0  0.63578  0.68508  0.28710  1.0000
  S   S279      1.0  0.57616  0.71334  0.35780  1.0000
  S   S280      1.0  0.58560  0.68063  0.32014  1.0000
  C   C829      1.0  0.66089  0.72493  0.35753  1.0000
  H   H823      1.0  0.66715  0.52962  0.49790  1.0000
  Fe  Fe142     1.0  0.47478  0.63218  0.05645  1.0000
  S   S281      1.0  0.44889  0.64003  0.03675  1.0000
  S   S282      1.0  0.48153  0.63999  0.09162  1.0000
  Fe  Fe143     1.0  0.44934  0.60892  0.02929  1.0000
  H   H824      1.0  0.35249  0.53328  0.43326  1.0000
  C   C830      1.0  0.53425  0.66955  0.45022  1.0000
  S   S283      1.0  0.47370  0.60089  0.05110  1.0000
  N   N70       1.0  0.53468  0.66237  0.42934  1.0000
  S   S284      1.0  0.37163  0.53966  0.47344  1.0000
  C   C831      1.0  0.67595  0.53514  0.25817  1.0000
  C   C832      1.0  0.63846  0.58126  0.14427  1.0000
  Fe  Fe144     1.0  0.43455  0.69539  0.19207  1.0000
  S   S285      1.0  0.41249  0.71454  0.20901  1.0000
  S   S286      1.0  0.42761  0.68895  0.15647  1.0000
  Fe  Fe145     1.0  0.46089  0.69499  0.23175  1.0000
  S   S287      1.0  0.44077  0.71417  0.25104  1.0000
  S   S288      1.0  0.48814  0.68127  0.24587  1.0000
  Fe  Fe146     1.0  0.41776  0.69571  0.23958  1.0000
  S   S289      1.0  0.39552  0.68628  0.26593  1.0000
  Fe  Fe147     1.0  0.43713  0.73117  0.21876  1.0000
  H   H825      1.0  0.52597  0.62919  0.48078  1.0000
  S   S290      1.0  0.43817  0.67554  0.22197  1.0000
  S   S291      1.0  0.45893  0.71294  0.20020  1.0000
  C   C833      1.0  0.36143  0.63186  0.27598  1.0000
  C   C834      1.0  0.37118  0.63563  0.25563  1.0000
  C   C835      1.0  0.38205  0.65189  0.25241  1.0000
  C   C836      1.0  0.38301  0.66487  0.26940  1.0000
  C   C837      1.0  0.37332  0.66106  0.28978  1.0000
  C   C838      1.0  0.36276  0.64462  0.29315  1.0000
  C   C839      1.0  0.63170  0.60619  0.07955  1.0000
  H   H826      1.0  0.38929  0.65459  0.23660  1.0000
  H   H827      1.0  0.37390  0.67097  0.30306  1.0000
  H   H828      1.0  0.62979  0.61249  0.06297  1.0000
  C   C840      1.0  0.36896  0.55385  0.44882  1.0000
  S   S292      1.0  0.42022  0.54831  0.50311  1.0000
  H   H829      1.0  0.53142  0.66343  0.48553  1.0000
  C   C841      1.0  0.37641  0.57184  0.44646  1.0000
  C   C842      1.0  0.53009  0.51901  0.02136  1.0000
  H   H830      1.0  0.38472  0.57708  0.45957  1.0000
  C   C843      1.0  0.46699  0.65477  0.10887  1.0000
  C   C844      1.0  0.45046  0.66415  0.10119  1.0000
  C   C845      1.0  0.43874  0.67492  0.11587  1.0000
  C   C846      1.0  0.44342  0.67636  0.13830  1.0000
  C   C847      1.0  0.46007  0.66720  0.14589  1.0000
  C   C848      1.0  0.47180  0.65648  0.13120  1.0000
  H   H831      1.0  0.44663  0.66297  0.08402  1.0000
  H   H832      1.0  0.42589  0.68200  0.10986  1.0000
  H   H833      1.0  0.46383  0.66823  0.16311  1.0000
  H   H834      1.0  0.48461  0.64932  0.13724  1.0000
  N   N71       1.0  0.41363  0.75050  0.15273  1.0000
  H   H835      1.0  0.37023  0.62596  0.24217  1.0000
  C   C849      1.0  0.41331  0.55463  0.03461  1.0000
  C   C850      1.0  0.42770  0.56734  0.02988  1.0000
  C   C851      1.0  0.52827  0.63854  0.46634  1.0000
  H   H836      1.0  0.54336  0.69070  0.22913  1.0000
  C   C852      1.0  0.62695  0.58047  0.10629  1.0000
  C   C853      1.0  0.35972  0.52609  0.28673  1.0000
  H   H837      1.0  0.63583  0.74736  0.32459  1.0000
  C   C854      1.0  0.53067  0.71082  0.28819  1.0000
  C   C855      1.0  0.53222  0.69120  0.28543  1.0000
  C   C856      1.0  0.51910  0.68238  0.27239  1.0000
  C   C857      1.0  0.50422  0.69304  0.26217  1.0000
  C   C858      1.0  0.50244  0.71257  0.26536  1.0000
  C   C859      1.0  0.51565  0.72140  0.27821  1.0000
  H   H838      1.0  0.54371  0.68289  0.29300  1.0000
  H   H839      1.0  0.52054  0.66724  0.27013  1.0000
  H   H840      1.0  0.49103  0.72094  0.25766  1.0000
  H   H841      1.0  0.51435  0.73659  0.28021  1.0000
  C   C860      1.0  0.64750  0.66281  0.28081  1.0000
  C   C861      1.0  0.64493  0.64633  0.29394  1.0000
  C   C862      1.0  0.65462  0.62909  0.28832  1.0000
  H   H842      1.0  0.52338  0.68146  0.40460  1.0000
  N   N72       1.0  0.67638  0.51657  0.29243  1.0000
  C   C863      1.0  0.46370  0.58192  0.50885  1.0000
  H   H843      1.0  0.63556  0.64684  0.30850  1.0000
  H   H844      1.0  0.61260  0.55733  0.48703  1.0000
  H   H845      1.0  0.55291  0.54174  0.04088  1.0000
  H   H846      1.0  0.40544  0.52535  0.03491  1.0000
  S   S293      1.0  0.49517  0.63663  0.02743  1.0000
  C   C864      1.0  0.57999  0.66286  0.45678  1.0000
  C   C865      1.0  0.58390  0.67908  0.44352  1.0000
  C   C866      1.0  0.58574  0.67812  0.42018  1.0000
  C   C867      1.0  0.58351  0.66093  0.40988  1.0000
  C   C868      1.0  0.57990  0.64464  0.42314  1.0000
  C   C869      1.0  0.57819  0.64558  0.44648  1.0000
  H   H847      1.0  0.58534  0.69251  0.45134  1.0000
  H   H848      1.0  0.58851  0.69077  0.41015  1.0000
  H   H849      1.0  0.57819  0.63128  0.41530  1.0000
  H   H850      1.0  0.57517  0.63300  0.45645  1.0000
  C   C870      1.0  0.64163  0.61544  0.09538  1.0000
  H   H851      1.0  0.48853  0.57060  0.49130  1.0000
  H   H852      1.0  0.53229  0.63783  0.41002  1.0000
  H   H853      1.0  0.46194  0.58047  0.09991  1.0000
  H   H854      1.0  0.40235  0.72291  0.15296  1.0000
  C   C871      1.0  0.53727  0.67510  0.40982  1.0000
  N   N73       1.0  0.54783  0.51430  0.02892  1.0000
  H   H855      1.0  0.45669  0.57009  0.01864  1.0000
  C   C872      1.0  0.53862  0.58837  0.01657  1.0000
  C   C873      1.0  0.66714  0.69611  0.32760  1.0000
  H   H856      1.0  0.65804  0.73599  0.36947  1.0000
  H   H857      1.0  0.67429  0.67806  0.35600  1.0000
  H   H858      1.0  0.54677  0.68667  0.41347  1.0000
  H   H859      1.0  0.56619  0.61992  0.04057  1.0000
  C   C874      1.0  0.57602  0.71424  0.25637  1.0000
  H   H860      1.0  0.45653  0.63850  0.29312  1.0000
  H   H861      1.0  0.65183  0.61411  0.12875  1.0000
  C   C875      1.0  0.48298  0.58142  0.50237  1.0000
  N   N74       1.0  0.63662  0.58966  0.12176  1.0000
  C   C876      1.0  0.36162  0.57679  0.41029  1.0000
  C   C877      1.0  0.64382  0.60700  0.11662  1.0000
  C   C878      1.0  0.41663  0.53507  0.03144  1.0000
  C   C879      1.0  0.66939  0.55297  0.10386  1.0000
  C   C880      1.0  0.55646  0.69326  0.23734  1.0000
  S   S294      1.0  0.65160  0.57214  0.03256  1.0000
  C   C881      1.0  0.37278  0.58323  0.42723  1.0000
  H   H862      1.0  0.67099  0.57575  0.07928  1.0000
  C   C882      1.0  0.66697  0.62799  0.26949  1.0000
  N   N75       1.0  0.44480  0.60539  0.10744  1.0000
  C   C883      1.0  0.44013  0.61874  0.12289  1.0000
  C   C884      1.0  0.43381  0.60375  0.08931  1.0000
  C   C885      1.0  0.42382  0.63059  0.12069  1.0000
  C   C886      1.0  0.41761  0.61561  0.08635  1.0000
  C   C887      1.0  0.41261  0.62911  0.10217  1.0000
  C   C888      1.0  0.65279  0.52937  0.49208  1.0000
  H   H863      1.0  0.44925  0.62061  0.13677  1.0000
  H   H864      1.0  0.43756  0.59332  0.07690  1.0000
  H   H865      1.0  0.42030  0.64131  0.13288  1.0000
  H   H866      1.0  0.40916  0.61440  0.07170  1.0000
  H   H867      1.0  0.40023  0.63858  0.09994  1.0000
  H   H868      1.0  0.38681  0.74170  0.14263  1.0000
  C   C889      1.0  0.35212  0.53276  0.24834  1.0000
  N   N76       1.0  0.45201  0.66840  0.29080  1.0000
  C   C890      1.0  0.46683  0.67891  0.29638  1.0000
  C   C891      1.0  0.43378  0.67456  0.29567  1.0000
  C   C892      1.0  0.46357  0.69675  0.30558  1.0000
  C   C893      1.0  0.42995  0.69228  0.30498  1.0000
  C   C894      1.0  0.44496  0.70352  0.30972  1.0000
  C   C895      1.0  0.45563  0.65011  0.28024  1.0000
  H   H869      1.0  0.48130  0.67374  0.29316  1.0000
  H   H870      1.0  0.42204  0.66596  0.29186  1.0000
  H   H871      1.0  0.47541  0.70538  0.30901  1.0000
  H   H872      1.0  0.41538  0.69741  0.30780  1.0000
  H   H873      1.0  0.44217  0.71751  0.31637  1.0000
  C   C896      1.0  0.53110  0.65776  0.46900  1.0000
  H   H874      1.0  0.44417  0.64737  0.26862  1.0000
  H   H875      1.0  0.46904  0.65007  0.27003  1.0000
  N   N77       1.0  0.58621  0.68158  0.25205  1.0000
  C   C897      1.0  0.56998  0.67846  0.24110  1.0000
  C   C898      1.0  0.62220  0.54492  0.48583  1.0000
  C   C899      1.0  0.66103  0.71439  0.32043  1.0000
  C   C900      1.0  0.67001  0.69230  0.35019  1.0000
  Fe  Fe148     1.0  0.62035  0.57232  0.02597  1.0000
  C   C901      1.0  0.60034  0.66606  0.25612  1.0000
  H   H876      1.0  0.37837  0.59724  0.42565  1.0000
  H   H877      1.0  0.60205  0.70160  0.26858  1.0000
  S   S295      1.0  0.34805  0.57289  0.32656  1.0000
  C   C902      1.0  0.53181  0.64355  0.42656  1.0000
  H   H878      1.0  0.60165  0.66320  0.27433  1.0000
  H   H879      1.0  0.59666  0.65268  0.24841  1.0000
  H   H880      1.0  0.61445  0.67001  0.24920  1.0000
  S   S296      1.0  0.35587  0.59242  0.38761  1.0000
  C   C903      1.0  0.35825  0.54720  0.43159  1.0000
  H   H881      1.0  0.62549  0.58472  0.15445  1.0000
  C   C904      1.0  0.35523  0.53918  0.26958  1.0000
  C   C905      1.0  0.66943  0.64447  0.25630  1.0000
  H   H882      1.0  0.54413  0.66741  0.39564  1.0000
  S   S297      1.0  0.65174  0.52626  0.02379  1.0000
  H   H883      1.0  0.39953  0.55992  0.04059  1.0000
  C   C906      1.0  0.58932  0.69918  0.25966  1.0000
  H   H884      1.0  0.57816  0.72800  0.26320  1.0000
  C   C907      1.0  0.43146  0.74368  0.15784  1.0000
  C   C908      1.0  0.55954  0.71124  0.24506  1.0000
  H   H885      1.0  0.54884  0.72268  0.24305  1.0000
  H   H886      1.0  0.62156  0.56655  0.11016  1.0000
  C   C909      1.0  0.44550  0.56041  0.02229  1.0000
  H   H887      1.0  0.36149  0.53087  0.30349  1.0000
  C   C910      1.0  0.43436  0.52823  0.02344  1.0000
  H   H888      1.0  0.67043  0.53298  0.13175  1.0000
  H   H889      1.0  0.56728  0.66446  0.23539  1.0000
  H   H890      1.0  0.64773  0.62896  0.09117  1.0000
  H   H891      1.0  0.53695  0.68435  0.45253  1.0000
  C   C911      1.0  0.52864  0.63135  0.44501  1.0000
  C   C912      1.0  0.65978  0.66173  0.26196  1.0000
  C   C913      1.0  0.46220  0.59344  0.10987  1.0000
  H   H892      1.0  0.65344  0.75843  0.33987  1.0000
  S   S298      1.0  0.60071  0.59801  0.03099  1.0000
  Fe  Fe149     1.0  0.49192  0.60596  0.02063  1.0000
  H   H893      1.0  0.47462  0.60159  0.10409  1.0000
  S   S299      1.0  0.61859  0.74671  0.37051  1.0000
  H   H894      1.0  0.64071  0.56559  0.14368  1.0000
  C   C914      1.0  0.62425  0.58865  0.08505  1.0000
  S   S300      1.0  0.65634  0.53796  0.08761  1.0000
  H   H895      1.0  0.46409  0.58884  0.12754  1.0000
  S   S301      1.0  0.56930  0.60992  0.49915  1.0000
  Fe  Fe150     1.0  0.38849  0.54697  0.50346  1.0000
  C   C915      1.0  0.64073  0.54558  0.49302  1.0000
  H   H896      1.0  0.34599  0.55351  0.39945  1.0000
  S   S302      1.0  0.42314  0.59186  0.03300  1.0000
  H   H897      1.0  0.65880  0.75180  0.31172  1.0000
  H   H898      1.0  0.57186  0.52429  0.04516  1.0000
  H   H899      1.0  0.53247  0.61461  0.03319  1.0000
  C   C916      1.0  0.39765  0.73801  0.15524  1.0000
  C   C917      1.0  0.64610  0.51269  0.48386  1.0000
  C   C918      1.0  0.56070  0.52934  0.03343  1.0000
  Fe  Fe151     1.0  0.56927  0.64021  0.50921  1.0000
  H   H900      1.0  0.34827  0.54279  0.23500  1.0000
  C   C919      1.0  0.57685  0.59419  0.02537  1.0000
  N   N78       1.0  0.65820  0.72857  0.33531  1.0000
  H   H901      1.0  0.45450  0.57163  0.50265  1.0000
  H   H902      1.0  0.43396  0.72894  0.16304  1.0000
  C   C920      1.0  0.57200  0.57806  0.01431  1.0000
  H   H903      1.0  0.65257  0.61649  0.29870  1.0000
  S   S303      1.0  0.51958  0.59210  0.50349  1.0000
  H   H904      1.0  0.52532  0.53383  0.01931  1.0000
  H   H905      1.0  0.66194  0.67434  0.25163  1.0000
  H   H906      1.0  0.66912  0.68486  0.31574  1.0000
  C   C921      1.0  0.54343  0.60448  0.02772  1.0000
  C   C922      1.0  0.67429  0.57104  0.09608  1.0000
  H   H907      1.0  0.39108  0.73930  0.17218  1.0000
  H   H908      1.0  0.35378  0.55422  0.27290  1.0000
  H   H909      1.0  0.65828  0.71705  0.30291  1.0000
  H   H910      1.0  0.66853  0.70389  0.38299  1.0000
  C   C923      1.0  0.44879  0.54092  0.01904  1.0000
  C   C924      1.0  0.56252  0.60744  0.03196  1.0000
  Fe  Fe152     1.0  0.62078  0.53028  0.01730  1.0000
  C   C925      1.0  0.49518  0.59454  0.51049  1.0000
  S   S304      1.0  0.34696  0.61171  0.27856  1.0000
  C   C926      1.0  0.67474  0.51770  0.26979  1.0000
  H   H911      1.0  0.35538  0.64200  0.30890  1.0000
  C   C927      1.0  0.44668  0.75568  0.15685  1.0000
  C   C928      1.0  0.61587  0.52790  0.47812  1.0000
  C   C929      1.0  0.35454  0.55863  0.41242  1.0000
  H   H912      1.0  0.46066  0.75032  0.16167  1.0000
  C   C930      1.0  0.67401  0.54700  0.12566  1.0000
  N   N79       1.0  0.62781  0.51210  0.47714  1.0000
  H   H913      1.0  0.60123  0.52727  0.47338  1.0000
  H   H914      1.0  0.67534  0.53587  0.24013  1.0000
  H   H915      1.0  0.56791  0.53405  0.01766  1.0000
  C   C931      1.0  0.36136  0.53757  0.77442  1.0000
  H   H916      1.0  0.55845  0.72915  0.77521  1.0000
  H   H917      1.0  0.51279  0.66412  0.98897  1.0000
  H   H918      1.0  0.44011  0.68791  0.76191  1.0000
  Fe  Fe153     1.0  0.54193  0.60889  0.51916  1.0000
  C   C932      1.0  0.46212  0.66125  0.78261  1.0000
  Fe  Fe154     1.0  0.56934  0.71029  0.72377  1.0000
  S   S305      1.0  0.59305  0.71986  0.74407  1.0000
  S   S306      1.0  0.53801  0.71718  0.73200  1.0000
  Fe  Fe155     1.0  0.59659  0.69736  0.68634  1.0000
  S   S307      1.0  0.62231  0.70587  0.70442  1.0000
  S   S308      1.0  0.60238  0.68816  0.65067  1.0000
  Fe  Fe156     1.0  0.60862  0.69235  0.73488  1.0000
  S   S309      1.0  0.62371  0.67710  0.76427  1.0000
  Fe  Fe157     1.0  0.60505  0.73256  0.71213  1.0000
  H   H919      1.0  0.47593  0.59452  0.58507  1.0000
  S   S310      1.0  0.58386  0.68191  0.71632  1.0000
  S   S311      1.0  0.58033  0.72497  0.69233  1.0000
  Fe  Fe158     1.0  0.55743  0.63060  0.55755  1.0000
  C   C933      1.0  0.60266  0.55806  0.53517  1.0000
  S   S312      1.0  0.54993  0.63884  0.59312  1.0000
  H   H920      1.0  0.38785  0.56616  0.65568  1.0000
  C   C934      1.0  0.50205  0.58370  0.56976  1.0000
  N   N80       1.0  0.46737  0.67361  0.76358  1.0000
  H   H921      1.0  0.56865  0.52988  0.51758  1.0000
  S   S313      1.0  0.58575  0.63351  0.54031  1.0000
  S   S314      1.0  0.55597  0.59950  0.55090  1.0000
  N   N81       1.0  0.64057  0.61117  0.81964  1.0000
  S   S315      1.0  0.47090  0.66638  0.98132  1.0000
  C   C935      1.0  0.48551  0.67232  0.75499  1.0000
  Fe  Fe159     1.0  0.42336  0.72809  0.83613  1.0000
  S   S316      1.0  0.44651  0.71574  0.85798  1.0000
  C   C936      1.0  0.60675  0.60811  0.58787  1.0000
  Fe  Fe160     1.0  0.41837  0.68979  0.81291  1.0000
  S   S317      1.0  0.44098  0.67510  0.83356  1.0000
  S   S318      1.0  0.40626  0.67534  0.78296  1.0000
  Fe  Fe161     1.0  0.42808  0.69072  0.86258  1.0000
  S   S319      1.0  0.42060  0.67524  0.89522  1.0000
  Fe  Fe162     1.0  0.45779  0.70114  0.82697  1.0000
  S   S320      1.0  0.48922  0.69480  0.81906  1.0000
  S   S321      1.0  0.40405  0.70373  0.84243  1.0000
  S   S322      1.0  0.43602  0.71520  0.80470  1.0000
  H   H922      1.0  0.53755  0.74396  0.78093  1.0000
  S   S323      1.0  0.41668  0.54805  0.55818  1.0000
  H   H923      1.0  0.39662  0.71013  0.89157  1.0000
  H   H924      1.0  0.64804  0.73886  0.67842  1.0000
  H   H925      1.0  0.64061  0.51644  0.93882  1.0000
  Fe  Fe163     1.0  0.38519  0.54714  0.55463  1.0000
  S   S324      1.0  0.36409  0.54290  0.58356  1.0000
  C   C937      1.0  0.37570  0.53312  0.64583  1.0000
  Fe  Fe164     1.0  0.65480  0.55319  0.00297  1.0000
  H   H926      1.0  0.64796  0.53089  0.96082  1.0000
  C   C938      1.0  0.38131  0.75633  0.88692  1.0000
  H   H927      1.0  0.38647  0.53821  0.63414  1.0000
  C   C939      1.0  0.36925  0.57628  0.60510  1.0000
  C   C940      1.0  0.35859  0.56020  0.60362  1.0000
  H   H928      1.0  0.46941  0.66551  0.79765  1.0000
  H   H929      1.0  0.58296  0.56787  0.00900  1.0000
  C   C941      1.0  0.62289  0.73244  0.64763  1.0000
  H   H930      1.0  0.44909  0.70881  0.72997  1.0000
  C   C942      1.0  0.35993  0.63159  0.77524  1.0000
  C   C943      1.0  0.36963  0.63929  0.75666  1.0000
  C   C944      1.0  0.38367  0.65262  0.75940  1.0000
  C   C945      1.0  0.38825  0.65852  0.78068  1.0000
  C   C946      1.0  0.37856  0.65080  0.79926  1.0000
  C   C947      1.0  0.36455  0.63744  0.79653  1.0000
  H   H931      1.0  0.62378  0.51380  0.54208  1.0000
  H   H932      1.0  0.39101  0.65845  0.74487  1.0000
  H   H933      1.0  0.38185  0.65512  0.81575  1.0000
  C   C948      1.0  0.64411  0.60029  0.80144  1.0000
  C   C949      1.0  0.45740  0.66782  0.95693  1.0000
  C   C950      1.0  0.46237  0.68068  0.93958  1.0000
  C   C951      1.0  0.45180  0.68244  0.92006  1.0000
  C   C952      1.0  0.43578  0.67177  0.91805  1.0000
  C   C953      1.0  0.43090  0.65884  0.93534  1.0000
  C   C954      1.0  0.44180  0.65666  0.95456  1.0000
  H   H934      1.0  0.47436  0.68944  0.94131  1.0000
  H   H935      1.0  0.45572  0.69242  0.90687  1.0000
  H   H936      1.0  0.41849  0.65058  0.93395  1.0000
  H   H937      1.0  0.43781  0.64675  0.96781  1.0000
  S   S325      1.0  0.51492  0.58425  0.01054  1.0000
  C   C955      1.0  0.48267  0.58356  0.57493  1.0000
  C   C956      1.0  0.58195  0.53373  0.52421  1.0000
  C   C957      1.0  0.58442  0.61134  0.62635  1.0000
  H   H938      1.0  0.42955  0.71741  0.91931  1.0000
  C   C958      1.0  0.62751  0.62611  0.81878  1.0000
  C   C959      1.0  0.58122  0.59702  0.61166  1.0000
  H   H939      1.0  0.60778  0.64273  0.79833  1.0000
  C   C960      1.0  0.66636  0.64208  0.78867  1.0000
  H   H940      1.0  0.62521  0.63522  0.83286  1.0000
  H   H941      1.0  0.63062  0.71951  0.65438  1.0000
  H   H942      1.0  0.35718  0.63165  0.81106  1.0000
  C   C961      1.0  0.58533  0.55294  0.52709  1.0000
  H   H943      1.0  0.50725  0.59500  0.96387  1.0000
  H   H944      1.0  0.45662  0.57011  0.56942  1.0000
  C   C962      1.0  0.52499  0.71126  0.75672  1.0000
  C   C963      1.0  0.50680  0.71979  0.76021  1.0000
  C   C964      1.0  0.49561  0.71493  0.77918  1.0000
  C   C965      1.0  0.50265  0.70166  0.79500  1.0000
  C   C966      1.0  0.52099  0.69341  0.79169  1.0000
  C   C967      1.0  0.53210  0.69812  0.77262  1.0000
  H   H945      1.0  0.50119  0.73002  0.74803  1.0000
  H   H946      1.0  0.48156  0.72144  0.78158  1.0000
  H   H947      1.0  0.52658  0.68319  0.80391  1.0000
  H   H948      1.0  0.54607  0.69145  0.77016  1.0000
  C   C968      1.0  0.58671  0.67566  0.63465  1.0000
  C   C969      1.0  0.57069  0.66733  0.64418  1.0000
  C   C970      1.0  0.55928  0.65649  0.63110  1.0000
  C   C971      1.0  0.56375  0.65389  0.60842  1.0000
  C   C972      1.0  0.57958  0.66252  0.59881  1.0000
  C   C973      1.0  0.59102  0.67329  0.61190  1.0000
  H   H949      1.0  0.56721  0.66904  0.66166  1.0000
  H   H950      1.0  0.54703  0.64993  0.63865  1.0000
  H   H951      1.0  0.58307  0.66078  0.58134  1.0000
  H   H952      1.0  0.60332  0.67978  0.60435  1.0000
  H   H953      1.0  0.37397  0.60115  0.62374  1.0000
  H   H954      1.0  0.50543  0.68297  0.73012  1.0000
  C   C974      1.0  0.64874  0.64879  0.74767  1.0000
  C   C975      1.0  0.64323  0.66015  0.76558  1.0000
  C   C976      1.0  0.65236  0.65687  0.78597  1.0000
  C   C977      1.0  0.39717  0.54672  0.98296  1.0000
  H   H955      1.0  0.64189  0.65107  0.73190  1.0000
  H   H956      1.0  0.63761  0.62874  0.59130  1.0000
  H   H957      1.0  0.36043  0.54509  0.75792  1.0000
  H   H958      1.0  0.53334  0.64831  0.99186  1.0000
  H   H959      1.0  0.37553  0.53938  0.78130  1.0000
  H   H960      1.0  0.67301  0.63960  0.80453  1.0000
  H   H961      1.0  0.58660  0.76002  0.77691  1.0000
  H   H962      1.0  0.52461  0.61764  0.98498  1.0000
  H   H963      1.0  0.61401  0.62306  0.76530  1.0000
  C   C978      1.0  0.51035  0.56995  0.55595  1.0000
  H   H964      1.0  0.50559  0.54606  0.53610  1.0000
  N   N82       1.0  0.51445  0.64194  0.96609  1.0000
  H   H965      1.0  0.34809  0.57344  0.77704  1.0000
  C   C979      1.0  0.50351  0.64856  0.94887  1.0000
  H   H966      1.0  0.46289  0.62005  0.54194  1.0000
  C   C980      1.0  0.49330  0.63611  0.93674  1.0000
  C   C981      1.0  0.49466  0.61671  0.94208  1.0000
  H   H967      1.0  0.35467  0.54301  0.69525  1.0000
  C   C982      1.0  0.38366  0.73720  0.88194  1.0000
  H   H968      1.0  0.48396  0.64159  0.92379  1.0000
  N   N83       1.0  0.55977  0.75731  0.76223  1.0000
  H   H969      1.0  0.52525  0.57029  0.55115  1.0000
  H   H970      1.0  0.48654  0.60694  0.93312  1.0000
  C   C983      1.0  0.66272  0.63397  0.75039  1.0000
  C   C984      1.0  0.50623  0.61002  0.95932  1.0000
  C   C985      1.0  0.49909  0.55631  0.54735  1.0000
  C   C986      1.0  0.59257  0.59523  0.59241  1.0000
  H   H971      1.0  0.64830  0.66561  0.79991  1.0000
  N   N84       1.0  0.40302  0.73165  0.91390  1.0000
  H   H972      1.0  0.46622  0.64622  0.77924  1.0000
  C   C987      1.0  0.45440  0.68659  0.75484  1.0000
  H   H973      1.0  0.45512  0.54892  0.53646  1.0000
  H   H974      1.0  0.44656  0.66202  0.78621  1.0000
  C   C988      1.0  0.59890  0.62380  0.62146  1.0000
  H   H975      1.0  0.62456  0.52225  0.96200  1.0000
  C   C989      1.0  0.41522  0.71875  0.92737  1.0000
  H   H976      1.0  0.66638  0.61253  0.83648  1.0000
  C   C990      1.0  0.64636  0.75045  0.66619  1.0000
  C   C991      1.0  0.36555  0.58880  0.62261  1.0000
  S   S326      1.0  0.34607  0.57971  0.72243  1.0000
  C   C992      1.0  0.61747  0.63035  0.79938  1.0000
  H   H977      1.0  0.57535  0.61321  0.64107  1.0000
  H   H978      1.0  0.37341  0.56910  0.68017  1.0000
  C   C993      1.0  0.48785  0.60866  0.52452  1.0000
  C   C994      1.0  0.41385  0.53704  0.97577  1.0000
  C   C995      1.0  0.67141  0.63030  0.77098  1.0000
  C   C996      1.0  0.55297  0.57528  0.00973  1.0000
  H   H979      1.0  0.62681  0.64508  0.61072  1.0000
  N   N85       1.0  0.34655  0.54493  0.78984  1.0000
  H   H980      1.0  0.42712  0.54413  0.97620  1.0000
  H   H981      1.0  0.35963  0.52229  0.77138  1.0000
  S   S327      1.0  0.60793  0.58208  0.53685  1.0000
  Fe  Fe165     1.0  0.46908  0.64207  0.00701  1.0000
  N   N86       1.0  0.37159  0.54228  0.66522  1.0000
  H   H982      1.0  0.41653  0.72380  0.94453  1.0000
  C   C997      1.0  0.38009  0.53755  0.98317  1.0000
  C   C998      1.0  0.61303  0.52464  0.53791  1.0000
  C   C999      1.0  0.34398  0.55698  0.61949  1.0000
  S   S328      1.0  0.43275  0.59550  0.53368  1.0000
  H   H983      1.0  0.65640  0.59859  0.92060  1.0000
  H   H984      1.0  0.56978  0.58752  0.61501  1.0000
  N   N87       1.0  0.60973  0.62217  0.60230  1.0000
  H   H985      1.0  0.60928  0.73431  0.65716  1.0000
  H   H986      1.0  0.48198  0.70625  0.71369  1.0000
  C   C1000     1.0  0.47778  0.69696  0.72754  1.0000
  N   N88       1.0  0.48005  0.55642  0.55230  1.0000
  C   C1001     1.0  0.61639  0.54387  0.54087  1.0000
  C   C1002     1.0  0.34728  0.52043  0.67464  1.0000
  C   C1003     1.0  0.49093  0.68379  0.73668  1.0000
  H   H987      1.0  0.49598  0.66259  0.76254  1.0000
  H   H988      1.0  0.49711  0.61892  0.53076  1.0000
  C   C1004     1.0  0.55329  0.74373  0.77948  1.0000
  S   S329      1.0  0.38345  0.57031  0.52800  1.0000
  C   C1005     1.0  0.62100  0.61931  0.78077  1.0000
  C   C1006     1.0  0.51602  0.62292  0.97128  1.0000
  H   H989      1.0  0.63787  0.59599  0.76712  1.0000
  S   S330      1.0  0.62403  0.55596  0.99466  1.0000
  H   H990      1.0  0.36633  0.63501  0.74018  1.0000
  C   C1007     1.0  0.40103  0.75048  0.91872  1.0000
  H   H991      1.0  0.40939  0.70436  0.92888  1.0000
  H   H992      1.0  0.59021  0.58417  0.58082  1.0000
  H   H993      1.0  0.57470  0.56381  0.52255  1.0000
  C   C1008     1.0  0.65183  0.60750  0.83955  1.0000
  H   H994      1.0  0.64555  0.61475  0.85434  1.0000
  S   S331      1.0  0.46734  0.61157  0.99804  1.0000
  Fe  Fe166     1.0  0.41924  0.52668  0.53130  1.0000
  H   H995      1.0  0.65508  0.58902  0.80169  1.0000
  H   H996      1.0  0.61978  0.72963  0.63006  1.0000
  N   N89       1.0  0.63397  0.74936  0.64927  1.0000
  H   H997      1.0  0.55858  0.74703  0.79606  1.0000
  C   C1009     1.0  0.45940  0.69846  0.73670  1.0000
  H   H998      1.0  0.60093  0.63519  0.63271  1.0000
  H   H999      1.0  0.39762  0.56106  0.98889  1.0000
  H   H1000     1.0  0.62980  0.54775  0.54720  1.0000
  H   H1001     1.0  0.36710  0.54472  0.98913  1.0000
  C   C1010     1.0  0.62401  0.63606  0.59647  1.0000
  H   H1002     1.0  0.65459  0.58150  0.95738  1.0000
  H   H1003     1.0  0.61892  0.64552  0.58252  1.0000
  H   H1004     1.0  0.61519  0.60692  0.57255  1.0000
  C   C1011     1.0  0.39464  0.72497  0.89569  1.0000
  S   S332      1.0  0.54081  0.63975  0.52724  1.0000
  H   H1005     1.0  0.65286  0.59208  0.84398  1.0000
  C   C1012     1.0  0.66676  0.58729  0.92451  1.0000
  C   C1013     1.0  0.47181  0.56971  0.56602  1.0000
  H   H1006     1.0  0.53225  0.66516  0.96875  1.0000
  H   H1007     1.0  0.50186  0.66369  0.94517  1.0000
  H   H1008     1.0  0.51052  0.59476  0.57588  1.0000
  H   H1009     1.0  0.38049  0.57892  0.59293  1.0000
  C   C1014     1.0  0.63435  0.60414  0.78178  1.0000
  C   C1015     1.0  0.35145  0.58517  0.63895  1.0000
  C   C1016     1.0  0.52374  0.65552  0.97957  1.0000
  C   C1017     1.0  0.38248  0.55853  0.67091  1.0000
  Fe  Fe167     1.0  0.41545  0.56960  0.52984  1.0000
  Fe  Fe168     1.0  0.58321  0.60302  0.53163  1.0000
  H   H1010     1.0  0.39462  0.55368  0.68127  1.0000
  N   N90       1.0  0.41354  0.51868  0.96920  1.0000
  C   C1018     1.0  0.45643  0.59566  0.52340  1.0000
  S   S333      1.0  0.34817  0.60056  0.66145  1.0000
  S   S334      1.0  0.38796  0.52373  0.53004  1.0000
  C   C1019     1.0  0.35779  0.53596  0.67972  1.0000
  H   H1011     1.0  0.40818  0.75595  0.93269  1.0000
  C   C1020     1.0  0.37984  0.51901  0.97588  1.0000
  H   H1012     1.0  0.37748  0.73202  0.86713  1.0000
  H   H1013     1.0  0.66656  0.62503  0.73654  1.0000
  H   H1014     1.0  0.54936  0.56299  0.00074  1.0000
  C   C1021     1.0  0.66569  0.57762  0.94537  1.0000
  H   H1015     1.0  0.47562  0.53456  0.52924  1.0000
  C   C1022     1.0  0.46832  0.54212  0.54321  1.0000
  H   H1016     1.0  0.53487  0.75601  0.74321  1.0000
  H   H1017     1.0  0.46253  0.53570  0.01286  1.0000
  H   H1018     1.0  0.46444  0.53148  0.55639  1.0000
  C   C1023     1.0  0.36538  0.51764  0.64013  1.0000
  C   C1024     1.0  0.59586  0.51956  0.52937  1.0000
  H   H1019     1.0  0.44373  0.51482  0.96875  1.0000
  C   C1025     1.0  0.46848  0.60928  0.53082  1.0000
  S   S335      1.0  0.40992  0.75840  0.83624  1.0000
  C   C1026     1.0  0.63953  0.51854  0.95704  1.0000
  S   S336      1.0  0.61918  0.76114  0.71215  1.0000
  H   H1020     1.0  0.67331  0.51188  0.97558  1.0000
  H   H1021     1.0  0.36667  0.51166  0.97603  1.0000
  Fe  Fe169     1.0  0.63167  0.86141  0.38861  1.0000
  S   S337      1.0  0.61041  0.87417  0.41307  1.0000
  S   S338      1.0  0.62313  0.83758  0.36609  1.0000
  Fe  Fe170     1.0  0.65869  0.89416  0.39390  1.0000
  S   S339      1.0  0.63831  0.90906  0.41818  1.0000
  Fe  Fe171     1.0  0.63507  0.88017  0.43455  1.0000
  S   S340      1.0  0.63733  0.87143  0.47210  1.0000
  Fe  Fe172     1.0  0.61523  0.90215  0.39470  1.0000
  S   S341      1.0  0.58792  0.91985  0.38572  1.0000
  S   S342      1.0  0.65625  0.86540  0.41100  1.0000
  S   S343      1.0  0.63576  0.88930  0.36962  1.0000
  Fe  Fe173     1.0  0.37018  0.89977  0.15349  1.0000
  S   S344      1.0  0.39245  0.91357  0.13137  1.0000
  H   H1022     1.0  0.36859  0.92167  0.05468  1.0000
  Fe  Fe174     1.0  0.39530  0.86329  0.16016  1.0000
  S   S345      1.0  0.41912  0.87471  0.13868  1.0000
  S   S346      1.0  0.39149  0.83287  0.17390  1.0000
  Fe  Fe175     1.0  0.41332  0.90222  0.15707  1.0000
  S   S347      1.0  0.43849  0.91990  0.16723  1.0000
  Fe  Fe176     1.0  0.39672  0.88548  0.11455  1.0000
  S   S348      1.0  0.39559  0.87767  0.07734  1.0000
  S   S349      1.0  0.39073  0.88996  0.17998  1.0000
  S   S350      1.0  0.37318  0.87258  0.13529  1.0000
  Fe  Fe177     1.0  0.49485  0.98506  0.25820  1.0000
  S   S351      1.0  0.49812  0.98816  0.29540  1.0000
  S   S352      1.0  0.47113  0.96523  0.24850  1.0000
  Fe  Fe178     1.0  0.52989  0.98777  0.28835  1.0000
  S   S353      1.0  0.55616  0.97121  0.30290  1.0000
  S   S354      1.0  0.52648  0.98288  0.25169  1.0000
  C   C1027     1.0  0.44623  0.93380  0.18958  1.0000
  C   C1028     1.0  0.46275  0.94419  0.18636  1.0000
  C   C1029     1.0  0.47034  0.95419  0.20387  1.0000
  C   C1030     1.0  0.46157  0.95397  0.22509  1.0000
  C   C1031     1.0  0.44487  0.94383  0.22823  1.0000
  C   C1032     1.0  0.43724  0.93390  0.21069  1.0000
  H   H1023     1.0  0.46988  0.94436  0.17018  1.0000
  H   H1024     1.0  0.48310  0.96190  0.20096  1.0000
  H   H1025     1.0  0.43783  0.94352  0.24445  1.0000
  H   H1026     1.0  0.42454  0.92610  0.21360  1.0000
  C   C1033     1.0  0.40587  0.81382  0.18544  1.0000
  C   C1034     1.0  0.42521  0.81533  0.18904  1.0000
  C   C1035     1.0  0.43593  0.79971  0.19815  1.0000
  C   C1036     1.0  0.42759  0.78231  0.20343  1.0000
  C   C1037     1.0  0.40828  0.78078  0.19976  1.0000
  C   C1038     1.0  0.39750  0.79648  0.19094  1.0000
  H   H1027     1.0  0.43186  0.82853  0.18490  1.0000
  H   H1028     1.0  0.45085  0.80106  0.20099  1.0000
  C   C1039     1.0  0.44356  0.77475  0.15059  1.0000
  H   H1029     1.0  0.38254  0.79519  0.18837  1.0000
  C   C1040     1.0  0.57544  0.87035  0.37193  1.0000
  C   C1041     1.0  0.40575  0.90193  0.04117  1.0000
  C   C1042     1.0  0.39876  0.88443  0.04835  1.0000
  C   C1043     1.0  0.39338  0.87199  0.03201  1.0000
  H   H1030     1.0  0.57500  0.88000  0.38619  1.0000
  H   H1031     1.0  0.41012  0.91168  0.05331  1.0000
  H   H1032     1.0  0.38796  0.85840  0.03718  1.0000
  H   H1033     1.0  0.45378  0.00233  0.25764  1.0000
  C   C1044     1.0  0.57977  0.93490  0.36294  1.0000
  C   C1045     1.0  0.56073  0.94188  0.36319  1.0000
  C   C1046     1.0  0.55328  0.95309  0.34522  1.0000
  C   C1047     1.0  0.56480  0.95761  0.32660  1.0000
  C   C1048     1.0  0.58389  0.95075  0.32642  1.0000
  C   C1049     1.0  0.59133  0.93951  0.34438  1.0000
  H   H1034     1.0  0.55161  0.93855  0.37742  1.0000
  H   H1035     1.0  0.53863  0.95824  0.34581  1.0000
  H   H1036     1.0  0.59303  0.95413  0.31223  1.0000
  H   H1037     1.0  0.60598  0.93435  0.34381  1.0000
  C   C1050     1.0  0.34479  0.90739  0.10097  1.0000
  H   H1038     1.0  0.57862  0.99584  0.22147  1.0000
  H   H1039     1.0  0.45512  0.78434  0.15048  1.0000
  H   H1040     1.0  0.56203  0.86277  0.37184  1.0000
  C   C1051     1.0  0.61903  0.77206  0.36922  1.0000
  C   C1052     1.0  0.62725  0.78137  0.38666  1.0000
  C   C1053     1.0  0.62845  0.80134  0.38620  1.0000
  C   C1054     1.0  0.62163  0.81232  0.36808  1.0000
  C   C1055     1.0  0.61351  0.80299  0.35057  1.0000
  C   C1056     1.0  0.61213  0.78304  0.35114  1.0000
  H   H1041     1.0  0.63266  0.77308  0.40074  1.0000
  H   H1042     1.0  0.63476  0.80819  0.39979  1.0000
  H   H1043     1.0  0.60819  0.81126  0.33644  1.0000
  H   H1044     1.0  0.43115  0.88336  0.19183  1.0000
  C   C1057     1.0  0.59704  0.88991  0.31877  1.0000
  C   C1058     1.0  0.42533  0.78161  0.14541  1.0000
  H   H1045     1.0  0.35878  0.89003  0.05151  1.0000
  H   H1046     1.0  0.56764  0.98718  0.25974  1.0000
  C   C1059     1.0  0.44563  0.99417  0.29110  1.0000
  C   C1060     1.0  0.59435  0.87907  0.33842  1.0000
  C   C1061     1.0  0.63784  0.88063  0.49962  1.0000
  H   H1047     1.0  0.58488  0.91195  0.29712  1.0000
  H   H1048     1.0  0.60551  0.86896  0.34359  1.0000
  H   H1049     1.0  0.55539  0.91597  0.32026  1.0000
  C   C1062     1.0  0.56622  0.90528  0.32495  1.0000
  H   H1050     1.0  0.36126  0.93530  0.07840  1.0000
  C   C1063     1.0  0.57600  0.99955  0.25670  1.0000
  H   H1051     1.0  0.63127  0.90985  0.49035  1.0000
  C   C1064     1.0  0.40736  0.90679  0.01814  1.0000
  H   H1052     1.0  0.34698  0.91922  0.11154  1.0000
  H   H1053     1.0  0.60579  0.77619  0.33756  1.0000
  H   H1054     1.0  0.58717  0.85950  0.37453  1.0000
  C   C1065     1.0  0.63426  0.89987  0.50398  1.0000
  H   H1055     1.0  0.40161  0.76759  0.20393  1.0000
  C   C1066     1.0  0.56413  0.89439  0.34467  1.0000
  C   C1067     1.0  0.58022  0.01084  0.27431  1.0000
  N   N91       1.0  0.57804  0.88140  0.35108  1.0000
  H   H1056     1.0  0.55158  0.89680  0.35520  1.0000
  H   H1057     1.0  0.42260  0.79657  0.14133  1.0000
  H   H1058     1.0  0.45025  0.97941  0.28913  1.0000
  H   H1059     1.0  0.61017  0.88827  0.30908  1.0000
  C   C1068     1.0  0.58284  0.90308  0.31201  1.0000
  N   N92       1.0  0.45831  0.88562  0.20493  1.0000
  C   C1069     1.0  0.45644  0.89022  0.22683  1.0000
  C   C1070     1.0  0.47260  0.89272  0.19173  1.0000
  C   C1071     1.0  0.46926  0.90202  0.23616  1.0000
  C   C1072     1.0  0.48571  0.90448  0.20054  1.0000
  C   C1073     1.0  0.48395  0.90921  0.22288  1.0000
  C   C1074     1.0  0.44400  0.87421  0.19526  1.0000
  H   H1060     1.0  0.44467  0.88519  0.23704  1.0000
  H   H1061     1.0  0.47340  0.89005  0.17405  1.0000
  H   H1062     1.0  0.46739  0.90620  0.25332  1.0000
  H   H1063     1.0  0.49657  0.91066  0.18983  1.0000
  H   H1064     1.0  0.49346  0.91906  0.22966  1.0000
  H   H1065     1.0  0.44915  0.86803  0.17930  1.0000
  H   H1066     1.0  0.44006  0.86228  0.20676  1.0000
  C   C1075     1.0  0.58242  0.00443  0.23513  1.0000
  H   H1067     1.0  0.43686  0.99045  0.32556  1.0000
  C   C1076     1.0  0.43811  0.00036  0.31146  1.0000
  H   H1068     1.0  0.57511  0.00723  0.29107  1.0000
  H   H1069     1.0  0.39616  0.77487  0.14363  1.0000
  H   H1070     1.0  0.38073  0.91783  0.08043  1.0000
  N   N93       1.0  0.35363  0.90638  0.08047  1.0000
  C   C1077     1.0  0.44763  0.00725  0.27328  1.0000
  H   H1071     1.0  0.66609  0.90123  0.47316  1.0000
  C   C1078     1.0  0.41041  0.76923  0.14676  1.0000
  C   C1079     1.0  0.36664  0.92107  0.07312  1.0000
  C   C1080     1.0  0.35132  0.89115  0.06747  1.0000
  H   H1072     1.0  0.59278  0.87563  0.50257  1.0000
  S   S355      1.0  0.44201  0.76300  0.21433  1.0000
  Fe  Fe179     1.0  0.62611  0.86338  0.64637  1.0000
  S   S356      1.0  0.61022  0.88785  0.62885  1.0000
  S   S357      1.0  0.61149  0.83489  0.64756  1.0000
  Fe  Fe180     1.0  0.66090  0.88700  0.65225  1.0000
  S   S358      1.0  0.64729  0.91271  0.63489  1.0000
  Fe  Fe181     1.0  0.62075  0.90629  0.65538  1.0000
  S   S359      1.0  0.60277  0.93227  0.66817  1.0000
  Fe  Fe182     1.0  0.63742  0.89263  0.60934  1.0000
  S   S360      1.0  0.63619  0.90242  0.57207  1.0000
  S   S361      1.0  0.63492  0.88151  0.67422  1.0000
  S   S362      1.0  0.65277  0.86726  0.62545  1.0000
  Fe  Fe183     1.0  0.36791  0.88827  0.90224  1.0000
  S   S363      1.0  0.38657  0.91143  0.91231  1.0000
  C   C1081     1.0  0.59811  0.85789  0.55538  1.0000
  Fe  Fe184     1.0  0.40110  0.85847  0.90359  1.0000
  S   S364      1.0  0.42165  0.88003  0.91381  1.0000
  S   S365      1.0  0.41402  0.82793  0.90172  1.0000
  Fe  Fe185     1.0  0.39847  0.89025  0.93800  1.0000
  S   S366      1.0  0.40452  0.90148  0.97281  1.0000
  Fe  Fe186     1.0  0.40841  0.89969  0.88775  1.0000
  S   S367      1.0  0.42334  0.91617  0.85872  1.0000
  S   S368      1.0  0.37869  0.86768  0.92925  1.0000
  S   S369      1.0  0.38901  0.87753  0.87613  1.0000
  Fe  Fe187     1.0  0.50226  0.99032  0.80546  1.0000
  S   S370      1.0  0.50113  0.98348  0.76926  1.0000
  S   S371      1.0  0.48742  0.97693  0.83675  1.0000
  Fe  Fe188     1.0  0.53291  0.98615  0.76743  1.0000
  S   S372      1.0  0.55168  0.96173  0.75212  1.0000
  S   S373      1.0  0.53428  0.99129  0.80444  1.0000
  C   C1082     1.0  0.44125  0.93310  0.85315  1.0000
  C   C1083     1.0  0.44596  0.93822  0.83086  1.0000
  C   C1084     1.0  0.46001  0.95145  0.82549  1.0000
  C   C1085     1.0  0.46960  0.95990  0.84236  1.0000
  C   C1086     1.0  0.46485  0.95477  0.86467  1.0000
  C   C1087     1.0  0.45085  0.94149  0.87005  1.0000
  H   H1073     1.0  0.43873  0.93190  0.81756  1.0000
  H   H1074     1.0  0.46338  0.95516  0.80826  1.0000
  H   H1075     1.0  0.47208  0.96115  0.87794  1.0000
  H   H1076     1.0  0.44750  0.93781  0.88729  1.0000
  H   H1077     1.0  0.39291  0.97185  0.87945  1.0000
  N   N94       1.0  0.65797  0.91135  0.71533  1.0000
  C   C1088     1.0  0.41290  0.80901  0.88291  1.0000
  C   C1089     1.0  0.42478  0.79261  0.88618  1.0000
  C   C1090     1.0  0.42434  0.77713  0.87191  1.0000
  C   C1091     1.0  0.41196  0.77784  0.85413  1.0000
  C   C1092     1.0  0.40024  0.79432  0.85074  1.0000
  C   C1093     1.0  0.40067  0.80979  0.86500  1.0000
  H   H1078     1.0  0.43433  0.79182  0.89995  1.0000
  H   H1079     1.0  0.57388  0.91431  0.56717  1.0000
  H   H1080     1.0  0.39058  0.79504  0.83707  1.0000
  H   H1081     1.0  0.39140  0.82223  0.86224  1.0000
  C   C1094     1.0  0.58819  0.93986  0.69153  1.0000
  C   C1095     1.0  0.58023  0.95858  0.69133  1.0000
  C   C1096     1.0  0.56910  0.96553  0.70955  1.0000
  C   C1097     1.0  0.56569  0.95385  0.72842  1.0000
  C   C1098     1.0  0.57374  0.93516  0.72867  1.0000
  C   C1099     1.0  0.58487  0.92821  0.71044  1.0000
  H   H1082     1.0  0.58277  0.96783  0.67694  1.0000
  H   H1083     1.0  0.56331  0.97998  0.70902  1.0000
  H   H1084     1.0  0.57125  0.92593  0.74309  1.0000
  H   H1085     1.0  0.59084  0.91382  0.71103  1.0000
  C   C1100     1.0  0.63775  0.89355  0.54433  1.0000
  C   C1101     1.0  0.64154  0.87435  0.53994  1.0000
  H   H1086     1.0  0.50658  0.97382  0.71980  1.0000
  C   C1102     1.0  0.63430  0.90624  0.52609  1.0000
  H   H1087     1.0  0.64432  0.86436  0.55362  1.0000
  H   H1088     1.0  0.63142  0.92114  0.52912  1.0000
  C   C1103     1.0  0.61602  0.78185  0.69467  1.0000
  C   C1104     1.0  0.62687  0.79763  0.69831  1.0000
  C   C1105     1.0  0.62549  0.81408  0.68433  1.0000
  C   C1106     1.0  0.61311  0.81500  0.66656  1.0000
  C   C1107     1.0  0.60196  0.79935  0.66322  1.0000
  C   C1108     1.0  0.60341  0.78285  0.67713  1.0000
  H   H1089     1.0  0.63664  0.79704  0.71186  1.0000
  H   H1090     1.0  0.63413  0.82598  0.68715  1.0000
  H   H1091     1.0  0.59228  0.79993  0.64958  1.0000
  H   H1092     1.0  0.57812  0.79110  0.71527  1.0000
  C   C1109     1.0  0.65355  0.78225  0.65375  1.0000
  C   C1110     1.0  0.58904  0.90946  0.56691  1.0000
  C   C1111     1.0  0.45079  0.87492  0.85939  1.0000
  C   C1112     1.0  0.49067  0.99935  0.69240  1.0000
  H   H1093     1.0  0.63779  0.79338  0.62574  1.0000
  H   H1094     1.0  0.66867  0.91597  0.68218  1.0000
  C   C1113     1.0  0.38055  0.94160  0.85163  1.0000
  N   N95       1.0  0.59173  0.89165  0.55508  1.0000
  H   H1095     1.0  0.43846  0.83037  0.85226  1.0000
  C   C1114     1.0  0.58415  0.77681  0.74664  1.0000
  H   H1096     1.0  0.60152  0.84474  0.56455  1.0000
  C   C1115     1.0  0.46632  0.85798  0.89733  1.0000
  C   C1116     1.0  0.46983  0.87688  0.89181  1.0000
  C   C1117     1.0  0.45509  0.84786  0.88355  1.0000
  C   C1118     1.0  0.43494  0.84590  0.85124  1.0000
  C   C1119     1.0  0.46208  0.88541  0.87269  1.0000
  H   H1097     1.0  0.48274  0.98659  0.69429  1.0000
  H   H1098     1.0  0.46437  0.90022  0.86845  1.0000
  H   H1099     1.0  0.38869  0.77806  0.90903  1.0000
  H   H1100     1.0  0.59682  0.87465  0.58453  1.0000
  H   H1101     1.0  0.59490  0.77089  0.67415  1.0000
  H   H1102     1.0  0.62051  0.76394  0.62194  1.0000
  C   C1120     1.0  0.63230  0.93250  0.72734  1.0000
  H   H1103     1.0  0.43601  0.85052  0.83342  1.0000
  H   H1104     1.0  0.35781  0.95078  0.90026  1.0000
  C   C1121     1.0  0.64162  0.86800  0.51781  1.0000
  C   C1122     1.0  0.34535  0.93821  0.87258  1.0000
  H   H1105     1.0  0.36857  0.92829  0.82378  1.0000
  C   C1123     1.0  0.65876  0.92079  0.69511  1.0000
  C   C1124     1.0  0.59542  0.87489  0.56661  1.0000
  C   C1125     1.0  0.64657  0.93654  0.69066  1.0000
  C   C1126     1.0  0.51730  0.98261  0.71099  1.0000
  H   H1106     1.0  0.58779  0.90528  0.52325  1.0000
  H   H1107     1.0  0.59961  0.84515  0.52319  1.0000
  H   H1108     1.0  0.37337  0.76606  0.87594  1.0000
  N   N96       1.0  0.37759  0.94761  0.87291  1.0000
  C   C1127     1.0  0.39288  0.95651  0.88414  1.0000
  H   H1109     1.0  0.40690  0.94977  0.87944  1.0000
  H   H1110     1.0  0.39076  0.86708  0.99677  1.0000
  C   C1128     1.0  0.40200  0.89435  0.00177  1.0000
  C   C1129     1.0  0.59304  0.87523  0.52064  1.0000
  N   N97       1.0  0.44756  0.85634  0.86480  1.0000
  H   H1111     1.0  0.42005  0.84831  0.85736  1.0000
  C   C1130     1.0  0.59035  0.89195  0.53242  1.0000
  H   H1112     1.0  0.64371  0.90903  0.74706  1.0000
  C   C1131     1.0  0.36605  0.93341  0.84046  1.0000
  H   H1113     1.0  0.62159  0.93670  0.73977  1.0000
  H   H1114     1.0  0.39429  0.94289  0.84328  1.0000
  H   H1115     1.0  0.47820  0.88503  0.90256  1.0000
  H   H1116     1.0  0.44435  0.88188  0.84493  1.0000
  H   H1117     1.0  0.45210  0.83329  0.88821  1.0000
  H   H1118     1.0  0.64450  0.85310  0.51480  1.0000
  H   H1119     1.0  0.47185  0.85131  0.91246  1.0000
  C   C1132     1.0  0.64477  0.91682  0.73126  1.0000
  C   C1133     1.0  0.57286  0.78175  0.72853  1.0000
  H   H1120     1.0  0.59390  0.90788  0.58434  1.0000
  H   H1121     1.0  0.39130  0.95478  0.90254  1.0000
  H   H1122     1.0  0.52760  0.98610  0.72366  1.0000
  H   H1123     1.0  0.62356  0.95444  0.70350  1.0000
  C   C1134     1.0  0.59696  0.85811  0.53223  1.0000
  C   C1135     1.0  0.63339  0.94250  0.70698  1.0000
  H   H1124     1.0  0.59778  0.92056  0.55872  1.0000
  H   H1125     1.0  0.66578  0.76782  0.68245  1.0000
  H   H1126     1.0  0.64689  0.94375  0.67442  1.0000
  H   H1127     1.0  0.51363  0.99221  0.86781  1.0000
  C   C1136     1.0  0.36021  0.94615  0.88334  1.0000
  H   H1128     1.0  0.52492  0.97403  0.69811  1.0000
  C   C1137     1.0  0.34833  0.93174  0.85105  1.0000
  H   H1129     1.0  0.66689  0.88281  0.70937  1.0000
  C   C1138     1.0  0.64068  0.78114  0.63675  1.0000
  H   H1130     1.0  0.43345  0.76459  0.87477  1.0000
  C   C1139     1.0  0.65643  0.76683  0.66859  1.0000
  H   H1131     1.0  0.54144  0.00205  0.88842  1.0000
  N   N98       1.0  0.50843  0.99985  0.70078  1.0000
  C   C1140     1.0  0.67095  0.89486  0.71940  1.0000
  H   H1132     1.0  0.54630  0.77765  0.71306  1.0000
  H   H1133     1.0  0.66073  0.79531  0.65591  1.0000
  C   C1141     1.0  0.55502  0.77424  0.72732  1.0000
  H   H1134     1.0  0.59829  0.78212  0.74734  1.0000
  H   H1135     1.0  0.67099  0.89022  0.73723  1.0000
  C   C1142     1.0  0.39493  0.87689  0.00897  1.0000
  C   C1143     1.0  0.38996  0.76305  0.90546  1.0000
  C   C1144     1.0  0.51707  0.00705  0.86797  1.0000
  C   C1145     1.0  0.63090  0.76450  0.63479  1.0000
  H   H1136     1.0  0.41293  0.92031  0.01292  1.0000
  C   C1146     1.0  0.57744  0.76433  0.76332  1.0000
  C   C1147     1.0  0.54865  0.76200  0.74444  1.0000
  S   S374      1.0  0.92742  0.04957  0.03756  1.0000
  H   H1137     1.0  0.74795  0.15035  0.21648  1.0000
  Fe  Fe189     1.0  0.89663  0.05157  0.04860  1.0000
  S   S375      1.0  0.88759  0.04538  0.08467  1.0000
  H   H1138     1.0  0.77813  0.15166  0.17122  1.0000
  C   C1148     1.0  0.98083  0.09381  0.04702  1.0000
  H   H1139     1.0  0.84835  0.02595  0.07920  1.0000
  S   S376      1.0  0.97971  0.14921  0.46201  1.0000
  Fe  Fe190     1.0  0.92591  0.18938  0.35467  1.0000
  S   S377      1.0  0.90155  0.20777  0.34121  1.0000
  S   S378      1.0  0.92014  0.17463  0.38828  1.0000
  Fe  Fe191     1.0  0.95077  0.19596  0.31307  1.0000
  S   S379      1.0  0.92820  0.21469  0.29698  1.0000
  S   S380      1.0  0.97700  0.18454  0.29368  1.0000
  Fe  Fe192     1.0  0.92397  0.22809  0.33057  1.0000
  H   H1140     1.0  0.95441  0.03544  0.49060  1.0000
  Fe  Fe193     1.0  0.90749  0.19288  0.30894  1.0000
  S   S381      1.0  0.88444  0.18519  0.28490  1.0000
  S   S382      1.0  0.94810  0.21059  0.34600  1.0000
  S   S383      1.0  0.93028  0.17331  0.32312  1.0000
  Fe  Fe194     1.0  0.82895  0.09788  0.22982  1.0000
  S   S384      1.0  0.84136  0.07554  0.20689  1.0000
  S   S385      1.0  0.84923  0.10746  0.25628  1.0000
  Fe  Fe195     1.0  0.78854  0.09346  0.21179  1.0000
  S   S386      1.0  0.79855  0.07087  0.18820  1.0000
  S   S387      1.0  0.75741  0.10397  0.21631  1.0000
  Fe  Fe196     1.0  0.81591  0.05873  0.21664  1.0000
  S   S388      1.0  0.82071  0.02675  0.22243  1.0000
  Fe  Fe197     1.0  0.82313  0.08939  0.18053  1.0000
  S   S389      1.0  0.83188  0.09693  0.14467  1.0000
  S   S390      1.0  0.80439  0.08003  0.24099  1.0000
  S   S391      1.0  0.81219  0.11304  0.20262  1.0000
  S   S392      1.0  0.69036  0.10986  0.14679  1.0000
  C   C1149     1.0  0.73853  0.10308  0.19733  1.0000
  C   C1150     1.0  0.74178  0.09891  0.17491  1.0000
  C   C1151     1.0  0.72674  0.10054  0.15990  1.0000
  C   C1152     1.0  0.70821  0.10613  0.16708  1.0000
  C   C1153     1.0  0.70482  0.10964  0.18965  1.0000
  C   C1154     1.0  0.71992  0.10821  0.20462  1.0000
  H   H1141     1.0  0.75595  0.09483  0.16901  1.0000
  H   H1142     1.0  0.72954  0.09768  0.14252  1.0000
  H   H1143     1.0  0.69069  0.11392  0.19549  1.0000
  H   H1144     1.0  0.71720  0.11141  0.22192  1.0000
  C   C1155     1.0  0.99712  0.19658  0.28321  1.0000
  H   H1145     1.0  0.85315  0.06745  0.25375  1.0000
  H   H1146     1.0  0.90063  0.23423  0.40580  1.0000
  C   C1156     1.0  0.94306  0.19871  0.45250  1.0000
  C   C1157     1.0  0.87458  0.16340  0.27765  1.0000
  C   C1158     1.0  0.88032  0.14583  0.28734  1.0000
  C   C1159     1.0  0.87244  0.12897  0.28053  1.0000
  C   C1160     1.0  0.85879  0.12932  0.26386  1.0000
  C   C1161     1.0  0.85321  0.14687  0.25399  1.0000
  C   C1162     1.0  0.86100  0.16374  0.26091  1.0000
  H   H1147     1.0  0.89074  0.14526  0.30019  1.0000
  H   H1148     1.0  0.87689  0.11554  0.28836  1.0000
  H   H1149     1.0  0.84274  0.14747  0.24120  1.0000
  H   H1150     1.0  0.85643  0.17720  0.25323  1.0000
  C   C1163     1.0  0.96326  0.15479  0.44086  1.0000
  C   C1164     1.0  0.94412  0.15086  0.44372  1.0000
  C   C1165     1.0  0.93123  0.15648  0.42707  1.0000
  C   C1166     1.0  0.93731  0.16611  0.40748  1.0000
  C   C1167     1.0  0.95653  0.16965  0.40437  1.0000
  C   C1168     1.0  0.96944  0.16402  0.42103  1.0000
  H   H1151     1.0  0.93920  0.14371  0.45885  1.0000
  H   H1152     1.0  0.91639  0.15362  0.42955  1.0000
  H   H1153     1.0  0.96139  0.17698  0.38933  1.0000
  H   H1154     1.0  0.98424  0.16704  0.41866  1.0000
  C   C1169     1.0  0.84922  0.08354  0.12922  1.0000
  C   C1170     1.0  0.85705  0.06625  0.13749  1.0000
  C   C1171     1.0  0.86936  0.05508  0.12388  1.0000
  C   C1172     1.0  0.87394  0.06104  0.10190  1.0000
  C   C1173     1.0  0.86658  0.07861  0.09386  1.0000
  C   C1174     1.0  0.85427  0.08979  0.10748  1.0000
  H   H1155     1.0  0.85329  0.06128  0.15419  1.0000
  H   H1156     1.0  0.87503  0.04153  0.13026  1.0000
  H   H1157     1.0  0.87013  0.08345  0.07706  1.0000
  H   H1158     1.0  0.84836  0.10320  0.10100  1.0000
  H   H1159     1.0  0.77270  0.12681  0.17391  1.0000
  H   H1160     1.0  0.96724  0.15416  0.26450  1.0000
  H   H1161     1.0  0.95472  0.13268  0.26826  1.0000
  C   C1175     1.0  0.93899  0.21568  0.41729  1.0000
  C   C1176     1.0  0.90516  0.01898  0.45738  1.0000
  C   C1177     1.0  0.83833  0.03724  0.08423  1.0000
  H   H1162     1.0  0.68484  0.13091  0.05900  1.0000
  H   H1163     1.0  0.89668  0.21031  0.39733  1.0000
  C   C1178     1.0  0.80622  0.02166  0.26564  1.0000
  C   C1179     1.0  0.83781  0.07056  0.29427  1.0000
  H   H1164     1.0  0.80181  0.03655  0.26485  1.0000
  C   C1180     1.0  0.81479  0.06722  0.09846  1.0000
  C   C1181     1.0  0.92360  0.19615  0.45379  1.0000
  C   C1182     1.0  0.81863  0.05179  0.11299  1.0000
  Fe  Fe198     1.0  0.91994  0.07392  0.01400  1.0000
  H   H1165     1.0  0.99023  0.22295  0.29916  1.0000
  N   N99       1.0  0.74977  0.14627  0.18145  1.0000
  H   H1166     1.0  0.77580  0.13993  0.19822  1.0000
  N   N100      1.0  0.84483  0.05298  0.28390  1.0000
  H   H1167     1.0  0.83748  0.03499  0.31182  1.0000
  H   H1168     1.0  0.84965  0.08021  0.29598  1.0000
  H   H1169     1.0  0.95292  0.08290  0.04483  1.0000
  C   C1183     1.0  0.95365  0.14823  0.27062  1.0000
  H   H1170     1.0  0.94520  0.22295  0.40288  1.0000
  S   S393      1.0  0.88766  0.03110  0.02337  1.0000
  H   H1171     1.0  0.84436  0.03890  0.04033  1.0000
  H   H1172     1.0  0.80643  0.07945  0.10430  1.0000
  C   C1184     1.0  0.00034  0.21528  0.28855  1.0000
  C   C1185     1.0  0.77010  0.14102  0.18115  1.0000
  H   H1173     1.0  0.92049  0.20139  0.24365  1.0000
  H   H1174     1.0  0.68646  0.12013  0.09862  1.0000
  H   H1175     1.0  0.91941  0.02412  0.45637  1.0000
  H   H1176     1.0  0.92369  0.13168  0.25464  1.0000
  C   C1186     1.0  0.82284  0.06728  0.07689  1.0000
  C   C1187     1.0  0.90764  0.22054  0.40088  1.0000
  H   H1177     1.0  0.91753  0.18803  0.46765  1.0000
  H   H1178     1.0  0.91999  0.25873  0.37956  1.0000
  C   C1188     1.0  0.94161  0.04055  0.49923  1.0000
  C   C1189     1.0  0.90811  0.15565  0.24046  1.0000
  C   C1190     1.0  0.92153  0.18602  0.24516  1.0000
  C   C1191     1.0  0.92345  0.14691  0.25158  1.0000
  C   C1192     1.0  0.96358  0.09137  0.03663  1.0000
  H   H1179     1.0  0.83418  0.02501  0.11734  1.0000
  C   C1193     1.0  0.74049  0.15101  0.20094  1.0000
  C   C1194     1.0  0.84382  0.03587  0.29520  1.0000
  N   N101      1.0  0.93769  0.15746  0.25883  1.0000
  H   H1180     1.0  0.95205  0.15084  0.28872  1.0000
  H   H1181     1.0  0.98336  0.08707  0.06315  1.0000
  C   C1195     1.0  0.99132  0.11364  0.01588  1.0000
  H   H1182     1.0  0.86428  0.03817  0.23503  1.0000
  C   C1196     1.0  0.83044  0.03666  0.10586  1.0000
  C   C1197     1.0  0.95083  0.20859  0.43420  1.0000
  H   H1183     1.0  0.95218  0.19249  0.46530  1.0000
  H   H1184     1.0  0.91576  0.22278  0.38496  1.0000
  C   C1198     1.0  0.72107  0.15595  0.20127  1.0000
  C   C1199     1.0  0.92751  0.02789  0.50534  1.0000
  C   C1200     1.0  0.85908  0.03744  0.25220  1.0000
  C   C1201     1.0  0.93679  0.17679  0.25593  1.0000
  H   H1185     1.0  0.83114  0.06792  0.31097  1.0000
  H   H1186     1.0  0.94777  0.18522  0.26227  1.0000
  C   C1202     1.0  0.72071  0.15102  0.16180  1.0000
  C   C1203     1.0  0.68100  0.11101  0.08636  1.0000
  C   C1204     1.0  0.99476  0.10490  0.03669  1.0000
  C   C1205     1.0  0.90717  0.17534  0.23730  1.0000
  C   C1206     1.0  0.87224  0.02384  0.46844  1.0000
  H   H1187     1.0  0.00611  0.11500  0.46904  1.0000
  H   H1188     1.0  0.85832  0.05776  0.04948  1.0000
  H   H1189     1.0  0.82039  0.07965  0.06600  1.0000
  H   H1190     1.0  0.82703  0.07805  0.28365  1.0000
  S   S394      1.0  0.88989  0.07759  0.02723  1.0000
  H   H1191     1.0  0.69596  0.15910  0.18167  1.0000
  H   H1192     1.0  0.86077  0.03256  0.47570  1.0000
  H   H1193     1.0  0.89715  0.20088  0.43735  1.0000
  H   H1194     1.0  0.96601  0.21016  0.43278  1.0000
  H   H1195     1.0  0.89658  0.14733  0.23524  1.0000
  C   C1207     1.0  0.85244  0.05392  0.26273  1.0000
  C   C1208     1.0  0.89047  0.03061  0.46634  1.0000
  Fe  Fe199     1.0  0.97145  0.13480  0.49511  1.0000
  H   H1196     1.0  0.74741  0.14204  0.14673  1.0000
  S   S395      1.0  0.97127  0.10306  0.49927  1.0000
  H   H1197     1.0  0.89484  0.18238  0.22979  1.0000
  H   H1198     1.0  0.95052  0.06925  0.50008  1.0000
  C   C1209     1.0  0.93948  0.05972  0.50467  1.0000
  N   N102      1.0  0.91995  0.21289  0.41856  1.0000
  N   N103      1.0  0.83430  0.05232  0.06998  1.0000
  C   C1210     1.0  0.74016  0.14629  0.16203  1.0000
  C   C1211     1.0  0.84367  0.05308  0.04790  1.0000
  C   C1212     1.0  0.91218  0.20339  0.43657  1.0000
  H   H1199     1.0  0.81316  0.05199  0.13006  1.0000
  H   H1200     1.0  0.83608  0.06305  0.03614  1.0000
  C   C1213     1.0  0.71115  0.15591  0.18156  1.0000
  H   H1201     1.0  0.71294  0.15023  0.14658  1.0000
  H   H1202     1.0  0.71367  0.15922  0.21684  1.0000
  H   H1203     1.0  0.79610  0.01723  0.29957  1.0000
  H   H1204     1.0  0.89334  0.04459  0.47206  1.0000
  C   C1214     1.0  0.95998  0.10034  0.01600  1.0000
  C   C1215     1.0  0.81524  0.01337  0.24711  1.0000
  C   C1216     1.0  0.68001  0.11700  0.06399  1.0000
  H   H1205     1.0  0.00193  0.13096  0.08912  1.0000
  C   C1217     1.0  0.85050  0.01911  0.28524  1.0000
  H   H1206     1.0  0.00104  0.15627  0.09288  1.0000
  S   S396      1.0  0.92011  0.26068  0.33059  1.0000
  H   H1207     1.0  0.68730  0.11008  0.01756  1.0000
  C   C1218     1.0  0.85808  0.01994  0.26355  1.0000
  H   H1208     1.0  0.00815  0.17236  0.26521  1.0000
  C   C1219     1.0  0.97203  0.05752  0.54834  1.0000
  C   C1220     1.0  0.81914  0.03800  0.73198  1.0000
  S   S397      1.0  0.85556  0.06336  0.98289  1.0000
  H   H1209     1.0  0.96396  0.13894  0.70284  1.0000
  H   H1210     1.0  0.89602  0.05903  0.53032  1.0000
  H   H1211     1.0  0.81879  0.02469  0.72348  1.0000
  S   S398      1.0  0.91239  0.05547  0.98622  1.0000
  C   C1221     1.0  0.99606  0.20165  0.77916  1.0000
  Fe  Fe200     1.0  0.92366  0.22292  0.70975  1.0000
  S   S399      1.0  0.95065  0.21118  0.69337  1.0000
  Fe  Fe201     1.0  0.88295  0.05708  0.00109  1.0000
  Fe  Fe202     1.0  0.92183  0.18914  0.74352  1.0000
  S   S400      1.0  0.94889  0.17531  0.73005  1.0000
  S   S401      1.0  0.90497  0.17778  0.77382  1.0000
  Fe  Fe203     1.0  0.96042  0.20448  0.72844  1.0000
  S   S402      1.0  0.99177  0.20937  0.73377  1.0000
  Fe  Fe204     1.0  0.93745  0.18284  0.69616  1.0000
  S   S403      1.0  0.93896  0.15887  0.67176  1.0000
  S   S404      1.0  0.93421  0.21814  0.74461  1.0000
  S   S405      1.0  0.90964  0.19474  0.70987  1.0000
  Fe  Fe205     1.0  0.80882  0.06047  0.81697  1.0000
  S   S406      1.0  0.79900  0.08986  0.80536  1.0000
  S   S407      1.0  0.79667  0.03505  0.80053  1.0000
  Fe  Fe206     1.0  0.83259  0.07608  0.85330  1.0000
  S   S408      1.0  0.82447  0.10657  0.84413  1.0000
  S   S409      1.0  0.85636  0.06724  0.87688  1.0000
  Fe  Fe207     1.0  0.79469  0.09611  0.84164  1.0000
  S   S410      1.0  0.76905  0.11522  0.85240  1.0000
  Fe  Fe208     1.0  0.82928  0.09809  0.80859  1.0000
  S   S411      1.0  0.84398  0.11314  0.77865  1.0000
  S   S412      1.0  0.80269  0.06616  0.85331  1.0000
  S   S413      1.0  0.83919  0.06813  0.81769  1.0000
  Fe  Fe209     1.0  0.96507  0.14078  0.54513  1.0000
  S   S414      1.0  0.90427  0.24808  0.69801  1.0000
  S   S415      1.0  0.96335  0.16520  0.56907  1.0000
  Fe  Fe210     1.0  0.94660  0.10825  0.52293  1.0000
  C   C1222     1.0  0.82810  0.01693  0.78015  1.0000
  H   H1212     1.0  0.79041  0.06931  0.76035  1.0000
  S   S416      1.0  0.96425  0.10953  0.55326  1.0000
  H   H1213     1.0  0.86738  0.06279  0.74353  1.0000
  N   N104      1.0  0.98613  0.15388  0.68695  1.0000
  C   C1223     1.0  0.74592  0.10947  0.86252  1.0000
  C   C1224     1.0  0.73220  0.12426  0.86626  1.0000
  C   C1225     1.0  0.71380  0.12046  0.87464  1.0000
  C   C1226     1.0  0.70892  0.10176  0.87958  1.0000
  C   C1227     1.0  0.72259  0.08697  0.87570  1.0000
  C   C1228     1.0  0.74093  0.09076  0.86717  1.0000
  H   H1214     1.0  0.73588  0.13878  0.86277  1.0000
  H   H1215     1.0  0.70353  0.13201  0.87753  1.0000
  H   H1216     1.0  0.71906  0.07245  0.87952  1.0000
  H   H1217     1.0  0.75128  0.07924  0.86447  1.0000
  H   H1218     1.0  0.78912  0.03955  0.73967  1.0000
  H   H1219     1.0  0.96607  0.02077  0.54225  1.0000
  C   C1229     1.0  0.98624  0.15084  0.66459  1.0000
  H   H1220     1.0  0.85509  0.08578  0.74286  1.0000
  C   C1230     1.0  0.94463  0.16122  0.64295  1.0000
  C   C1231     1.0  0.94889  0.17868  0.63280  1.0000
  C   C1232     1.0  0.95447  0.17967  0.61011  1.0000
  C   C1233     1.0  0.95575  0.16328  0.59736  1.0000
  C   C1234     1.0  0.95139  0.14585  0.60751  1.0000
  C   C1235     1.0  0.94586  0.14484  0.63021  1.0000
  H   H1221     1.0  0.94804  0.19136  0.64245  1.0000
  H   H1222     1.0  0.95781  0.19321  0.60234  1.0000
  H   H1223     1.0  0.95230  0.13315  0.59788  1.0000
  H   H1224     1.0  0.94257  0.13128  0.63794  1.0000
  C   C1236     1.0  0.86153  0.13055  0.77794  1.0000
  C   C1237     1.0  0.86685  0.13948  0.79707  1.0000
  C   C1238     1.0  0.88038  0.15364  0.79553  1.0000
  C   C1239     1.0  0.88891  0.15895  0.77493  1.0000
  C   C1240     1.0  0.88371  0.14992  0.75580  1.0000
  C   C1241     1.0  0.87004  0.13590  0.75732  1.0000
  H   H1225     1.0  0.86042  0.13560  0.81304  1.0000
  H   H1226     1.0  0.88422  0.16054  0.81043  1.0000
  H   H1227     1.0  0.89004  0.15389  0.73981  1.0000
  H   H1228     1.0  0.86604  0.12916  0.74238  1.0000
  C   C1242     1.0  0.85541  0.06315  0.95343  1.0000
  C   C1243     1.0  0.87158  0.05749  0.94096  1.0000
  C   C1244     1.0  0.87138  0.05834  0.91755  1.0000
  C   C1245     1.0  0.85507  0.06494  0.90632  1.0000
  C   C1246     1.0  0.83883  0.07049  0.91876  1.0000
  C   C1247     1.0  0.83900  0.06952  0.94223  1.0000
  H   H1229     1.0  0.88428  0.05249  0.94932  1.0000
  H   H1230     1.0  0.88399  0.05398  0.90807  1.0000
  H   H1231     1.0  0.82620  0.07563  0.91031  1.0000
  H   H1232     1.0  0.82640  0.07392  0.95174  1.0000
  H   H1233     1.0  0.99093  0.16278  0.63144  1.0000
  H   H1234     1.0  0.00192  0.12231  0.00784  1.0000
  C   C1248     1.0  0.97970  0.13903  0.70267  1.0000
  H   H1235     1.0  0.83654  0.02743  0.78736  1.0000
  Fe  Fe211     1.0  0.98898  0.10635  0.52911  1.0000
  H   H1236     1.0  0.98420  0.14139  0.71988  1.0000
  C   C1249     1.0  0.99096  0.17101  0.69455  1.0000
  S   S417      1.0  0.93800  0.09843  0.00316  1.0000
  C   C1250     1.0  0.94058  0.05637  0.56619  1.0000
  H   H1237     1.0  0.85714  0.07239  0.76871  1.0000
  C   C1251     1.0  0.85509  0.07121  0.75053  1.0000
  N   N105      1.0  0.95545  0.04698  0.55561  1.0000
  H   H1238     1.0  0.98558  0.12486  0.69777  1.0000
  H   H1239     1.0  0.91248  0.05445  0.58091  1.0000
  C   C1252     1.0  0.00488  0.20500  0.75835  1.0000
  H   H1240     1.0  0.98081  0.20082  0.78044  1.0000
  C   C1253     1.0  0.99144  0.16510  0.64918  1.0000
  C   C1254     1.0  0.91090  0.03463  0.51621  1.0000
  C   C1255     1.0  0.80248  0.04635  0.74100  1.0000
  C   C1256     1.0  0.92443  0.04678  0.57312  1.0000
  S   S418      1.0  0.92102  0.08994  0.52530  1.0000
  H   H1241     1.0  0.97827  0.06424  0.56271  1.0000
  S   S419      1.0  0.99142  0.13766  0.52323  1.0000
  S   S420      1.0  0.94521  0.14001  0.51651  1.0000
  C   C1257     1.0  0.80852  0.01732  0.78438  1.0000
  H   H1242     1.0  0.97116  0.11855  0.98978  1.0000
  N   N106      1.0  0.87097  0.21258  0.74938  1.0000
  C   C1258     1.0  0.86685  0.21256  0.72728  1.0000
  C   C1259     1.0  0.86333  0.19961  0.76407  1.0000
  C   C1260     1.0  0.85542  0.19877  0.71926  1.0000
  C   C1261     1.0  0.85172  0.18574  0.75665  1.0000
  C   C1262     1.0  0.84792  0.18522  0.73407  1.0000
  C   C1263     1.0  0.88333  0.22675  0.75762  1.0000
  H   H1243     1.0  0.87283  0.22292  0.71562  1.0000
  H   H1244     1.0  0.86685  0.19943  0.78153  1.0000
  H   H1245     1.0  0.85268  0.19844  0.70162  1.0000
  H   H1246     1.0  0.84632  0.17502  0.76827  1.0000
  H   H1247     1.0  0.83938  0.17418  0.72807  1.0000
  H   H1248     1.0  0.89138  0.23392  0.74381  1.0000
  H   H1249     1.0  0.87477  0.23769  0.76678  1.0000
  H   H1250     1.0  0.89395  0.21980  0.76893  1.0000
  H   H1251     1.0  0.92423  0.09731  0.95644  1.0000
  C   C1264     1.0  0.80320  0.06304  0.75265  1.0000
  C   C1265     1.0  0.90872  0.05390  0.52151  1.0000
  N   N107      1.0  0.88633  0.10297  0.92317  1.0000
  C   C1266     1.0  0.90480  0.10014  0.92914  1.0000
  C   C1267     1.0  0.87224  0.10529  0.93910  1.0000
  C   C1268     1.0  0.90959  0.09967  0.95159  1.0000
  C   C1269     1.0  0.87652  0.10475  0.96170  1.0000
  C   C1270     1.0  0.89533  0.10205  0.96791  1.0000
  C   C1271     1.0  0.88184  0.10384  0.89948  1.0000
  H   H1252     1.0  0.91594  0.09813  0.91654  1.0000
  H   H1253     1.0  0.85753  0.10703  0.93447  1.0000
  S   S421      1.0  0.68612  0.09589  0.89063  1.0000
  H   H1254     1.0  0.86527  0.10588  0.97433  1.0000
  H   H1255     1.0  0.89889  0.10156  0.98536  1.0000
  H   H1256     1.0  0.88798  0.09105  0.89111  1.0000
  H   H1257     1.0  0.86629  0.10405  0.89692  1.0000
  H   H1258     1.0  0.88752  0.11676  0.89122  1.0000
  N   N108      1.0  0.83699  0.06265  0.74678  1.0000
  C   C1272     1.0  0.82067  0.07111  0.75525  1.0000
  C   C1273     1.0  0.83642  0.04634  0.73515  1.0000
  C   C1274     1.0  0.95463  0.02809  0.55140  1.0000
  H   H1259     1.0  0.98335  0.04834  0.54045  1.0000
  H   H1260     1.0  0.89990  0.02498  0.52085  1.0000
  H   H1261     1.0  0.99061  0.17359  0.71225  1.0000
  H   H1262     1.0  0.94091  0.07153  0.56866  1.0000
  H   H1263     1.0  0.84934  0.03940  0.72870  1.0000
  H   H1264     1.0  0.98154  0.13759  0.65851  1.0000
  H   H1265     1.0  0.82116  0.08403  0.76441  1.0000
  C   C1275     1.0  0.92319  0.06641  0.51620  1.0000
  H   H1266     1.0  0.99995  0.19730  0.81448  1.0000
  H   H1267     1.0  0.96788  0.06886  0.53595  1.0000
  C   C1276     1.0  0.97388  0.11152  0.00569  1.0000
  C   C1277     1.0  0.99612  0.18563  0.67962  1.0000
  H   H1268     1.0  0.99959  0.19929  0.68583  1.0000
  C   C1278     1.0  0.99629  0.18264  0.65679  1.0000
  H   H1269     1.0  0.99983  0.19397  0.64497  1.0000
  C   C1279     1.0  0.92351  0.02749  0.56903  1.0000
  Fe  Fe212     1.0  0.91787  0.03121  0.01065  1.0000
  C   C1280     1.0  0.00696  0.19971  0.79846  1.0000
  H   H1270     1.0  0.68131  0.05739  0.87233  1.0000
  C   C1281     1.0  0.93868  0.01807  0.55805  1.0000
  H   H1271     1.0  0.91085  0.01999  0.57371  1.0000
  H   H1272     1.0  0.68273  0.08337  0.84677  1.0000
  H   H1273     1.0  0.00866  0.24411  0.76900  1.0000
  Fe  Fe213     1.0  0.69952  0.41681  0.35756  1.0000
  S   S422      1.0  0.71125  0.39132  0.33924  1.0000
  H   H1274     1.0  0.71459  0.48517  0.23637  1.0000
  Fe  Fe214     1.0  0.71697  0.44441  0.32350  1.0000
  S   S423      1.0  0.73003  0.42081  0.30299  1.0000
  S   S424      1.0  0.72040  0.47630  0.31777  1.0000
  Fe  Fe215     1.0  0.70181  0.40698  0.30815  1.0000
  H   H1275     1.0  0.72571  0.39799  0.25895  1.0000
  Fe  Fe216     1.0  0.73839  0.40694  0.33589  1.0000
  S   S425      1.0  0.76558  0.38856  0.34175  1.0000
  C   C1282     1.0  0.75520  0.42047  0.41106  1.0000
  S   S426      1.0  0.72716  0.43130  0.35624  1.0000
  Fe  Fe217     1.0  0.89821  0.35594  0.40393  1.0000
  S   S427      1.0  0.89078  0.37602  0.37522  1.0000
  S   S428      1.0  0.90495  0.32370  0.40392  1.0000
  Fe  Fe218     1.0  0.89918  0.38795  0.43755  1.0000
  S   S429      1.0  0.89229  0.41022  0.41051  1.0000
  S   S430      1.0  0.90504  0.39826  0.47294  1.0000
  Fe  Fe219     1.0  0.87032  0.39051  0.39936  1.0000
  S   S431      1.0  0.84214  0.40643  0.39055  1.0000
  Fe  Fe220     1.0  0.91314  0.39461  0.38786  1.0000
  S   S432      1.0  0.93290  0.40566  0.35930  1.0000
  S   S433      1.0  0.87609  0.36918  0.42760  1.0000
  S   S434      1.0  0.92166  0.37364  0.41537  1.0000
  H   H1276     1.0  0.88891  0.36490  0.49670  1.0000
  H   H1277     1.0  0.87031  0.43139  0.37285  1.0000
  S   S435      1.0  0.98608  0.47532  0.33246  1.0000
  C   C1283     1.0  0.97135  0.45576  0.33941  1.0000
  C   C1284     1.0  0.96348  0.45397  0.36120  1.0000
  C   C1285     1.0  0.95189  0.43878  0.36769  1.0000
  C   C1286     1.0  0.94793  0.42501  0.35246  1.0000
  C   C1287     1.0  0.95579  0.42678  0.33067  1.0000
  C   C1288     1.0  0.96734  0.44201  0.32417  1.0000
  H   H1278     1.0  0.96648  0.46440  0.37324  1.0000
  H   H1279     1.0  0.94624  0.43765  0.38457  1.0000
  H   H1280     1.0  0.95293  0.41628  0.31866  1.0000
  H   H1281     1.0  0.97323  0.44305  0.30738  1.0000
  H   H1282     1.0  0.76876  0.42648  0.40682  1.0000
  H   H1283     1.0  0.95890  0.28051  0.34225  1.0000
  H   H1284     1.0  0.72017  0.33317  0.31927  1.0000
  H   H1285     1.0  0.94105  0.36197  0.35075  1.0000
  H   H1286     1.0  0.71024  0.36097  0.25592  1.0000
  C   C1289     1.0  0.78705  0.39401  0.35471  1.0000
  C   C1290     1.0  0.78996  0.41200  0.36275  1.0000
  C   C1291     1.0  0.80686  0.41545  0.37363  1.0000
  C   C1292     1.0  0.82117  0.40106  0.37656  1.0000
  C   C1293     1.0  0.81833  0.38312  0.36834  1.0000
  C   C1294     1.0  0.80137  0.37964  0.35754  1.0000
  H   H1287     1.0  0.77921  0.42328  0.36060  1.0000
  H   H1288     1.0  0.80891  0.42941  0.37980  1.0000
  H   H1289     1.0  0.82911  0.37187  0.37045  1.0000
  H   H1290     1.0  0.79933  0.36565  0.35146  1.0000
  H   H1291     1.0  0.71530  0.42805  0.44322  1.0000
  S   S436      1.0  0.68792  0.39475  0.27793  1.0000
  H   H1292     1.0  0.75363  0.37956  0.29662  1.0000
  N   N109      1.0  0.73296  0.39631  0.40614  1.0000
  C   C1295     1.0  0.75017  0.40378  0.40128  1.0000
  H   H1293     1.0  0.68755  0.46758  0.43108  1.0000
  H   H1294     1.0  0.70724  0.39847  0.42557  1.0000
  C   C1296     1.0  0.91359  0.27732  0.35150  1.0000
  C   C1297     1.0  0.91545  0.27294  0.37422  1.0000
  C   C1298     1.0  0.91215  0.28719  0.39001  1.0000
  C   C1299     1.0  0.90694  0.30601  0.38336  1.0000
  C   C1300     1.0  0.90464  0.31030  0.36068  1.0000
  C   C1301     1.0  0.90798  0.29604  0.34490  1.0000
  C   C1302     1.0  0.72077  0.40458  0.42144  1.0000
  H   H1295     1.0  0.91399  0.28372  0.40750  1.0000
  H   H1296     1.0  0.90056  0.32464  0.35527  1.0000
  H   H1297     1.0  0.90650  0.29961  0.32738  1.0000
  C   C1303     1.0  0.71777  0.48080  0.27180  1.0000
  C   C1304     1.0  0.72079  0.48931  0.29198  1.0000
  H   H1298     1.0  0.74615  0.35503  0.32526  1.0000
  C   C1305     1.0  0.68164  0.45373  0.43075  1.0000
  H   H1299     1.0  0.71586  0.46568  0.27156  1.0000
  H   H1300     1.0  0.95812  0.28928  0.38202  1.0000
  C   C1306     1.0  0.72385  0.34373  0.30655  1.0000
  N   N110      1.0  0.89407  0.43857  0.35200  1.0000
  C   C1307     1.0  0.87763  0.42961  0.35687  1.0000
  C   C1308     1.0  0.90346  0.43599  0.33201  1.0000
  C   C1309     1.0  0.87010  0.41779  0.34148  1.0000
  C   C1310     1.0  0.89641  0.42417  0.31630  1.0000
  C   C1311     1.0  0.87961  0.41502  0.32111  1.0000
  H   H1301     1.0  0.91678  0.44266  0.32838  1.0000
  H   H1302     1.0  0.85712  0.41061  0.34555  1.0000
  H   H1303     1.0  0.90415  0.42188  0.30070  1.0000
  H   H1304     1.0  0.87406  0.40565  0.30921  1.0000
  C   C1312     1.0  0.71856  0.35930  0.27080  1.0000
  H   H1305     1.0  0.74615  0.44243  0.43367  1.0000
  H   H1306     1.0  0.92533  0.35131  0.37129  1.0000
  C   C1313     1.0  0.95599  0.29516  0.34677  1.0000
  H   H1307     1.0  0.94918  0.35646  0.37820  1.0000
  S   S437      1.0  0.68830  0.43165  0.32661  1.0000
  C   C1314     1.0  0.74261  0.36983  0.29357  1.0000
  N   N111      1.0  0.73281  0.37126  0.27425  1.0000
  H   H1308     1.0  0.75082  0.39232  0.25991  1.0000
  H   H1309     1.0  0.73095  0.36644  0.40704  1.0000
  C   C1315     1.0  0.73678  0.38632  0.25759  1.0000
  H   H1310     1.0  0.73587  0.37681  0.37966  1.0000
  H   H1311     1.0  0.95125  0.30506  0.31307  1.0000
  C   C1316     1.0  0.73839  0.35596  0.30992  1.0000
  H   H1312     1.0  0.76004  0.39692  0.38965  1.0000
  H   H1313     1.0  0.73670  0.38078  0.24052  1.0000
  H   H1314     1.0  0.69324  0.44783  0.39782  1.0000
  C   C1317     1.0  0.94022  0.35144  0.36490  1.0000
  Fe  Fe221     1.0  0.00291  0.48849  0.30240  1.0000
  H   H1315     1.0  0.89109  0.45770  0.37875  1.0000
  C   C1318     1.0  0.90232  0.44991  0.36891  1.0000
  H   H1316     1.0  0.91191  0.46053  0.36126  1.0000
  C   C1319     1.0  0.71385  0.34539  0.28688  1.0000
  H   H1317     1.0  0.70215  0.33633  0.28427  1.0000
  H   H1318     1.0  0.94283  0.33808  0.32373  1.0000
  C   C1320     1.0  0.71703  0.49190  0.25188  1.0000
  C   C1321     1.0  0.74257  0.42935  0.42615  1.0000
  C   C1322     1.0  0.72529  0.42129  0.43154  1.0000
  H   H1319     1.0  0.91072  0.44039  0.38037  1.0000
  H   H1320     1.0  0.94925  0.32229  0.39211  1.0000
  N   N112      1.0  0.94646  0.33227  0.35844  1.0000
  C   C1323     1.0  0.95058  0.31878  0.37466  1.0000
  C   C1324     1.0  0.94677  0.32756  0.33652  1.0000
  C   C1325     1.0  0.95553  0.30007  0.36907  1.0000
  C   C1326     1.0  0.95160  0.30896  0.33035  1.0000
  C   C1327     1.0  0.72787  0.37886  0.39569  1.0000
  S   S438      1.0  0.99976  0.48645  0.26530  1.0000
  H   H1321     1.0  0.71254  0.37952  0.39183  1.0000
  C   C1328     1.0  0.72315  0.50901  0.29196  1.0000
  H   H1322     1.0  0.68349  0.49734  0.31941  1.0000
  S   S439      1.0  0.68206  0.40946  0.38877  1.0000
  H   H1323     1.0  0.99592  0.50697  0.35856  1.0000
  C   C1329     1.0  0.68485  0.44259  0.41186  1.0000
  C   C1330     1.0  0.89410  0.37411  0.50895  1.0000
  C   C1331     1.0  0.90251  0.39095  0.50183  1.0000
  H   H1324     1.0  0.91576  0.41566  0.51307  1.0000
  H   H1325     1.0  0.67964  0.48627  0.29393  1.0000
  C   C1332     1.0  0.67735  0.42462  0.41135  1.0000
  Fe  Fe222     1.0  0.69951  0.41655  0.69798  1.0000
  S   S440      1.0  0.71209  0.39083  0.71609  1.0000
  H   H1326     1.0  0.82600  0.36918  0.59294  1.0000
  Fe  Fe223     1.0  0.71758  0.44366  0.72912  1.0000
  S   S441      1.0  0.73135  0.41963  0.74942  1.0000
  S   S442      1.0  0.71986  0.47569  0.73244  1.0000
  Fe  Fe224     1.0  0.73909  0.40679  0.71615  1.0000
  S   S443      1.0  0.76611  0.38907  0.70669  1.0000
  Fe  Fe225     1.0  0.70327  0.40549  0.74739  1.0000
  S   S444      1.0  0.68701  0.39239  0.77735  1.0000
  S   S445      1.0  0.72689  0.43152  0.69587  1.0000
  H   H1327     1.0  0.69102  0.44750  0.65810  1.0000
  Fe  Fe226     1.0  0.90602  0.36107  0.65952  1.0000
  S   S446      1.0  0.92531  0.37583  0.63476  1.0000
  S   S447      1.0  0.92181  0.33498  0.67524  1.0000
  Fe  Fe227     1.0  0.87543  0.39342  0.65519  1.0000
  S   S448      1.0  0.89361  0.41010  0.63058  1.0000
  S   S449      1.0  0.84662  0.40902  0.66165  1.0000
  Fe  Fe228     1.0  0.89974  0.38228  0.61382  1.0000
  S   S450      1.0  0.89590  0.37393  0.57727  1.0000
  Fe  Fe229     1.0  0.91775  0.40248  0.65365  1.0000
  S   S451      1.0  0.94305  0.42037  0.66223  1.0000
  S   S452      1.0  0.88069  0.36583  0.63761  1.0000
  S   S453      1.0  0.89935  0.38753  0.67912  1.0000
  Fe  Fe230     1.0  0.99502  0.48651  0.75386  1.0000
  S   S454      1.0  0.96889  0.47086  0.74258  1.0000
  H   H1328     1.0  0.92902  0.50995  0.80519  1.0000
  C   C1333     1.0  0.94943  0.43532  0.68418  1.0000
  C   C1334     1.0  0.93726  0.43956  0.70233  1.0000
  C   C1335     1.0  0.94335  0.45074  0.71968  1.0000
  C   C1336     1.0  0.96174  0.45777  0.71936  1.0000
  C   C1337     1.0  0.97384  0.45369  0.70109  1.0000
  C   C1338     1.0  0.96770  0.44262  0.68367  1.0000
  H   H1329     1.0  0.92316  0.43419  0.70307  1.0000
  H   H1330     1.0  0.93377  0.45379  0.73360  1.0000
  H   H1331     1.0  0.98796  0.45901  0.70038  1.0000
  H   H1332     1.0  0.97726  0.43960  0.66972  1.0000
  C   C1339     1.0  0.90754  0.39764  0.54124  1.0000
  C   C1340     1.0  0.89916  0.38079  0.54833  1.0000
  C   C1341     1.0  0.89243  0.36912  0.53196  1.0000
  H   H1333     1.0  0.91298  0.40678  0.55338  1.0000
  H   H1334     1.0  0.88590  0.35606  0.53704  1.0000
  C   C1342     1.0  0.78855  0.39510  0.69465  1.0000
  C   C1343     1.0  0.79235  0.41358  0.68720  1.0000
  C   C1344     1.0  0.81018  0.41750  0.67722  1.0000
  C   C1345     1.0  0.82452  0.40311  0.67470  1.0000
  C   C1346     1.0  0.82070  0.38463  0.68208  1.0000
  C   C1347     1.0  0.80282  0.38067  0.69190  1.0000
  H   H1335     1.0  0.78162  0.42487  0.68924  1.0000
  H   H1336     1.0  0.81295  0.43187  0.67164  1.0000
  H   H1337     1.0  0.83150  0.37337  0.68029  1.0000
  H   H1338     1.0  0.80006  0.36632  0.69756  1.0000
  C   C1348     1.0  0.87320  0.42492  0.57597  1.0000
  C   C1349     1.0  0.71686  0.50903  0.75504  1.0000
  C   C1350     1.0  0.90598  0.29754  0.62465  1.0000
  C   C1351     1.0  0.89818  0.32667  0.60407  1.0000
  H   H1339     1.0  0.86255  0.39953  0.54753  1.0000
  C   C1352     1.0  0.84360  0.38318  0.56812  1.0000
  C   C1353     1.0  0.89268  0.30934  0.61344  1.0000
  H   H1340     1.0  0.75779  0.40359  0.66336  1.0000
  C   C1354     1.0  0.75030  0.42640  0.64036  1.0000
  C   C1355     1.0  0.90921  0.27238  0.69261  1.0000
  C   C1356     1.0  0.89510  0.28472  0.68331  1.0000
  C   C1357     1.0  0.89847  0.30400  0.67833  1.0000
  C   C1358     1.0  0.91605  0.31122  0.68265  1.0000
  C   C1359     1.0  0.93005  0.29895  0.69227  1.0000
  C   C1360     1.0  0.92672  0.27965  0.69713  1.0000
  H   H1341     1.0  0.88144  0.27930  0.67991  1.0000
  H   H1342     1.0  0.88750  0.31324  0.67107  1.0000
  H   H1343     1.0  0.94369  0.30435  0.69579  1.0000
  C   C1361     1.0  0.71867  0.40596  0.63284  1.0000
  C   C1362     1.0  0.71986  0.48050  0.77826  1.0000
  C   C1363     1.0  0.71850  0.48908  0.75702  1.0000
  C   C1364     1.0  0.91675  0.33206  0.60619  1.0000
  H   H1344     1.0  0.72118  0.46519  0.78006  1.0000
  C   C1365     1.0  0.72852  0.38119  0.66009  1.0000
  H   H1345     1.0  0.94723  0.28281  0.62502  1.0000
  H   H1346     1.0  0.76260  0.43436  0.64378  1.0000
  N   N113      1.0  0.95532  0.38712  0.70521  1.0000
  C   C1366     1.0  0.97120  0.39717  0.70759  1.0000
  C   C1367     1.0  0.94085  0.38804  0.72083  1.0000
  C   C1368     1.0  0.97280  0.40868  0.72588  1.0000
  C   C1369     1.0  0.94193  0.39953  0.73925  1.0000
  C   C1370     1.0  0.95803  0.40989  0.74175  1.0000
  C   C1371     1.0  0.95427  0.37472  0.68625  1.0000
  H   H1347     1.0  0.98247  0.39676  0.69495  1.0000
  H   H1348     1.0  0.92827  0.38006  0.71896  1.0000
  H   H1349     1.0  0.98510  0.41718  0.72734  1.0000
  H   H1350     1.0  0.93023  0.40062  0.75130  1.0000
  H   H1351     1.0  0.95888  0.41932  0.75557  1.0000
  H   H1352     1.0  0.96248  0.36117  0.68948  1.0000
  H   H1353     1.0  0.93941  0.37136  0.68312  1.0000
  H   H1354     1.0  0.95980  0.38183  0.67075  1.0000
  C   C1372     1.0  0.71984  0.49176  0.79722  1.0000
  C   C1373     1.0  0.83894  0.39339  0.60586  1.0000
  H   H1355     1.0  0.83268  0.39163  0.62249  1.0000
  C   C1374     1.0  0.83522  0.38082  0.58929  1.0000
  C   C1375     1.0  0.85567  0.39811  0.56386  1.0000
  N   N114      1.0  0.85933  0.41031  0.58024  1.0000
  C   C1376     1.0  0.85114  0.40812  0.60104  1.0000
  H   H1356     1.0  0.72109  0.48496  0.81353  1.0000
  H   H1357     1.0  0.84113  0.37332  0.55517  1.0000
  C   C1377     1.0  0.74745  0.40900  0.65152  1.0000
  H   H1358     1.0  0.85416  0.41764  0.61417  1.0000
  H   H1359     1.0  0.88754  0.41898  0.58016  1.0000
  H   H1360     1.0  0.87351  0.42973  0.55816  1.0000
  C   C1378     1.0  0.93819  0.29023  0.63772  1.0000
  H   H1361     1.0  0.70604  0.39826  0.63012  1.0000
  C   C1379     1.0  0.72121  0.42316  0.62112  1.0000
  N   N115      1.0  0.73156  0.39926  0.64806  1.0000
  H   H1362     1.0  0.90162  0.28406  0.63186  1.0000
  H   H1363     1.0  0.92113  0.34550  0.59891  1.0000
  C   C1380     1.0  0.73699  0.43355  0.62516  1.0000
  H   H1364     1.0  0.73209  0.36918  0.64905  1.0000
  H   H1365     1.0  0.73738  0.37949  0.67509  1.0000
  N   N116      1.0  0.92414  0.30303  0.62679  1.0000
  H   H1366     1.0  0.71070  0.42862  0.60943  1.0000
  H   H1367     1.0  0.73879  0.44718  0.61666  1.0000
  H   H1368     1.0  0.87823  0.30508  0.61201  1.0000
  H   H1369     1.0  0.86982  0.43756  0.58614  1.0000
  H   H1370     1.0  0.88809  0.33597  0.59521  1.0000
  H   H1371     1.0  0.71348  0.38055  0.66600  1.0000
  H   H1372     1.0  0.93131  0.27940  0.64870  1.0000
  S   S455      1.0  0.68916  0.43053  0.72931  1.0000
  H   H1373     1.0  0.68040  0.36126  0.74751  1.0000
  C   C1381     1.0  0.92960  0.32004  0.61777  1.0000
  H   H1374     1.0  0.94395  0.32446  0.61958  1.0000
  H   H1375     1.0  0.68510  0.32568  0.85428  1.0000
  H   H1376     1.0  0.93769  0.27041  0.70439  1.0000
  C   C1382     1.0  0.67991  0.45342  0.62530  1.0000
  H   H1377     1.0  0.94023  0.49264  0.77139  1.0000
  C   C1383     1.0  0.68286  0.44224  0.64485  1.0000
  H   H1378     1.0  0.94724  0.29832  0.64847  1.0000
  C   C1384     1.0  0.67872  0.31427  0.84596  1.0000
  H   H1379     1.0  0.95453  0.51042  0.73942  1.0000
  S   S456      1.0  0.99935  0.48709  0.79109  1.0000
  H   H1380     1.0  0.68116  0.32768  0.81326  1.0000
  H   H1381     1.0  0.68452  0.48289  0.99627  1.0000
  C   C1385     1.0  0.90915  0.40264  0.51825  1.0000
  H   H1382     1.0  0.75682  0.50345  0.77471  1.0000
  C   C1386     1.0  0.94139  0.50791  0.77209  1.0000
  S   S457      1.0  0.67996  0.40908  0.67055  1.0000
  H   H1383     1.0  0.76018  0.50809  0.81284  1.0000
  H   H1384     1.0  0.68581  0.46730  0.62365  1.0000
  H   H1385     1.0  0.77843  0.51142  0.76164  1.0000
  Fe  Fe231     1.0  0.70578  0.58746  0.18534  1.0000
  S   S458      1.0  0.71427  0.61138  0.20661  1.0000
  H   H1386     1.0  0.77727  0.56100  0.25448  1.0000
  Fe  Fe232     1.0  0.71651  0.55714  0.22084  1.0000
  S   S459      1.0  0.72584  0.57862  0.24431  1.0000
  S   S460      1.0  0.71710  0.52496  0.22646  1.0000
  Fe  Fe233     1.0  0.69933  0.59597  0.23503  1.0000
  H   H1387     1.0  0.88741  0.72201  0.21937  1.0000
  Fe  Fe234     1.0  0.74012  0.59236  0.21403  1.0000
  S   S461      1.0  0.77007  0.60306  0.21778  1.0000
  S   S462      1.0  0.68918  0.57333  0.21312  1.0000
  S   S463      1.0  0.73247  0.56958  0.19113  1.0000
  Fe  Fe235     1.0  0.00207  0.51852  0.26360  1.0000
  Fe  Fe236     1.0  0.87402  0.61120  0.15174  1.0000
  S   S464      1.0  0.89380  0.59512  0.12795  1.0000
  S   S465      1.0  0.84399  0.59966  0.15323  1.0000
  Fe  Fe237     1.0  0.90414  0.64052  0.15972  1.0000
  S   S466      1.0  0.92512  0.62640  0.13584  1.0000
  S   S467      1.0  0.91489  0.66305  0.18259  1.0000
  Fe  Fe238     1.0  0.90073  0.62363  0.11277  1.0000
  S   S468      1.0  0.89998  0.63366  0.07554  1.0000
  Fe  Fe239     1.0  0.91665  0.59890  0.15291  1.0000
  S   S469      1.0  0.94012  0.57605  0.16114  1.0000
  S   S470      1.0  0.88016  0.63975  0.13575  1.0000
  S   S471      1.0  0.89648  0.61294  0.17754  1.0000
  H   H1388     1.0  0.78219  0.53526  0.17903  1.0000
  S   S472      1.0  0.97949  0.54041  0.24949  1.0000
  C   C1387     1.0  0.96582  0.60758  0.21900  1.0000
  C   C1388     1.0  0.95000  0.56539  0.18600  1.0000
  C   C1389     1.0  0.96596  0.55270  0.18415  1.0000
  C   C1390     1.0  0.97492  0.54463  0.20322  1.0000
  C   C1391     1.0  0.96810  0.54912  0.22460  1.0000
  C   C1392     1.0  0.95201  0.56165  0.22647  1.0000
  C   C1393     1.0  0.94298  0.56967  0.20738  1.0000
  H   H1389     1.0  0.97153  0.54917  0.16778  1.0000
  H   H1390     1.0  0.98723  0.53506  0.20136  1.0000
  H   H1391     1.0  0.94648  0.56520  0.24285  1.0000
  H   H1392     1.0  0.93070  0.57927  0.20923  1.0000
  H   H1393     1.0  0.99100  0.59072  0.17427  1.0000
  C   C1394     1.0  0.90442  0.60583  0.04299  1.0000
  C   C1395     1.0  0.90116  0.62505  0.04767  1.0000
  C   C1396     1.0  0.89796  0.63800  0.02961  1.0000
  H   H1394     1.0  0.90689  0.59562  0.05653  1.0000
  H   H1395     1.0  0.89543  0.65290  0.03285  1.0000
  C   C1397     1.0  0.91545  0.72878  0.18096  1.0000
  C   C1398     1.0  0.90588  0.71940  0.16461  1.0000
  C   C1399     1.0  0.90570  0.69937  0.16465  1.0000
  C   C1400     1.0  0.91498  0.68840  0.18119  1.0000
  C   C1401     1.0  0.92450  0.69780  0.19758  1.0000
  C   C1402     1.0  0.92483  0.71782  0.19743  1.0000
  H   H1396     1.0  0.89851  0.72767  0.15181  1.0000
  H   H1397     1.0  0.89827  0.69243  0.15197  1.0000
  H   H1398     1.0  0.93174  0.68952  0.21048  1.0000
  H   H1399     1.0  0.93224  0.72475  0.21014  1.0000
  H   H1400     1.0  0.72544  0.51574  0.30750  1.0000
  H   H1401     1.0  0.98897  0.58667  0.21549  1.0000
  H   H1402     1.0  0.84849  0.61858  0.11041  1.0000
  C   C1403     1.0  0.78980  0.60350  0.19853  1.0000
  C   C1404     1.0  0.80619  0.61262  0.20435  1.0000
  C   C1405     1.0  0.82281  0.61188  0.19064  1.0000
  C   C1406     1.0  0.82326  0.60197  0.17084  1.0000
  C   C1407     1.0  0.80678  0.59306  0.16488  1.0000
  C   C1408     1.0  0.79015  0.59389  0.17854  1.0000
  H   H1403     1.0  0.80613  0.62013  0.21975  1.0000
  H   H1404     1.0  0.83529  0.61883  0.19549  1.0000
  H   H1405     1.0  0.80688  0.58543  0.14957  1.0000
  H   H1406     1.0  0.77769  0.58684  0.17375  1.0000
  C   C1409     1.0  0.90448  0.59977  0.02073  1.0000
  C   C1410     1.0  0.76576  0.53635  0.20976  1.0000
  C   C1411     1.0  0.85746  0.58307  0.07445  1.0000
  H   H1407     1.0  0.81745  0.56136  0.24493  1.0000
  S   S473      1.0  0.69455  0.59464  0.15072  1.0000
  H   H1408     1.0  0.83719  0.64807  0.07525  1.0000
  H   H1409     1.0  0.72389  0.53530  0.27236  1.0000
  H   H1410     1.0  0.86063  0.64987  0.06226  1.0000
  H   H1411     1.0  0.90709  0.58488  0.01749  1.0000
  H   H1412     1.0  0.85829  0.64818  0.09171  1.0000
  N   N117      1.0  0.79387  0.55885  0.22439  1.0000
  C   C1412     1.0  0.79533  0.55174  0.20348  1.0000
  C   C1413     1.0  0.77861  0.55503  0.23809  1.0000
  H   H1413     1.0  0.94051  0.64610  0.21855  1.0000
  H   H1414     1.0  0.93834  0.62669  0.23869  1.0000
  H   H1415     1.0  0.89533  0.72188  0.25941  1.0000
  C   C1414     1.0  0.80901  0.57000  0.23269  1.0000
  S   S474      1.0  0.00393  0.52050  0.30109  1.0000
  C   C1415     1.0  0.76441  0.54364  0.23105  1.0000
  H   H1416     1.0  0.96461  0.60515  0.23687  1.0000
  H   H1417     1.0  0.81868  0.57494  0.21897  1.0000
  C   C1416     1.0  0.67889  0.53257  0.30405  1.0000
  H   H1418     1.0  0.92443  0.62765  0.21410  1.0000
  C   C1417     1.0  0.88792  0.75168  0.26273  1.0000
  H   H1419     1.0  0.75230  0.54065  0.24190  1.0000
  C   C1418     1.0  0.85330  0.59196  0.09449  1.0000
  C   C1419     1.0  0.85230  0.64318  0.07616  1.0000
  H   H1420     1.0  0.80728  0.55500  0.19247  1.0000
  S   S475      1.0  0.91461  0.75413  0.18039  1.0000
  C   C1420     1.0  0.68686  0.57760  0.13240  1.0000
  C   C1421     1.0  0.98092  0.59942  0.18387  1.0000
  H   H1421     1.0  0.75462  0.52776  0.20402  1.0000
  H   H1422     1.0  0.85956  0.62223  0.04041  1.0000
  C   C1422     1.0  0.68301  0.58326  0.11030  1.0000
  N   N118      1.0  0.95347  0.62001  0.20822  1.0000
  H   H1423     1.0  0.96878  0.61370  0.15504  1.0000
  C   C1423     1.0  0.96843  0.61230  0.17307  1.0000
  H   H1424     1.0  0.85167  0.58363  0.10989  1.0000
  H   H1425     1.0  0.68635  0.59738  0.10430  1.0000
  N   N119      1.0  0.85407  0.62243  0.07551  1.0000
  C   C1424     1.0  0.85758  0.61381  0.05566  1.0000
  C   C1425     1.0  0.85158  0.61178  0.09471  1.0000
  C   C1426     1.0  0.85952  0.59403  0.05485  1.0000
  H   H1426     1.0  0.85920  0.56773  0.07416  1.0000
  C   C1427     1.0  0.89012  0.73489  0.25110  1.0000
  C   C1428     1.0  0.97976  0.59715  0.20700  1.0000
  C   C1429     1.0  0.95479  0.62262  0.18560  1.0000
  C   C1430     1.0  0.78123  0.54053  0.19578  1.0000
  H   H1427     1.0  0.94497  0.63247  0.17714  1.0000
  H   H1428     1.0  0.80285  0.58294  0.24076  1.0000
  H   H1429     1.0  0.89138  0.75187  0.28018  1.0000
  H   H1430     1.0  0.00333  0.53787  0.37428  1.0000
  C   C1431     1.0  0.88569  0.73495  0.22865  1.0000
  C   C1432     1.0  0.93852  0.63059  0.22065  1.0000
  S   S476      1.0  0.67891  0.60576  0.26346  1.0000
  C   C1433     1.0  0.87947  0.75194  0.21801  1.0000
  C   C1434     1.0  0.68272  0.55924  0.13989  1.0000
  H   H1431     1.0  0.68017  0.53169  0.32199  1.0000
  C   C1435     1.0  0.72232  0.52014  0.27205  1.0000
  H   H1432     1.0  0.86299  0.58733  0.03916  1.0000
  C   C1436     1.0  0.67865  0.55148  0.26987  1.0000
  H   H1433     1.0  0.67974  0.56509  0.26109  1.0000
  H   H1434     1.0  0.87643  0.75191  0.20041  1.0000
  H   H1435     1.0  0.68230  0.56298  0.30203  1.0000
  H   H1436     1.0  0.68565  0.55468  0.15685  1.0000
  C   C1437     1.0  0.68012  0.55026  0.29294  1.0000
  H   H1437     1.0  0.67886  0.64394  0.24180  1.0000
  C   C1438     1.0  0.71918  0.51162  0.25189  1.0000
  H   H1438     1.0  0.92268  0.76113  0.12950  1.0000
  Fe  Fe240     1.0  0.70189  0.58743  0.85397  1.0000
  S   S477      1.0  0.71391  0.61146  0.83315  1.0000
  C   C1439     1.0  0.89359  0.74116  0.89774  1.0000
  Fe  Fe241     1.0  0.71746  0.55736  0.82211  1.0000
  S   S478      1.0  0.73043  0.57913  0.79900  1.0000
  S   S479      1.0  0.71971  0.52515  0.81953  1.0000
  Fe  Fe242     1.0  0.74031  0.59226  0.83018  1.0000
  S   S480      1.0  0.77015  0.60394  0.82972  1.0000
  Fe  Fe243     1.0  0.70307  0.59667  0.80394  1.0000
  C   C1440     1.0  0.77630  0.55893  0.80044  1.0000
  S   S481      1.0  0.72898  0.56940  0.85316  1.0000
  S   S482      1.0  0.68951  0.57371  0.82490  1.0000
  H   H1439     1.0  0.92905  0.71489  0.93684  1.0000
  Fe  Fe244     1.0  0.90198  0.64137  0.89702  1.0000
  S   S483      1.0  0.92174  0.61895  0.91308  1.0000
  S   S484      1.0  0.91648  0.66989  0.89108  1.0000
  Fe  Fe245     1.0  0.86848  0.61499  0.89957  1.0000
  S   S485      1.0  0.88663  0.59166  0.91568  1.0000
  S   S486      1.0  0.83696  0.60759  0.89886  1.0000
  Fe  Fe246     1.0  0.89765  0.61363  0.93775  1.0000
  S   S487      1.0  0.90161  0.60401  0.97485  1.0000
  Fe  Fe247     1.0  0.90940  0.59855  0.88996  1.0000
  S   S488      1.0  0.92446  0.57170  0.87502  1.0000
  S   S489      1.0  0.87848  0.63686  0.92295  1.0000
  S   S490      1.0  0.89072  0.62102  0.87256  1.0000
  S   S491      1.0  0.99726  0.51821  0.74907  1.0000
  H   H1440     1.0  0.78044  0.57339  0.79689  1.0000
  S   S492      1.0  0.98929  0.54465  0.80376  1.0000
  C   C1441     1.0  0.94293  0.56460  0.85550  1.0000
  C   C1442     1.0  0.94708  0.54507  0.85260  1.0000
  C   C1443     1.0  0.96143  0.53864  0.83732  1.0000
  C   C1444     1.0  0.97187  0.55169  0.82456  1.0000
  C   C1445     1.0  0.96790  0.57121  0.82772  1.0000
  C   C1446     1.0  0.95355  0.57763  0.84298  1.0000
  H   H1441     1.0  0.93907  0.53479  0.86220  1.0000
  H   H1442     1.0  0.96428  0.52360  0.83527  1.0000
  H   H1443     1.0  0.97590  0.58150  0.81812  1.0000
  H   H1444     1.0  0.95069  0.59268  0.84499  1.0000
  Fe  Fe248     1.0  0.00299  0.51864  0.78580  1.0000
  C   C1447     1.0  0.74612  0.62393  0.87998  1.0000
  N   N120      1.0  0.94088  0.56734  0.93167  1.0000
  C   C1448     1.0  0.76793  0.53407  0.82689  1.0000
  C   C1449     1.0  0.91100  0.72608  0.84903  1.0000
  C   C1450     1.0  0.89707  0.71248  0.84806  1.0000
  C   C1451     1.0  0.89873  0.69497  0.86016  1.0000
  C   C1452     1.0  0.91441  0.69078  0.87345  1.0000
  C   C1453     1.0  0.92850  0.70425  0.87408  1.0000
  C   C1454     1.0  0.92682  0.72177  0.86203  1.0000
  H   H1445     1.0  0.88479  0.71557  0.83803  1.0000
  H   H1446     1.0  0.88776  0.68483  0.85946  1.0000
  H   H1447     1.0  0.94072  0.70120  0.88423  1.0000
  H   H1448     1.0  0.93773  0.73195  0.86291  1.0000
  S   S493      1.0  0.68738  0.61009  0.77401  1.0000
  C   C1455     1.0  0.95478  0.57337  0.91711  1.0000
  C   C1456     1.0  0.96128  0.59863  0.94146  1.0000
  H   H1449     1.0  0.74275  0.63045  0.86389  1.0000
  H   H1450     1.0  0.71545  0.53560  0.77220  1.0000
  C   C1457     1.0  0.78951  0.60267  0.84821  1.0000
  C   C1458     1.0  0.78850  0.59348  0.86917  1.0000
  C   C1459     1.0  0.80347  0.59461  0.88410  1.0000
  C   C1460     1.0  0.81978  0.60463  0.87821  1.0000
  C   C1461     1.0  0.82108  0.61319  0.85692  1.0000
  C   C1462     1.0  0.80602  0.61227  0.84210  1.0000
  H   H1451     1.0  0.77598  0.58598  0.87417  1.0000
  H   H1452     1.0  0.80232  0.58787  0.90048  1.0000
  H   H1453     1.0  0.83344  0.62102  0.85212  1.0000
  H   H1454     1.0  0.80702  0.61942  0.82593  1.0000
  C   C1463     1.0  0.92944  0.55139  0.92630  1.0000
  C   C1464     1.0  0.89797  0.63193  0.00736  1.0000
  H   H1455     1.0  0.96892  0.61110  0.94508  1.0000
  H   H1456     1.0  0.71577  0.51580  0.73869  1.0000
  C   C1465     1.0  0.77307  0.54681  0.78312  1.0000
  C   C1466     1.0  0.94711  0.59237  0.95619  1.0000
  H   H1457     1.0  0.77519  0.64002  0.86026  1.0000
  H   H1458     1.0  0.93241  0.54460  0.80645  1.0000
  H   H1459     1.0  0.77488  0.55200  0.76604  1.0000
  H   H1460     1.0  0.96398  0.56941  0.77609  1.0000
  H   H1461     1.0  0.92803  0.54142  0.94087  1.0000
  C   C1467     1.0  0.90284  0.71326  0.91982  1.0000
  H   H1462     1.0  0.95765  0.56629  0.90154  1.0000
  H   H1463     1.0  0.70566  0.56409  0.90209  1.0000
  H   H1464     1.0  0.71976  0.60954  0.88307  1.0000
  C   C1468     1.0  0.76507  0.52225  0.80919  1.0000
  H   H1465     1.0  0.79091  0.63652  0.88282  1.0000
  C   C1469     1.0  0.73314  0.61200  0.89061  1.0000
  C   C1470     1.0  0.77364  0.55250  0.82245  1.0000
  S   S494      1.0  0.90747  0.74845  0.83454  1.0000
  H   H1466     1.0  0.89551  0.64215  0.99383  1.0000
  H   H1467     1.0  0.93577  0.54334  0.91212  1.0000
  C   C1471     1.0  0.89007  0.72273  0.90558  1.0000
  C   C1472     1.0  0.96517  0.58910  0.92175  1.0000
  H   H1468     1.0  0.92556  0.57222  0.96220  1.0000
  H   H1469     1.0  0.88399  0.74819  0.88600  1.0000
  H   H1470     1.0  0.78063  0.62129  0.91736  1.0000
  C   C1473     1.0  0.71666  0.52029  0.77402  1.0000
  C   C1474     1.0  0.73747  0.60327  0.91109  1.0000
  C   C1475     1.0  0.92188  0.74083  0.91813  1.0000
  H   H1471     1.0  0.87799  0.71549  0.89989  1.0000
  H   H1472     1.0  0.90071  0.69863  0.92519  1.0000
  H   H1473     1.0  0.93446  0.74772  0.92295  1.0000
  H   H1474     1.0  0.77575  0.56191  0.83599  1.0000
  N   N121      1.0  0.76292  0.62717  0.88960  1.0000
  C   C1476     1.0  0.90127  0.61272  0.00267  1.0000
  N   N122      1.0  0.76744  0.52875  0.78763  1.0000
  H   H1475     1.0  0.94354  0.59996  0.97129  1.0000
  C   C1477     1.0  0.93693  0.57666  0.95095  1.0000
  C   C1478     1.0  0.76724  0.61881  0.90981  1.0000
  N   N123      1.0  0.90938  0.74992  0.90395  1.0000
  H   H1476     1.0  0.72746  0.59395  0.91940  1.0000
  H   H1477     1.0  0.77237  0.65506  0.88406  1.0000
  C   C1479     1.0  0.77595  0.64041  0.87870  1.0000
  H   H1478     1.0  0.91510  0.55687  0.92137  1.0000
  H   H1479     1.0  0.95860  0.54497  0.74174  1.0000
  C   C1480     1.0  0.75466  0.60662  0.92076  1.0000
  C   C1481     1.0  0.94854  0.56717  0.77524  1.0000
  C   C1482     1.0  0.91884  0.72234  0.92619  1.0000
  H   H1480     1.0  0.70415  0.54738  0.93912  1.0000
  H   H1481     1.0  0.94284  0.57496  0.76037  1.0000
  C   C1483     1.0  0.69363  0.55849  0.93505  1.0000
  H   H1482     1.0  0.76525  0.52908  0.84391  1.0000
  C   C1484     1.0  0.69454  0.56796  0.91407  1.0000
  H   H1483     1.0  0.75822  0.59982  0.93664  1.0000
  H   H1484     1.0  0.94153  0.57341  0.79029  1.0000
  H   H1485     1.0  0.97585  0.59407  0.90989  1.0000
  N   N124      1.0  0.94551  0.54682  0.77407  1.0000
  C   C1485     1.0  0.95163  0.53743  0.75547  1.0000
  C   C1486     1.0  0.93718  0.53720  0.79163  1.0000
  H   H1486     1.0  0.75586  0.52371  0.75621  1.0000
  S   S495      1.0  0.68230  0.59556  0.88309  1.0000
  C   C1487     1.0  0.68117  0.58252  0.90878  1.0000
  C   C1488     1.0  0.93514  0.51759  0.79099  1.0000
  S   S496      1.0  0.67897  0.55119  0.97713  1.0000
  C   C1489     1.0  0.67923  0.56327  0.95081  1.0000
  C   C1490     1.0  0.94946  0.51790  0.75409  1.0000
  C   C1491     1.0  0.76458  0.51622  0.76916  1.0000
  C   C1492     1.0  0.71830  0.51170  0.79522  1.0000
  Fe  Fe249     1.0  0.98772  0.89015  0.03547  1.0000
  S   S497      1.0  0.96080  0.89084  0.05636  1.0000
  C   C1493     1.0  0.90145  0.86899  0.30851  1.0000
  C   C1494     1.0  0.71000  0.90248  0.43362  1.0000
  C   C1495     1.0  0.97465  0.94419  0.05518  1.0000
  H   H1487     1.0  0.72198  0.86814  0.42167  1.0000
  Fe  Fe250     1.0  0.95787  0.86101  0.04591  1.0000
  S   S498      1.0  0.94673  0.83789  0.06940  1.0000
  C   C1496     1.0  0.97695  0.97784  0.04771  1.0000
  Fe  Fe251     1.0  0.87741  0.95876  0.49746  1.0000
  S   S499      1.0  0.85334  0.96007  0.47304  1.0000
  C   C1497     1.0  0.87385  0.87377  0.36250  1.0000
  S   S500      1.0  0.90832  0.95714  0.48772  1.0000
  Fe  Fe252     1.0  0.91916  0.80751  0.23587  1.0000
  S   S501      1.0  0.94906  0.81748  0.23373  1.0000
  S   S502      1.0  0.89572  0.81718  0.26096  1.0000
  Fe  Fe253     1.0  0.92816  0.77540  0.20254  1.0000
  S   S503      1.0  0.95854  0.78326  0.19818  1.0000
  Fe  Fe254     1.0  0.95832  0.78665  0.23527  1.0000
  S   S504      1.0  0.98350  0.77333  0.25384  1.0000
  Fe  Fe255     1.0  0.94722  0.81344  0.19677  1.0000
  S   S505      1.0  0.96225  0.83362  0.17282  1.0000
  S   S506      1.0  0.92861  0.77648  0.23986  1.0000
  S   S507      1.0  0.91666  0.80577  0.19866  1.0000
  Fe  Fe256     1.0  0.83168  0.92047  0.35419  1.0000
  S   S508      1.0  0.82291  0.89416  0.33757  1.0000
  S   S509      1.0  0.85304  0.91638  0.38181  1.0000
  Fe  Fe257     1.0  0.81276  0.94699  0.31924  1.0000
  S   S510      1.0  0.80302  0.92264  0.30007  1.0000
  S   S511      1.0  0.80488  0.97832  0.31199  1.0000
  Fe  Fe258     1.0  0.79445  0.90989  0.33365  1.0000
  S   S512      1.0  0.76651  0.89435  0.33669  1.0000
  Fe  Fe259     1.0  0.83202  0.90872  0.30553  1.0000
  S   S513      1.0  0.85104  0.89705  0.27703  1.0000
  S   S514      1.0  0.80265  0.93502  0.35270  1.0000
  S   S515      1.0  0.84230  0.93429  0.32226  1.0000
  H   H1488     1.0  0.95258  0.79398  0.07947  1.0000
  C   C1498     1.0  0.80891  0.99136  0.28669  1.0000
  C   C1499     1.0  0.81770  0.98300  0.26809  1.0000
  C   C1500     1.0  0.88392  0.99445  0.45253  1.0000
  H   H1489     1.0  0.82224  0.96814  0.26890  1.0000
  C   C1501     1.0  0.91256  0.95916  0.02188  1.0000
  C   C1502     1.0  0.74464  0.89853  0.35179  1.0000
  C   C1503     1.0  0.74110  0.91449  0.36477  1.0000
  C   C1504     1.0  0.72322  0.91761  0.37552  1.0000
  C   C1505     1.0  0.70869  0.90476  0.37373  1.0000
  C   C1506     1.0  0.71232  0.88868  0.36103  1.0000
  C   C1507     1.0  0.73013  0.88566  0.35007  1.0000
  H   H1490     1.0  0.75209  0.92449  0.36640  1.0000
  H   H1491     1.0  0.72062  0.93011  0.38528  1.0000
  H   H1492     1.0  0.70135  0.87866  0.35941  1.0000
  H   H1493     1.0  0.73266  0.87328  0.34007  1.0000
  C   C1508     1.0  0.88328  0.83948  0.26489  1.0000
  C   C1509     1.0  0.87025  0.84133  0.28300  1.0000
  C   C1510     1.0  0.86015  0.85872  0.28693  1.0000
  C   C1511     1.0  0.86283  0.87450  0.27265  1.0000
  C   C1512     1.0  0.87575  0.87260  0.25446  1.0000
  C   C1513     1.0  0.88599  0.85528  0.25066  1.0000
  H   H1494     1.0  0.86797  0.82923  0.29411  1.0000
  H   H1495     1.0  0.85026  0.85990  0.30096  1.0000
  H   H1496     1.0  0.87794  0.88467  0.24326  1.0000
  H   H1497     1.0  0.89589  0.85414  0.23664  1.0000
  C   C1514     1.0  0.85370  0.94805  0.44756  1.0000
  C   C1515     1.0  0.83856  0.95134  0.43306  1.0000
  C   C1516     1.0  0.83823  0.94196  0.41273  1.0000
  C   C1517     1.0  0.85303  0.92910  0.40680  1.0000
  C   C1518     1.0  0.86825  0.92595  0.42122  1.0000
  C   C1519     1.0  0.86865  0.93543  0.44146  1.0000
  H   H1498     1.0  0.82693  0.96107  0.43764  1.0000
  H   H1499     1.0  0.82642  0.94449  0.40182  1.0000
  H   H1500     1.0  0.87975  0.91600  0.41681  1.0000
  H   H1501     1.0  0.88036  0.93272  0.45249  1.0000
  C   C1520     1.0  0.94908  0.83946  0.09850  1.0000
  C   C1521     1.0  0.96349  0.84962  0.10728  1.0000
  C   C1522     1.0  0.96695  0.84819  0.13024  1.0000
  C   C1523     1.0  0.95606  0.83662  0.14459  1.0000
  C   C1524     1.0  0.94117  0.82705  0.13595  1.0000
  C   C1525     1.0  0.93765  0.82857  0.11301  1.0000
  H   H1502     1.0  0.97240  0.85807  0.09630  1.0000
  H   H1503     1.0  0.97840  0.85577  0.13683  1.0000
  H   H1504     1.0  0.93254  0.81828  0.14688  1.0000
  H   H1505     1.0  0.92628  0.82090  0.10640  1.0000
  C   C1526     1.0  0.99963  0.78607  0.26900  1.0000
  H   H1506     1.0  0.87996  0.78139  0.26071  1.0000
  H   H1507     1.0  0.85831  0.87701  0.36204  1.0000
  C   C1527     1.0  0.68808  0.91848  0.45903  1.0000
  H   H1508     1.0  0.71120  0.93198  0.44158  1.0000
  N   N125      1.0  0.70050  0.88610  0.43677  1.0000
  H   H1509     1.0  0.95195  0.00628  0.07198  1.0000
  H   H1510     1.0  0.70014  0.87114  0.40692  1.0000
  H   H1511     1.0  0.90498  0.89072  0.28288  1.0000
  H   H1512     1.0  0.97443  0.78665  0.14464  1.0000
  C   C1528     1.0  0.70630  0.86952  0.42372  1.0000
  H   H1513     1.0  0.87674  0.79873  0.22587  1.0000
  C   C1529     1.0  0.82080  0.99397  0.24840  1.0000
  H   H1514     1.0  0.87967  0.88261  0.37543  1.0000
  S   S516      1.0  0.93155  0.00376  0.49947  1.0000
  H   H1515     1.0  0.87615  0.85861  0.36762  1.0000
  H   H1516     1.0  0.97864  0.81137  0.08944  1.0000
  H   H1517     1.0  0.90910  0.85802  0.29916  1.0000
  C   C1530     1.0  0.95586  0.94745  0.06237  1.0000
  C   C1531     1.0  0.91574  0.97828  0.01638  1.0000
  H   H1518     1.0  0.98460  0.81318  0.26566  1.0000
  C   C1532     1.0  0.95172  0.78779  0.09625  1.0000
  S   S517      1.0  0.98603  0.85942  0.02733  1.0000
  H   H1519     1.0  0.89451  0.85023  0.33602  1.0000
  C   C1533     1.0  0.68493  0.88557  0.45084  1.0000
  H   H1520     1.0  0.92371  0.99572  0.42665  1.0000
  H   H1521     1.0  0.94731  0.93562  0.06766  1.0000
  C   C1534     1.0  0.98158  0.80227  0.10454  1.0000
  H   H1522     1.0  0.76453  0.92081  0.25470  1.0000
  H   H1523     1.0  0.82778  0.98743  0.23413  1.0000
  H   H1524     1.0  0.87231  0.90711  0.34093  1.0000
  N   N126      1.0  0.96521  0.79118  0.11131  1.0000
  H   H1525     1.0  0.70141  0.85617  0.43184  1.0000
  H   H1526     1.0  0.99991  0.95697  0.04212  1.0000
  C   C1535     1.0  0.99711  0.80562  0.27188  1.0000
  C   C1536     1.0  0.94798  0.96603  0.06213  1.0000
  N   N127      1.0  0.88273  0.87829  0.34072  1.0000
  C   C1537     1.0  0.67855  0.90170  0.46223  1.0000
  C   C1538     1.0  0.89918  0.88736  0.29938  1.0000
  H   H1527     1.0  0.87708  0.78658  0.20029  1.0000
  C   C1539     1.0  0.88056  0.89635  0.33193  1.0000
  C   C1540     1.0  0.93617  0.77702  0.10253  1.0000
  Fe  Fe260     1.0  0.94672  0.89947  0.02450  1.0000
  H   H1528     1.0  0.99407  0.79263  0.10098  1.0000
  H   H1529     1.0  0.92526  0.77476  0.09072  1.0000
  C   C1541     1.0  0.80303  0.01067  0.28530  1.0000
  H   H1530     1.0  0.94757  0.76687  0.15618  1.0000
  H   H1531     1.0  0.98528  0.98964  0.04186  1.0000
  C   C1542     1.0  0.70393  0.91891  0.44465  1.0000
  H   H1532     1.0  0.98496  0.81201  0.11789  1.0000
  N   N128      1.0  0.95848  0.98091  0.05472  1.0000
  S   S518      1.0  0.94157  0.86960  0.01518  1.0000
  C   C1543     1.0  0.89300  0.86464  0.32930  1.0000
  H   H1533     1.0  0.85577  0.78728  0.21790  1.0000
  C   C1544     1.0  0.96387  0.78378  0.13260  1.0000
  Fe  Fe261     1.0  0.91093  0.98151  0.51039  1.0000
  N   N129      1.0  0.75958  0.95460  0.30404  1.0000
  C   C1545     1.0  0.75338  0.93656  0.30646  1.0000
  C   C1546     1.0  0.76747  0.96080  0.28419  1.0000
  C   C1547     1.0  0.75488  0.92420  0.28873  1.0000
  C   C1548     1.0  0.76919  0.94884  0.26608  1.0000
  C   C1549     1.0  0.76285  0.93041  0.26841  1.0000
  C   C1550     1.0  0.75867  0.96683  0.32330  1.0000
  H   H1534     1.0  0.74757  0.93147  0.32232  1.0000
  H   H1535     1.0  0.77282  0.97495  0.28238  1.0000
  H   H1536     1.0  0.75046  0.90971  0.29110  1.0000
  C   C1551     1.0  0.95017  0.00033  0.05535  1.0000
  H   H1537     1.0  0.99190  0.82778  0.21111  1.0000
  H   H1538     1.0  0.74473  0.96607  0.33223  1.0000
  H   H1539     1.0  0.77009  0.96225  0.33490  1.0000
  H   H1540     1.0  0.76079  0.98192  0.31831  1.0000
  H   H1541     1.0  0.88118  0.98027  0.44735  1.0000
  S   S519      1.0  0.68654  0.90951  0.38799  1.0000
  H   H1542     1.0  0.93329  0.96842  0.06748  1.0000
  C   C1552     1.0  0.98529  0.95944  0.04778  1.0000
  H   H1543     1.0  0.98095  0.92986  0.05525  1.0000
  C   C1553     1.0  0.88865  0.90114  0.31111  1.0000
  H   H1544     1.0  0.92889  0.98734  0.45472  1.0000
  C   C1554     1.0  0.87149  0.78610  0.21779  1.0000
  N   N130      1.0  0.90181  0.00109  0.45085  1.0000
  C   C1555     1.0  0.94866  0.77275  0.13932  1.0000
  H   H1545     1.0  0.88619  0.91527  0.30378  1.0000
  H   H1546     1.0  0.84908  0.00549  0.29394  1.0000
  H   H1547     1.0  0.77584  0.95372  0.25054  1.0000
  H   H1548     1.0  0.85480  0.00019  0.46305  1.0000
  C   C1556     1.0  0.91766  0.98911  0.44212  1.0000
  H   H1549     1.0  0.72191  0.90309  0.42185  1.0000
  H   H1550     1.0  0.68303  0.93117  0.46747  1.0000
  C   C1557     1.0  0.86889  0.00571  0.46136  1.0000
  S   S520      1.0  0.92236  0.92127  0.02508  1.0000
  N   N131      1.0  0.87789  0.76845  0.22935  1.0000
  H   H1551     1.0  0.86250  0.00699  0.25524  1.0000
  H   H1552     1.0  0.89900  0.95530  0.02907  1.0000
  C   C1558     1.0  0.00532  0.82235  0.21773  1.0000
  H   H1553     1.0  0.00083  0.79334  0.21001  1.0000
  C   C1559     1.0  0.93468  0.76945  0.12423  1.0000
  C   C1560     1.0  0.92688  0.94508  0.01825  1.0000
  H   H1554     1.0  0.93481  0.00070  0.05168  1.0000
  H   H1555     1.0  0.91322  0.97468  0.43830  1.0000
  H   H1556     1.0  0.95686  0.00973  0.04244  1.0000
  H   H1557     1.0  0.90468  0.98910  0.01931  1.0000
  C   C1561     1.0  0.88155  0.76839  0.25158  1.0000
  H   H1558     1.0  0.00904  0.83066  0.28434  1.0000
  H   H1559     1.0  0.67714  0.87271  0.45317  1.0000
  S   S521      1.0  0.87978  0.98474  0.51795  1.0000
  S   S522      1.0  0.97812  0.86165  0.96221  1.0000
  C   C1562     1.0  0.94217  0.90213  0.57391  1.0000
  Fe  Fe262     1.0  0.93380  0.80911  0.86146  1.0000
  S   S523      1.0  0.90840  0.80219  0.84179  1.0000
  S   S524      1.0  0.92693  0.81719  0.89737  1.0000
  Fe  Fe263     1.0  0.96163  0.79661  0.82413  1.0000
  S   S525      1.0  0.93819  0.78829  0.80244  1.0000
  S   S526      1.0  0.99364  0.79292  0.81708  1.0000
  Fe  Fe264     1.0  0.92320  0.81594  0.81232  1.0000
  S   S527      1.0  0.91077  0.83469  0.78371  1.0000
  Fe  Fe265     1.0  0.92500  0.77514  0.83367  1.0000
  S   S528      1.0  0.94755  0.82495  0.83252  1.0000
  S   S529      1.0  0.94951  0.78135  0.85472  1.0000
  Fe  Fe266     1.0  0.82514  0.90328  0.73532  1.0000
  S   S530      1.0  0.84639  0.92213  0.71877  1.0000
  S   S531      1.0  0.83307  0.88245  0.76421  1.0000
  Fe  Fe267     1.0  0.79167  0.92320  0.70957  1.0000
  S   S532      1.0  0.81126  0.94378  0.69219  1.0000
  S   S533      1.0  0.76051  0.92896  0.69992  1.0000
  Fe  Fe268     1.0  0.83086  0.91831  0.68724  1.0000
  S   S534      1.0  0.84401  0.91040  0.65363  1.0000
  Fe  Fe269     1.0  0.82488  0.94610  0.72534  1.0000
  S   S535      1.0  0.83746  0.97237  0.73932  1.0000
  S   S536      1.0  0.81085  0.89747  0.70318  1.0000
  S   S537      1.0  0.80408  0.92751  0.74329  1.0000
  C   C1563     1.0  0.99452  0.92200  0.52383  1.0000
  S   S538      1.0  0.91672  0.96312  0.54071  1.0000
  H   H1560     1.0  0.92718  0.77365  0.89877  1.0000
  C   C1564     1.0  0.87565  0.78111  0.80248  1.0000
  H   H1561     1.0  0.93360  0.89017  0.57093  1.0000
  Fe  Fe270     1.0  0.88520  0.96406  0.54672  1.0000
  S   S539      1.0  0.87411  0.97086  0.58154  1.0000
  H   H1562     1.0  0.78260  0.00371  0.77815  1.0000
  S   S540      1.0  0.69061  0.88270  0.66721  1.0000
  C   C1565     1.0  0.82588  0.98944  0.75662  1.0000
  H   H1563     1.0  0.98839  0.91364  0.57331  1.0000
  H   H1564     1.0  0.91109  0.77008  0.87706  1.0000
  C   C1566     1.0  0.80637  0.98963  0.76117  1.0000
  H   H1565     1.0  0.00237  0.84092  0.79074  1.0000
  H   H1566     1.0  0.79669  0.93044  0.80934  1.0000
  H   H1567     1.0  0.79788  0.97916  0.75397  1.0000
  C   C1567     1.0  0.74177  0.91566  0.68980  1.0000
  C   C1568     1.0  0.72577  0.92552  0.68090  1.0000
  C   C1569     1.0  0.71030  0.91578  0.67326  1.0000
  C   C1570     1.0  0.71037  0.89592  0.67483  1.0000
  C   C1571     1.0  0.72645  0.88606  0.68356  1.0000
  C   C1572     1.0  0.74210  0.89580  0.69081  1.0000
  H   H1568     1.0  0.72534  0.94087  0.67991  1.0000
  H   H1569     1.0  0.69836  0.92370  0.66619  1.0000
  H   H1570     1.0  0.72677  0.87072  0.68489  1.0000
  H   H1571     1.0  0.75419  0.88793  0.69768  1.0000
  C   C1573     1.0  0.85298  0.92731  0.63413  1.0000
  C   C1574     1.0  0.85313  0.94657  0.63883  1.0000
  C   C1575     1.0  0.85970  0.95971  0.62256  1.0000
  C   C1576     1.0  0.86606  0.95376  0.60143  1.0000
  C   C1577     1.0  0.86576  0.93452  0.59665  1.0000
  C   C1578     1.0  0.85935  0.92135  0.61299  1.0000
  H   H1572     1.0  0.84819  0.95134  0.65500  1.0000
  H   H1573     1.0  0.85985  0.97457  0.62637  1.0000
  H   H1574     1.0  0.87031  0.92980  0.58034  1.0000
  H   H1575     1.0  0.85911  0.90649  0.60916  1.0000
  C   C1579     1.0  0.88948  0.84889  0.77947  1.0000
  C   C1580     1.0  0.88720  0.85885  0.75894  1.0000
  C   C1581     1.0  0.87026  0.86944  0.75415  1.0000
  C   C1582     1.0  0.85517  0.87007  0.76977  1.0000
  C   C1583     1.0  0.85747  0.86019  0.79036  1.0000
  C   C1584     1.0  0.87452  0.84978  0.79526  1.0000
  H   H1576     1.0  0.89863  0.85831  0.74655  1.0000
  H   H1577     1.0  0.86879  0.87689  0.73822  1.0000
  H   H1578     1.0  0.84594  0.86056  0.80261  1.0000
  H   H1579     1.0  0.87598  0.84223  0.81112  1.0000
  C   C1585     1.0  0.96381  0.84899  0.94454  1.0000
  C   C1586     1.0  0.94629  0.84227  0.95182  1.0000
  C   C1587     1.0  0.93521  0.83261  0.93714  1.0000
  C   C1588     1.0  0.94152  0.82945  0.91509  1.0000
  C   C1589     1.0  0.95908  0.83609  0.90785  1.0000
  C   C1590     1.0  0.97014  0.84583  0.92251  1.0000
  H   H1580     1.0  0.94131  0.84439  0.96878  1.0000
  H   H1581     1.0  0.92168  0.82747  0.94292  1.0000
  H   H1582     1.0  0.96412  0.83376  0.89095  1.0000
  H   H1583     1.0  0.98366  0.85094  0.91670  1.0000
  C   C1591     1.0  0.94454  0.93496  0.58022  1.0000
  C   C1592     1.0  0.90924  0.78978  0.75415  1.0000
  S   S541      1.0  0.93790  0.00701  0.99997  1.0000
  H   H1584     1.0  0.90492  0.79081  0.73653  1.0000
  C   C1593     1.0  0.83670  0.00311  0.76624  1.0000
  H   H1585     1.0  0.91873  0.80152  0.75715  1.0000
  C   C1594     1.0  0.00640  0.79421  0.79119  1.0000
  C   C1595     1.0  0.95170  0.90744  0.95093  1.0000
  Fe  Fe271     1.0  0.96990  0.87049  0.99741  1.0000
  H   H1586     1.0  0.85272  0.81894  0.77705  1.0000
  H   H1587     1.0  0.79784  0.96425  0.81986  1.0000
  H   H1588     1.0  0.93147  0.95108  0.96104  1.0000
  H   H1589     1.0  0.84977  0.79721  0.81034  1.0000
  C   C1596     1.0  0.99764  0.79985  0.77134  1.0000
  C   C1597     1.0  0.91890  0.92432  0.96926  1.0000
  H   H1590     1.0  0.98247  0.80276  0.77135  1.0000
  N   N132      1.0  0.79382  0.92501  0.63817  1.0000
  C   C1598     1.0  0.78414  0.94132  0.64439  1.0000
  C   C1599     1.0  0.80744  0.92555  0.62153  1.0000
  C   C1600     1.0  0.78865  0.95886  0.63460  1.0000
  C   C1601     1.0  0.81217  0.94283  0.61121  1.0000
  C   C1602     1.0  0.80286  0.95959  0.61799  1.0000
  C   C1603     1.0  0.78917  0.90672  0.64871  1.0000
  H   H1591     1.0  0.77308  0.94088  0.65728  1.0000
  H   H1592     1.0  0.81518  0.91264  0.61666  1.0000
  H   H1593     1.0  0.78127  0.97179  0.64004  1.0000
  H   H1594     1.0  0.82338  0.94325  0.59847  1.0000
  H   H1595     1.0  0.80676  0.97310  0.61045  1.0000
  H   H1596     1.0  0.80230  0.89773  0.65153  1.0000
  H   H1597     1.0  0.78201  0.90856  0.66527  1.0000
  H   H1598     1.0  0.77961  0.89921  0.63803  1.0000
  S   S542      1.0  0.88047  0.93833  0.52696  1.0000
  C   C1604     1.0  0.94740  0.96918  0.00305  1.0000
  S   S543      1.0  0.97383  0.90126  0.00437  1.0000
  H   H1599     1.0  0.88052  0.81530  0.75145  1.0000
  H   H1600     1.0  0.87475  0.77170  0.81710  1.0000
  C   C1605     1.0  0.86167  0.79538  0.79867  1.0000
  C   C1606     1.0  0.86325  0.80749  0.77996  1.0000
  C   C1607     1.0  0.96434  0.93300  0.57894  1.0000
  H   H1601     1.0  0.96386  0.88683  0.51736  1.0000
  C   C1608     1.0  0.87896  0.80528  0.76541  1.0000
  N   N133      1.0  0.93373  0.91961  0.57768  1.0000
  C   C1609     1.0  0.91267  0.76921  0.89539  1.0000
  H   H1602     1.0  0.93909  0.88117  0.96000  1.0000
  C   C1610     1.0  0.94435  0.95013  0.00892  1.0000
  C   C1611     1.0  0.96194  0.89963  0.57279  1.0000
  C   C1612     1.0  0.00859  0.80216  0.75151  1.0000
  H   H1603     1.0  0.90642  0.93104  0.97714  1.0000
  H   H1604     1.0  0.90243  0.77958  0.90322  1.0000
  N   N134      1.0  0.84051  0.93977  0.78884  1.0000
  C   C1613     1.0  0.82485  0.92971  0.79435  1.0000
  C   C1614     1.0  0.84139  0.95820  0.79492  1.0000
  C   C1615     1.0  0.80926  0.93833  0.80555  1.0000
  C   C1616     1.0  0.82616  0.96719  0.80640  1.0000
  C   C1617     1.0  0.80992  0.95724  0.81150  1.0000
  C   C1618     1.0  0.85668  0.93082  0.77671  1.0000
  H   H1605     1.0  0.82418  0.91503  0.78973  1.0000
  H   H1606     1.0  0.85368  0.96625  0.79026  1.0000
  H   H1607     1.0  0.91746  0.77610  0.75670  1.0000
  H   H1608     1.0  0.82671  0.98198  0.81069  1.0000
  H   H1609     1.0  0.93788  0.94888  0.58283  1.0000
  H   H1610     1.0  0.86888  0.92852  0.78783  1.0000
  H   H1611     1.0  0.85325  0.91686  0.77021  1.0000
  H   H1612     1.0  0.86083  0.93999  0.76212  1.0000
  C   C1619     1.0  0.89111  0.77924  0.78752  1.0000
  C   C1620     1.0  0.90609  0.89337  0.97886  1.0000
  C   C1621     1.0  0.96195  0.93478  0.52156  1.0000
  H   H1613     1.0  0.90782  0.93646  0.58227  1.0000
  H   H1614     1.0  0.96086  0.93588  0.94447  1.0000
  C   C1622     1.0  0.97306  0.91521  0.57520  1.0000
  N   N135      1.0  0.89259  0.79124  0.76924  1.0000
  H   H1615     1.0  0.90741  0.91835  0.56198  1.0000
  H   H1616     1.0  0.90791  0.87829  0.97409  1.0000
  N   N136      1.0  0.92101  0.90497  0.96886  1.0000
  C   C1623     1.0  0.91298  0.92176  0.57841  1.0000
  H   H1617     1.0  0.95198  0.94684  0.52167  1.0000
  H   H1618     1.0  0.96455  0.90054  0.94411  1.0000
  H   H1619     1.0  0.68571  0.89832  0.71439  1.0000
  H   H1620     1.0  0.96857  0.88591  0.56901  1.0000
  H   H1621     1.0  0.90640  0.89385  0.99731  1.0000
  C   C1624     1.0  0.93720  0.89649  0.95998  1.0000
  C   C1625     1.0  0.94961  0.92719  0.95113  1.0000
  C   C1626     1.0  0.93309  0.93573  0.96029  1.0000
  H   H1622     1.0  0.90694  0.91205  0.59141  1.0000
  H   H1623     1.0  0.85184  0.00301  0.76291  1.0000
  H   H1624     1.0  0.89194  0.89883  0.97337  1.0000
  C   C1627     1.0  0.79775  0.00353  0.77494  1.0000
  H   H1625     1.0  0.00169  0.80681  0.73633  1.0000
  H   H1626     1.0  0.97291  0.94526  0.58017  1.0000
  H   H1627     1.0  0.98616  0.95166  0.52581  1.0000
  C   C1628     1.0  0.98135  0.93750  0.52383  1.0000
  H   H1628     1.0  0.93779  0.00330  0.55388  1.0000
  H   H1629     1.0  0.90201  0.76824  0.79083  1.0000
  H   H1630     1.0  0.99826  0.89173  0.52100  1.0000
  H   H1631     1.0  0.96092  0.97305  0.99574  1.0000
  C   C1629     1.0  0.98821  0.90375  0.52105  1.0000
  C   C1630     1.0  0.95553  0.91649  0.51963  1.0000
  C   C1631     1.0  0.93315  0.98329  0.00685  1.0000
  C   C1632     1.0  0.96874  0.90101  0.51900  1.0000
  S   S544      1.0  0.93106  0.91253  0.51991  1.0000
  H   H1632     1.0  0.95545  0.93940  0.00606  1.0000
  Fe  Fe272     1.0  0.91180  0.93894  0.51874  1.0000
