data_image0
_chemical_formula_structural       FeS2NSHFeSFeSHSFeSNFeSCFeSFeS4HCH2FeS2FeSHSHFeS2FeSFeS3HC6H4C6H4SCHC4H2C2H2CH4C6H4C6H2CH2C2SH4CH2SHC4HCHCH2C2HFeNHC3HC2NC6H2CH5C2NC6HSHC3H4CHC2H3C2H2CHCH4CHFeH6CS2CSNHSFeH2FeSHFeCSFeS2FeS2FeSFeS3C6H3C6H4C6H4C5H2C6H5CNCH2CHC2NHCNH3CH2C3HCNC6H6SC2H2C2FeCHCHFeSHSCH2CHCFeNCH2CH2SCSFeSCHC2HCHC2SH3NSHC2H2CHFeSCNH5FeH2CFeSH5S2HS2H3CHCH2CSH3CHCHFeSCHSHFeHC2HSH2CSHCSCFeSHS2NFeS2FeS2FeSFeS3C6H4C6H4C6H4CH4S3FeHCSH2CSC2HCH3SC6H3C3H2SC2H3CHFeCHC3HCHNHFeHFeCHCNC6H8NHC4H3C2NCHC4SH4CNFeCNC2FeHCSCHC4HNCH5SH2C2HSH3SN2H2CSCHC2H2S2CSFeSHCH3CFeSHFeCFeSH2S2FeS2H2C2H3CFeSHCHCHFeHC6H4C6HCSH2C4HCH2FeCNHC3NHCH4CH2CSFeH3C3H5FeC2HS2CHC2S2H2C2HCFeHC2HS2CS3H3S2C2SHCHC6HFeH2C5H3CHCHC2H3CHSCSH3CH3NHFeC2HSC4NC2HC2H6CH2C3H4SHCHFeCSCFeH2CH2CH2CHFeHSH2C4HC2SHFeS2FeS2FeSFeS5FeSHCFeS2C2FeSHFeC2SHCH2C6H4C6H4C6H5CNC4HCH8C3SNHSCNHC4FeH3SH3NCSCHCH3NC6H10CHC2HSCHC2H2CNC6SFeC2H5C2H3SC2SCHCHCSNHCH2C2H4C2SHC2H2SH2FeSH2SHFeS2FeS2FeSFeS3HFeS2H2FeHSCHSC2HSCSHC6H4C6H4C6H4C6H4CHNC6H9C2HCSH3SH2CSC2H2C2NCFeH4CHCHCSC3NH3FeH2SFeCNHCH2C2H2CSHCNHCFe2NCHCFeH2C2HC3H2CSCHCNFeSH2FeSHSFeCSHNCHSC2H5FeH2C2H2C3H2S2HCHCHC5FeH2C2H2C3SC2HC3HCH2CNC2SHCHC2H3NCSC2HFeC4SCH2C2SH2C3H7C2HSCFeHC2FeHCFeS2FeSHSHS2FeSC2HCHSH3C6H4C6H5C3H5NSH2C5HCHC6HSC3HCNCH2CS2HFeC2H3C2NC2H3NHNSFe2HC8HC2HSCHCH2S2HCH3CH2C2H2SH2CH3CH3CHSHCHSHCFeSFeS3FeS2FeS2FeSFeS3C3H2CH2SHC5H3C6H4C6H4C2FeC3HSC6SH5C4H2CH3C2HCH5CHCHC2S2CFeCNC6H9FeHNHNH2C3NHCNC3NFeCH2C3HSHCH6C2H5C3FeHSH2CNH2S3HSCHCFeSHSFeS2FeS2FeSFeS3FeSFeS2C6H4C6H6CHC7H4FeCSNH4C2HC2HC6H3CH3CFeH3CHCHCFeCHCH5CNC6H8C4HCHCHCHNC2FeHCNCH3CS2H3CH4CHFeHC2HCFeHSCSCSHC2SHFeSHFeSFeSHS3CSHFeS2FeHFeHS2CHCH2FeCSC3HSC6H4C5H3CHC6HSH3CNH2NHC2HFeSC2HCSH3NHCHC3NH3CNHFeC4HFeCFe2HCH2CH2C4FeHFeH2C2H2C2HSH2CFe2SHSCHSCNC5HCHCHCHNHC3H3CHSCH2CHC2HC2HC5H3S2C2HCH2SH4SC2NSCFeS3FeS2HFeSFeHNC2S2HFeSNS2HSHFeSC4H2C6H3SH2CFeHC2HC5H2CHCSHCHC3HC2SHC3SCH2C2H2SHC2HCHC3H3SFeC2H2C3HSH2FeH3C3SNC4HC2H2NCH2C2H3CHFeCHCHCSCNC3FeCH3CH2CSH2FeCNH4CH2SFeH3C2SHFeS2FeS2FeSFeS3FeS4CHCFeSC3HSHSC7H4C6H4C6H4C2H7CFeCH3SH3CH2NH2CNH2CHFeHC2SH2CFeH2CNC3FeCH2SCSCFeCHC2H2C2HC3H2CNCSHCHNC3H2C2HNHCFeC3H3SC4H2CHCHC4HC2H4CSCFeH6NCSHC2SHCFeS2HSCHCS2FeS2FeS2FeSFeS4HCHCHSFeS2FeS2CSC3H2C2SC4H3C3H2C6H4C6H4C6H4C6H4CHNCFeNH2C2HSHCNH4CHCHC4H2CHCHCH2CHCH4FeH3CHNHFeC3SCH5NC2HFeCH2C2SH2S2HCH3CSH3CHCSHC3HNC2SCSH2FeCHCHSC3H4NC4FeHCH3CH2SHSCFeHCFeCH5SHC2H2FeSH2CS
_chemical_formula_sum              "Fe176 S352 N88 H1056 C1056"
_cell_length_a       44.4333
_cell_length_b       88.9997
_cell_length_c       42.3461
_cell_angle_alpha    87.16
_cell_angle_beta     88.9176
_cell_angle_gamma    85.19

_space_group_name_H-M_alt    "P 1"
_space_group_IT_number       1

loop_
  _space_group_symop_operation_xyz
  'x, y, z'

loop_
  _atom_site_type_symbol
  _atom_site_label
  _atom_site_symmetry_multiplicity
  _atom_site_fract_x
  _atom_site_fract_y
  _atom_site_fract_z
  _atom_site_occupancy
  Fe  Fe1       1.0  0.44501  0.12445  0.17714  1.0000
  S   S1        1.0  0.42406  0.13900  0.13697  1.0000
  S   S2        1.0  0.41919  0.12130  0.22353  1.0000
  N   N1        1.0  0.07663  0.00159  0.37959  1.0000
  S   S3        1.0  0.48520  0.12911  0.09478  1.0000
  H   H1        1.0  0.37253  0.11083  0.47516  1.0000
  Fe  Fe2       1.0  0.47017  0.14698  0.12839  1.0000
  S   S4        1.0  0.47890  0.17159  0.12195  1.0000
  Fe  Fe3       1.0  0.44039  0.11992  0.10658  1.0000
  S   S5        1.0  0.41135  0.11369  0.06683  1.0000
  H   H2        1.0  0.38645  0.15115  0.37357  1.0000
  S   S6        1.0  0.45766  0.10462  0.14719  1.0000
  Fe  Fe4       1.0  0.46830  0.12404  0.39998  1.0000
  S   S7        1.0  0.42013  0.12587  0.41763  1.0000
  N   N2        1.0  0.41769  0.16726  0.38422  1.0000
  Fe  Fe5       1.0  0.49391  0.11887  0.46645  1.0000
  S   S8        1.0  0.44811  0.12022  0.48965  1.0000
  C   C1        1.0  0.43298  0.17603  0.48273  1.0000
  Fe  Fe6       1.0  0.43534  0.10609  0.45046  1.0000
  S   S9        1.0  0.41296  0.08458  0.46110  1.0000
  Fe  Fe7       1.0  0.43719  0.13989  0.45546  1.0000
  S   S10       1.0  0.41169  0.16117  0.47240  1.0000
  S   S11       1.0  0.48226  0.10319  0.42970  1.0000
  S   S12       1.0  0.48400  0.13958  0.43511  1.0000
  S   S13       1.0  0.18964  0.04944  0.44445  1.0000
  H   H3        1.0  0.48087  0.12745  0.23660  1.0000
  C   C2        1.0  0.38755  0.16169  0.38638  1.0000
  H   H4        1.0  0.42350  0.19708  0.04913  1.0000
  H   H5        1.0  0.33137  0.08231  0.42644  1.0000
  Fe  Fe8       1.0  0.28710  0.05884  0.05496  1.0000
  S   S14       1.0  0.23768  0.06677  0.05369  1.0000
  S   S15       1.0  0.31961  0.06393  0.09279  1.0000
  Fe  Fe9       1.0  0.22984  0.04242  0.04920  1.0000
  S   S16       1.0  0.19071  0.03100  0.07238  1.0000
  H   H6        1.0  0.39471  0.18930  0.50194  1.0000
  S   S17       1.0  0.27849  0.03434  0.05469  1.0000
  H   H7        1.0  0.38892  0.05197  0.05443  1.0000
  Fe  Fe10      1.0  0.13949  0.99534  0.31725  1.0000
  S   S18       1.0  0.17029  0.98734  0.27779  1.0000
  S   S19       1.0  0.15536  0.99361  0.36812  1.0000
  Fe  Fe11      1.0  0.08541  0.00221  0.27357  1.0000
  S   S20       1.0  0.03706  0.01325  0.27316  1.0000
  Fe  Fe12      1.0  0.14951  0.00745  0.24933  1.0000
  S   S21       1.0  0.18241  0.02171  0.22227  1.0000
  S   S22       1.0  0.12141  0.01634  0.29025  1.0000
  S   S23       1.0  0.48885  0.12770  0.35138  1.0000
  H   H8        1.0  0.28016  0.04896  0.38708  1.0000
  C   C3        1.0  0.18858  0.02850  0.11407  1.0000
  C   C4        1.0  0.16501  0.02080  0.12814  1.0000
  C   C5        1.0  0.16263  0.01873  0.16127  1.0000
  C   C6        1.0  0.18379  0.02441  0.18058  1.0000
  C   C7        1.0  0.20737  0.03207  0.16649  1.0000
  C   C8        1.0  0.20981  0.03410  0.13339  1.0000
  H   H9        1.0  0.14844  0.01649  0.11334  1.0000
  H   H10       1.0  0.14431  0.01288  0.17186  1.0000
  H   H11       1.0  0.22388  0.03645  0.18126  1.0000
  H   H12       1.0  0.22804  0.04004  0.12284  1.0000
  C   C9        1.0  0.18248  0.03362  0.42282  1.0000
  C   C10       1.0  0.17203  0.03597  0.39168  1.0000
  C   C11       1.0  0.16478  0.02375  0.37415  1.0000
  C   C12       1.0  0.16735  0.00909  0.38789  1.0000
  C   C13       1.0  0.17800  0.00674  0.41894  1.0000
  C   C14       1.0  0.18578  0.01892  0.43627  1.0000
  H   H13       1.0  0.16938  0.04731  0.38109  1.0000
  H   H14       1.0  0.15659  0.02572  0.35029  1.0000
  H   H15       1.0  0.18006  0.99543  0.42975  1.0000
  H   H16       1.0  0.19372  0.01697  0.46024  1.0000
  S   S24       1.0  0.11229  0.99508  0.23032  1.0000
  C   C15       1.0  0.09218  0.00950  0.39983  1.0000
  H   H17       1.0  0.38077  0.12140  0.17020  1.0000
  C   C16       1.0  0.47451  0.17822  0.38035  1.0000
  C   C17       1.0  0.37649  0.08651  0.47795  1.0000
  C   C18       1.0  0.36144  0.10076  0.48189  1.0000
  C   C19       1.0  0.46677  0.19983  0.49914  1.0000
  H   H18       1.0  0.23198  0.09188  0.46378  1.0000
  H   H19       1.0  0.05930  0.98049  0.37025  1.0000
  C   C20       1.0  0.36199  0.07352  0.48679  1.0000
  C   C21       1.0  0.41878  0.18869  0.49714  1.0000
  H   H20       1.0  0.49677  0.18240  0.37909  1.0000
  H   H21       1.0  0.32984  0.05878  0.39735  1.0000
  C   C22       1.0  0.09361  0.02509  0.39489  1.0000
  H   H22       1.0  0.50735  0.12998  0.28659  1.0000
  H   H23       1.0  0.34107  0.03341  0.07154  1.0000
  H   H24       1.0  0.08103  0.04453  0.36414  1.0000
  H   H25       1.0  0.23319  0.06249  0.40645  1.0000
  C   C23       1.0  0.38872  0.09848  0.07277  1.0000
  C   C24       1.0  0.38911  0.08987  0.10128  1.0000
  C   C25       1.0  0.36858  0.07882  0.10660  1.0000
  C   C26       1.0  0.34744  0.07643  0.08357  1.0000
  C   C27       1.0  0.34799  0.08453  0.05449  1.0000
  C   C28       1.0  0.36865  0.09552  0.04910  1.0000
  H   H26       1.0  0.40462  0.09200  0.11957  1.0000
  H   H27       1.0  0.36843  0.07248  0.12906  1.0000
  H   H28       1.0  0.33189  0.08271  0.03652  1.0000
  H   H29       1.0  0.05275  0.02997  0.32752  1.0000
  C   C29       1.0  0.43865  0.12288  0.25915  1.0000
  C   C30       1.0  0.42356  0.12097  0.28839  1.0000
  C   C31       1.0  0.43868  0.12224  0.31699  1.0000
  C   C32       1.0  0.46895  0.12553  0.31642  1.0000
  C   C33       1.0  0.48394  0.12745  0.28727  1.0000
  C   C34       1.0  0.46892  0.12607  0.25880  1.0000
  H   H30       1.0  0.40017  0.11843  0.28887  1.0000
  H   H31       1.0  0.42695  0.12064  0.33935  1.0000
  C   C35       1.0  0.40327  0.00446  0.04172  1.0000
  H   H32       1.0  0.49237  0.21437  0.04745  1.0000
  H   H33       1.0  0.38285  0.04624  0.09532  1.0000
  C   C36       1.0  0.33178  0.10197  0.49420  1.0000
  C   C37       1.0  0.43935  0.16087  0.36446  1.0000
  S   S25       1.0  0.48984  0.13406  0.17105  1.0000
  H   H34       1.0  0.36843  0.10210  0.02689  1.0000
  H   H35       1.0  0.47508  0.15992  0.05919  1.0000
  H   H36       1.0  0.43470  0.15148  0.35040  1.0000
  H   H37       1.0  0.17258  0.07685  0.02125  1.0000
  C   C38       1.0  0.41076  0.20583  0.03497  1.0000
  H   H38       1.0  0.21019  0.07915  0.44471  1.0000
  H   H39       1.0  0.32005  0.11300  0.49682  1.0000
  S   S26       1.0  0.10156  0.98170  0.30359  1.0000
  H   H40       1.0  0.21943  0.09637  0.42364  1.0000
  C   C39       1.0  0.45221  0.18476  0.40018  1.0000
  C   C40       1.0  0.46805  0.16624  0.36225  1.0000
  C   C41       1.0  0.48086  0.18012  0.08363  1.0000
  C   C42       1.0  0.48236  0.17873  0.02647  1.0000
  H   H41       1.0  0.49874  0.06432  0.01325  1.0000
  C   C43       1.0  0.20727  0.98306  0.20240  1.0000
  H   H42       1.0  0.19952  0.99426  0.19336  1.0000
  C   C44       1.0  0.43570  0.20056  0.50559  1.0000
  H   H43       1.0  0.41994  0.04353  0.07802  1.0000
  H   H44       1.0  0.45701  0.19399  0.41467  1.0000
  C   C45       1.0  0.07934  0.03253  0.36878  1.0000
  C   C46       1.0  0.06241  0.00882  0.35402  1.0000
  H   H45       1.0  0.42081  0.99677  0.03181  1.0000
  Fe  Fe13      1.0  0.21655  0.04808  0.48988  1.0000
  N   N3        1.0  0.38820  0.02840  0.06359  1.0000
  H   H46       1.0  0.05052  0.00256  0.33756  1.0000
  C   C47       1.0  0.35064  0.01156  0.05237  1.0000
  C   C48       1.0  0.42373  0.17913  0.40175  1.0000
  C   C49       1.0  0.37312  0.00118  0.04126  1.0000
  H   H47       1.0  0.07194  0.98211  0.40991  1.0000
  C   C50       1.0  0.48728  0.19410  0.02301  1.0000
  C   C51       1.0  0.23004  0.98147  0.22495  1.0000
  N   N4        1.0  0.32625  0.11002  0.12431  1.0000
  C   C52       1.0  0.34885  0.11828  0.13366  1.0000
  C   C53       1.0  0.31671  0.09849  0.14357  1.0000
  C   C54       1.0  0.36279  0.11493  0.16280  1.0000
  C   C55       1.0  0.33043  0.09474  0.17274  1.0000
  C   C56       1.0  0.35364  0.10305  0.18235  1.0000
  C   C57       1.0  0.31131  0.11400  0.09411  1.0000
  H   H48       1.0  0.35672  0.12732  0.11829  1.0000
  H   H49       1.0  0.29906  0.09179  0.13599  1.0000
  C   C58       1.0  0.48565  0.19549  0.08012  1.0000
  H   H50       1.0  0.32331  0.08536  0.18757  1.0000
  H   H51       1.0  0.36476  0.10031  0.20480  1.0000
  H   H52       1.0  0.29262  0.12289  0.09739  1.0000
  H   H53       1.0  0.32762  0.11816  0.07613  1.0000
  H   H54       1.0  0.30202  0.10399  0.08435  1.0000
  C   C59       1.0  0.35864  0.02520  0.06358  1.0000
  C   C60       1.0  0.48866  0.20250  0.04990  1.0000
  N   N5        1.0  0.25586  0.07946  0.42806  1.0000
  C   C61       1.0  0.28291  0.08521  0.43285  1.0000
  C   C62       1.0  0.25467  0.06689  0.41091  1.0000
  C   C63       1.0  0.30989  0.07791  0.42179  1.0000
  C   C64       1.0  0.28121  0.05923  0.39969  1.0000
  C   C65       1.0  0.30901  0.06473  0.40544  1.0000
  C   C66       1.0  0.22798  0.08714  0.44053  1.0000
  H   H55       1.0  0.28379  0.09535  0.44591  1.0000
  S   S27       1.0  0.26627  0.05057  0.48475  1.0000
  H   H56       1.0  0.37351  0.06247  0.48375  1.0000
  C   C67       1.0  0.47894  0.17176  0.05671  1.0000
  C   C68       1.0  0.07663  0.98517  0.38467  1.0000
  C   C69       1.0  0.46402  0.17539  0.47658  1.0000
  H   H57       1.0  0.38141  0.15912  0.41157  1.0000
  H   H58       1.0  0.09914  0.97971  0.37796  1.0000
  H   H59       1.0  0.47531  0.16577  0.46576  1.0000
  H   H60       1.0  0.43375  0.02103  0.05135  1.0000
  C   C70       1.0  0.06352  0.02438  0.34826  1.0000
  H   H61       1.0  0.40663  0.18410  0.41765  1.0000
  C   C71       1.0  0.39551  0.04323  0.07329  1.0000
  C   C72       1.0  0.33241  0.07474  0.49916  1.0000
  H   H62       1.0  0.37058  0.17037  0.37620  1.0000
  H   H63       1.0  0.10673  0.03121  0.41055  1.0000
  H   H64       1.0  0.10465  0.00367  0.41924  1.0000
  C   C73       1.0  0.31715  0.08897  0.50262  1.0000
  C   C74       1.0  0.41044  0.01826  0.05279  1.0000
  H   H65       1.0  0.32708  0.00931  0.05106  1.0000
  H   H66       1.0  0.02616  0.98130  0.28085  1.0000
  C   C75       1.0  0.48075  0.18726  0.48449  1.0000
  H   H67       1.0  0.23935  0.99142  0.23331  1.0000
  C   C76       1.0  0.15785  0.06733  0.02379  1.0000
  H   H68       1.0  0.48721  0.20200  0.10086  1.0000
  H   H69       1.0  0.48519  0.16099  0.34675  1.0000
  H   H70       1.0  0.16901  0.98355  0.15644  1.0000
  H   H71       1.0  0.36704  0.99090  0.03120  1.0000
  C   C77       1.0  0.39313  0.21729  0.04956  1.0000
  H   H72       1.0  0.47389  0.07500  0.49127  1.0000
  Fe  Fe14      1.0  0.50112  0.11540  0.13803  1.0000
  H   H73       1.0  0.16779  0.05940  0.04267  1.0000
  H   H74       1.0  0.15946  0.03766  0.01498  1.0000
  H   H75       1.0  0.50481  0.18662  0.47957  1.0000
  H   H76       1.0  0.13489  0.07165  0.03155  1.0000
  H   H77       1.0  0.39216  0.21749  0.07516  1.0000
  H   H78       1.0  0.32137  0.06464  0.50573  1.0000
  C   C78       1.0  0.47864  0.06488  0.50638  1.0000
  S   S28       1.0  0.29265  0.22401  0.75859  1.0000
  S   S29       1.0  0.41026  0.01318  0.62911  1.0000
  C   C79       1.0  0.36047  0.21820  0.70304  1.0000
  S   S30       1.0  0.48995  0.00734  0.89468  1.0000
  N   N6        1.0  0.39698  0.21710  0.98395  1.0000
  H   H79       1.0  0.50713  0.02838  0.94864  1.0000
  S   S31       1.0  0.26799  0.05245  0.56211  1.0000
  Fe  Fe15      1.0  0.24743  0.21633  0.77240  1.0000
  H   H80       1.0  0.20309  0.12748  0.82427  1.0000
  H   H81       1.0  0.40725  0.20630  0.94054  1.0000
  Fe  Fe16      1.0  0.21812  0.04993  0.56197  1.0000
  S   S32       1.0  0.19430  0.04871  0.60978  1.0000
  H   H82       1.0  0.08964  0.10926  0.64568  1.0000
  Fe  Fe17      1.0  0.28273  0.03774  0.00211  1.0000
  C   C80       1.0  0.49918  0.04647  0.98050  1.0000
  S   S33       1.0  0.21832  0.08702  0.97311  1.0000
  Fe  Fe18      1.0  0.13512  0.10801  0.73265  1.0000
  S   S34       1.0  0.09577  0.12400  0.74682  1.0000
  S   S35       1.0  0.14720  0.10763  0.68033  1.0000
  Fe  Fe19      1.0  0.14998  0.09827  0.80136  1.0000
  S   S36       1.0  0.11192  0.11346  0.82073  1.0000
  S   S37       1.0  0.18259  0.08191  0.82931  1.0000
  Fe  Fe20      1.0  0.08397  0.10554  0.78179  1.0000
  S   S38       1.0  0.03823  0.09603  0.79060  1.0000
  Fe  Fe21      1.0  0.12694  0.13068  0.78408  1.0000
  S   S39       1.0  0.12861  0.15519  0.79614  1.0000
  S   S40       1.0  0.12128  0.08899  0.76481  1.0000
  S   S41       1.0  0.16707  0.11602  0.76748  1.0000
  C   C81       1.0  0.15942  0.16561  0.78412  1.0000
  C   C82       1.0  0.15812  0.18112  0.78947  1.0000
  C   C83       1.0  0.18363  0.18933  0.78381  1.0000
  C   C84       1.0  0.21071  0.18200  0.77306  1.0000
  C   C85       1.0  0.21163  0.16664  0.76662  1.0000
  C   C86       1.0  0.18608  0.15849  0.77195  1.0000
  H   H83       1.0  0.13756  0.18671  0.79888  1.0000
  H   H84       1.0  0.23248  0.16092  0.75822  1.0000
  H   H85       1.0  0.18738  0.14661  0.76759  1.0000
  C   C87       1.0  0.19258  0.08374  0.86912  1.0000
  C   C88       1.0  0.18092  0.09592  0.88652  1.0000
  C   C89       1.0  0.18958  0.09698  0.91813  1.0000
  C   C90       1.0  0.20951  0.08574  0.93277  1.0000
  C   C91       1.0  0.22087  0.07348  0.91548  1.0000
  C   C92       1.0  0.21256  0.07255  0.88376  1.0000
  H   H86       1.0  0.16512  0.10445  0.87565  1.0000
  H   H87       1.0  0.18049  0.10643  0.93145  1.0000
  H   H88       1.0  0.23613  0.06473  0.92650  1.0000
  H   H89       1.0  0.22163  0.06307  0.87049  1.0000
  C   C93       1.0  0.17879  0.06501  0.62830  1.0000
  C   C94       1.0  0.16948  0.06380  0.66017  1.0000
  C   C95       1.0  0.15918  0.07673  0.67635  1.0000
  C   C96       1.0  0.15786  0.09095  0.66059  1.0000
  C   C97       1.0  0.16616  0.09209  0.62845  1.0000
  C   C98       1.0  0.17670  0.07919  0.61237  1.0000
  H   H90       1.0  0.17094  0.05285  0.67258  1.0000
  H   H91       1.0  0.15286  0.07571  0.70111  1.0000
  H   H92       1.0  0.16495  0.10305  0.61606  1.0000
  H   H93       1.0  0.18329  0.08020  0.58770  1.0000
  C   C99       1.0  0.41110  0.01805  0.96988  1.0000
  C   C100      1.0  0.19189  0.17455  0.85915  1.0000
  C   C101      1.0  0.34754  0.01959  0.97129  1.0000
  C   C102      1.0  0.36436  0.00737  0.95798  1.0000
  C   C103      1.0  0.39608  0.00659  0.95726  1.0000
  H   H94       1.0  0.35280  0.99832  0.94881  1.0000
  H   H95       1.0  0.40885  0.99691  0.94777  1.0000
  C   C104      1.0  0.38335  0.01491  0.59893  1.0000
  C   C105      1.0  0.35530  0.02284  0.60436  1.0000
  C   C106      1.0  0.33272  0.02363  0.58144  1.0000
  C   C107      1.0  0.33828  0.01668  0.55277  1.0000
  C   C108      1.0  0.36665  0.00914  0.54697  1.0000
  C   C109      1.0  0.38902  0.00813  0.57010  1.0000
  H   H96       1.0  0.35074  0.02808  0.62666  1.0000
  H   H97       1.0  0.31074  0.02917  0.58645  1.0000
  H   H98       1.0  0.35136  0.99413  0.64436  1.0000
  H   H99       1.0  0.41048  0.00202  0.56558  1.0000
  H   H100      1.0  0.15413  0.04099  0.91371  1.0000
  C   C110      1.0  0.07178  0.11520  0.66036  1.0000
  N   N7        1.0  0.46067  0.04388  0.53702  1.0000
  C   C111      1.0  0.22138  0.17734  0.85027  1.0000
  H   H101      1.0  0.17600  0.18373  0.86625  1.0000
  H   H102      1.0  0.22854  0.18872  0.85011  1.0000
  C   C112      1.0  0.45495  0.05661  0.51785  1.0000
  H   H103      1.0  0.01327  0.07619  0.73291  1.0000
  C   C113      1.0  0.46223  0.97992  0.77267  1.0000
  C   C114      1.0  0.02500  0.08387  0.71730  1.0000
  N   N8        1.0  0.48947  0.17634  0.56170  1.0000
  H   H104      1.0  0.15842  0.02528  0.96412  1.0000
  C   C115      1.0  0.48973  0.03881  0.54447  1.0000
  N   N9        1.0  0.15631  0.05998  0.99370  1.0000
  H   H105      1.0  0.48928  0.13732  0.52554  1.0000
  H   H106      1.0  0.22236  0.08222  0.71594  1.0000
  H   H107      1.0  0.31845  0.98149  0.54524  1.0000
  C   C116      1.0  0.02473  0.10650  0.68348  1.0000
  H   H108      1.0  0.36237  0.20661  0.71412  1.0000
  H   H109      1.0  0.06902  0.07261  0.72641  1.0000
  C   C117      1.0  0.33839  0.98216  0.59123  1.0000
  C   C118      1.0  0.47772  0.97962  0.74340  1.0000
  C   C119      1.0  0.43576  0.03511  0.54831  1.0000
  H   H110      1.0  0.37936  0.22210  0.93774  1.0000
  C   C120      1.0  0.07125  0.09225  0.69459  1.0000
  N   N10       1.0  0.24690  0.08782  0.62832  1.0000
  C   C121      1.0  0.24865  0.07362  0.64250  1.0000
  C   C122      1.0  0.23642  0.10004  0.64497  1.0000
  C   C123      1.0  0.24033  0.07141  0.67432  1.0000
  C   C124      1.0  0.22785  0.09823  0.67682  1.0000
  C   C125      1.0  0.22989  0.08382  0.69155  1.0000
  C   C126      1.0  0.25497  0.08971  0.59470  1.0000
  H   H111      1.0  0.25556  0.06385  0.62895  1.0000
  H   H112      1.0  0.23386  0.11123  0.63351  1.0000
  H   H113      1.0  0.21848  0.10786  0.68964  1.0000
  H   H114      1.0  0.23772  0.08513  0.58004  1.0000
  H   H115      1.0  0.25657  0.10173  0.58698  1.0000
  H   H116      1.0  0.27729  0.08363  0.58963  1.0000
  S   S42       1.0  0.30946  0.01598  0.52516  1.0000
  C   C127      1.0  0.39428  0.03056  0.98210  1.0000
  C   C128      1.0  0.36257  0.03131  0.98291  1.0000
  H   H117      1.0  0.47695  0.01668  0.82180  1.0000
  H   H118      1.0  0.15920  0.15807  0.86281  1.0000
  C   C129      1.0  0.46277  0.16993  0.55877  1.0000
  C   C130      1.0  0.15727  0.04458  0.99319  1.0000
  Fe  Fe22      1.0  0.47699  0.99945  0.94365  1.0000
  C   C131      1.0  0.36343  0.98275  0.64223  1.0000
  H   H119      1.0  0.15219  0.08089  0.96667  1.0000
  C   C132      1.0  0.18252  0.16001  0.85709  1.0000
  H   H120      1.0  0.34978  0.04081  0.99303  1.0000
  Fe  Fe23      1.0  0.45137  0.99682  0.62361  1.0000
  S   S43       1.0  0.45818  0.97967  0.83730  1.0000
  H   H121      1.0  0.41855  0.22524  0.94247  1.0000
  S   S44       1.0  0.24479  0.19095  0.77117  1.0000
  C   C133      1.0  0.24124  0.16556  0.83996  1.0000
  H   H122      1.0  0.24086  0.06009  0.68513  1.0000
  H   H123      1.0  0.44005  0.03014  0.57262  1.0000
  C   C134      1.0  0.47819  0.97827  0.80107  1.0000
  H   H124      1.0  0.44094  0.15098  0.54239  1.0000
  C   C135      1.0  0.48928  0.14824  0.53581  1.0000
  Fe  Fe24      1.0  0.27132  0.03436  0.52695  1.0000
  N   N11       1.0  0.20200  0.14858  0.84637  1.0000
  C   C136      1.0  0.33746  0.97758  0.56014  1.0000
  H   H125      1.0  0.36442  0.21774  0.67709  1.0000
  H   H126      1.0  0.24661  0.14209  0.82978  1.0000
  C   C137      1.0  0.15198  0.06198  0.93712  1.0000
  H   H127      1.0  0.48102  0.17221  0.00570  1.0000
  H   H128      1.0  0.46529  0.98139  0.72166  1.0000
  S   S45       1.0  0.46632  0.97651  0.92926  1.0000
  C   C138      1.0  0.50925  0.97742  0.74243  1.0000
  S   S46       1.0  0.22195  0.03035  0.52965  1.0000
  Fe  Fe25      1.0  0.48373  0.98382  0.88112  1.0000
  S   S47       1.0  0.45060  0.01619  0.97418  1.0000
  C   C139      1.0  0.15414  0.04629  0.93625  1.0000
  H   H129      1.0  0.18272  0.20115  0.78894  1.0000
  C   C140      1.0  0.23120  0.15112  0.83840  1.0000
  C   C141      1.0  0.46224  0.15583  0.54565  1.0000
  H   H130      1.0  0.16714  0.13390  0.84012  1.0000
  C   C142      1.0  0.15658  0.03750  0.96446  1.0000
  H   H131      1.0  0.37104  0.00371  0.52485  1.0000
  C   C143      1.0  0.19186  0.13340  0.84438  1.0000
  C   C144      1.0  0.40070  0.21765  0.94947  1.0000
  S   S48       1.0  0.30802  0.01940  0.97489  1.0000
  H   H132      1.0  0.15031  0.06893  0.91530  1.0000
  H   H133      1.0  0.05661  0.12230  0.64407  1.0000
  H   H134      1.0  0.26384  0.16780  0.83188  1.0000
  N   N12       1.0  0.36298  0.97797  0.60962  1.0000
  S   S49       1.0  0.46561  0.98601  0.57860  1.0000
  H   H135      1.0  0.19705  0.12665  0.86666  1.0000
  C   C145      1.0  0.15305  0.06868  0.96624  1.0000
  C   C146      1.0  0.49470  0.01526  0.80396  1.0000
  H   H136      1.0  0.33684  0.22318  0.70609  1.0000
  H   H137      1.0  0.44160  0.17587  0.56591  1.0000
  C   C147      1.0  0.05632  0.08189  0.71373  1.0000
  H   H138      1.0  0.43785  0.98179  0.77326  1.0000
  Fe  Fe26      1.0  0.25889  0.06832  0.52022  1.0000
  S   S50       1.0  0.20865  0.06737  0.52253  1.0000
  C   C148      1.0  0.48746  0.01594  0.77197  1.0000
  N   N13       1.0  0.05542  0.10429  0.67954  1.0000
  H   H139      1.0  0.08289  0.12266  0.67603  1.0000
  H   H140      1.0  0.43315  0.02582  0.53226  1.0000
  H   H141      1.0  0.41401  0.04225  0.54945  1.0000
  H   H142      1.0  0.47504  0.04791  0.97625  1.0000
  H   H143      1.0  0.49109  0.18904  0.60270  1.0000
  Fe  Fe27      1.0  0.24385  0.06752  0.00060  1.0000
  H   H144      1.0  0.31975  0.98951  0.60012  1.0000
  H   H145      1.0  0.50480  0.01325  0.72446  1.0000
  C   C149      1.0  0.51030  0.01344  0.74932  1.0000
  Fe  Fe28      1.0  0.50460  0.98120  0.66018  1.0000
  S   S51       1.0  0.49067  0.20266  0.98491  1.0000
  H   H146      1.0  0.09563  0.09070  0.69217  1.0000
  H   H147      1.0  0.40578  0.03951  0.99172  1.0000
  H   H148      1.0  0.01220  0.11632  0.67256  1.0000
  H   H149      1.0  0.49437  0.02850  0.55899  1.0000
  H   H150      1.0  0.38696  0.98376  0.64990  1.0000
  S   S52       1.0  0.27911  0.09066  0.51520  1.0000
  S   S53       1.0  0.49727  0.00382  0.63425  1.0000
  H   H151      1.0  0.43198  0.06048  0.51122  1.0000
  S   S54       1.0  0.29429  0.06183  0.00242  1.0000
  S   S55       1.0  0.23293  0.04361  0.99606  1.0000
  H   H152      1.0  0.42473  0.21026  0.51684  1.0000
  H   H153      1.0  0.46898  0.19831  0.57070  1.0000
  H   H154      1.0  0.46408  0.01788  0.76481  1.0000
  C   C150      1.0  0.48966  0.19085  0.57664  1.0000
  H   H155      1.0  0.01801  0.12523  0.75958  1.0000
  C   C151      1.0  0.41262  0.20597  0.00194  1.0000
  H   H156      1.0  0.50904  0.19713  0.56788  1.0000
  H   H157      1.0  0.42716  0.19729  0.99081  1.0000
  C   C152      1.0  0.50832  0.05996  0.51437  1.0000
  S   S56       1.0  0.48979  0.21388  0.50954  1.0000
  H   H158      1.0  0.41363  0.22599  0.67939  1.0000
  H   H159      1.0  0.30697  0.31163  0.20709  1.0000
  H   H160      1.0  0.35041  0.25582  0.28734  1.0000
  C   C153      1.0  0.46910  0.30885  0.39573  1.0000
  H   H161      1.0  0.26825  0.45798  0.11041  1.0000
  C   C154      1.0  0.23323  0.46776  0.48741  1.0000
  H   H162      1.0  0.41702  0.27498  0.17720  1.0000
  Fe  Fe29      1.0  0.45149  0.27915  0.28324  1.0000
  S   S57       1.0  0.44089  0.30371  0.27376  1.0000
  C   C155      1.0  0.32841  0.30487  0.20537  1.0000
  H   H163      1.0  0.47451  0.28546  0.38369  1.0000
  S   S58       1.0  0.04800  0.33961  0.45595  1.0000
  H   H164      1.0  0.46086  0.31159  0.11576  1.0000
  Fe  Fe30      1.0  0.47735  0.30135  0.23624  1.0000
  H   H165      1.0  0.03606  0.40671  0.47816  1.0000
  C   C156      1.0  0.31324  0.46854  0.45860  1.0000
  C   C157      1.0  0.37746  0.31371  0.36005  1.0000
  H   H166      1.0  0.05469  0.35553  0.20698  1.0000
  S   S59       1.0  0.05245  0.31197  0.13676  1.0000
  H   H167      1.0  0.40985  0.28672  0.38976  1.0000
  H   H168      1.0  0.46825  0.29382  0.07194  1.0000
  C   C158      1.0  0.47018  0.29700  0.45964  1.0000
  S   S60       1.0  0.35245  0.44487  0.29384  1.0000
  H   H169      1.0  0.30257  0.32506  0.35410  1.0000
  C   C159      1.0  0.48288  0.27957  0.15891  1.0000
  S   S61       1.0  0.34257  0.45191  0.21751  1.0000
  C   C160      1.0  0.41216  0.27823  0.20189  1.0000
  Fe  Fe31      1.0  0.32303  0.43728  0.25610  1.0000
  S   S62       1.0  0.31728  0.41299  0.24448  1.0000
  H   H170      1.0  0.46352  0.33053  0.41638  1.0000
  S   S63       1.0  0.46850  0.31747  0.35653  1.0000
  S   S64       1.0  0.28499  0.45455  0.26544  1.0000
  N   N14       1.0  0.26141  0.46408  0.46983  1.0000
  Fe  Fe32      1.0  0.23464  0.31681  0.28380  1.0000
  S   S65       1.0  0.22164  0.32691  0.33044  1.0000
  S   S66       1.0  0.27089  0.29701  0.27909  1.0000
  Fe  Fe33      1.0  0.18140  0.33494  0.24921  1.0000
  S   S67       1.0  0.16559  0.34635  0.29331  1.0000
  S   S68       1.0  0.15509  0.34391  0.20552  1.0000
  Fe  Fe34      1.0  0.21483  0.34884  0.30118  1.0000
  S   S69       1.0  0.22659  0.37149  0.31778  1.0000
  Fe  Fe35      1.0  0.17335  0.32369  0.31847  1.0000
  S   S70       1.0  0.13699  0.31264  0.34826  1.0000
  S   S71       1.0  0.23049  0.33899  0.25527  1.0000
  S   S72       1.0  0.18661  0.31197  0.27363  1.0000
  C   C161      1.0  0.29412  0.40113  0.26699  1.0000
  C   C162      1.0  0.27788  0.40611  0.29363  1.0000
  C   C163      1.0  0.25782  0.39674  0.30942  1.0000
  C   C164      1.0  0.25374  0.38237  0.29865  1.0000
  C   C165      1.0  0.27034  0.37729  0.27232  1.0000
  C   C166      1.0  0.29055  0.38662  0.25667  1.0000
  H   H171      1.0  0.28047  0.41726  0.30179  1.0000
  H   H172      1.0  0.24510  0.40073  0.32984  1.0000
  H   H173      1.0  0.26749  0.36625  0.26388  1.0000
  H   H174      1.0  0.30308  0.38269  0.23610  1.0000
  C   C167      1.0  0.08249  0.32071  0.15369  1.0000
  C   C168      1.0  0.08717  0.33589  0.14679  1.0000
  C   C169      1.0  0.10993  0.34269  0.16236  1.0000
  C   C170      1.0  0.12802  0.33449  0.18527  1.0000
  C   C171      1.0  0.12359  0.31927  0.19193  1.0000
  C   C172      1.0  0.10109  0.31241  0.17604  1.0000
  H   H175      1.0  0.07312  0.34241  0.12959  1.0000
  H   H176      1.0  0.11327  0.35444  0.15684  1.0000
  H   H177      1.0  0.13756  0.31276  0.20917  1.0000
  H   H178      1.0  0.09778  0.30065  0.18140  1.0000
  C   C173      1.0  0.11228  0.32048  0.37786  1.0000
  C   C174      1.0  0.11393  0.33515  0.38778  1.0000
  C   C175      1.0  0.09409  0.34079  0.41165  1.0000
  C   C176      1.0  0.07224  0.33191  0.42577  1.0000
  C   C177      1.0  0.07037  0.31730  0.41561  1.0000
  C   C178      1.0  0.09033  0.31163  0.39185  1.0000
  H   H179      1.0  0.13077  0.34206  0.37738  1.0000
  H   H180      1.0  0.09593  0.35206  0.41941  1.0000
  H   H181      1.0  0.05377  0.31032  0.42624  1.0000
  H   H182      1.0  0.08890  0.30026  0.38444  1.0000
  C   C179      1.0  0.01736  0.39988  0.47479  1.0000
  H   H183      1.0  0.28792  0.44465  0.40688  1.0000
  H   H184      1.0  0.35746  0.26839  0.21072  1.0000
  H   H185      1.0  0.39927  0.31839  0.36071  1.0000
  H   H186      1.0  0.06076  0.30341  0.25355  1.0000
  S   S73       1.0  0.40754  0.26777  0.28840  1.0000
  S   S74       1.0  0.41948  0.46057  0.23948  1.0000
  S   S75       1.0  0.48782  0.27662  0.24550  1.0000
  Fe  Fe36      1.0  0.30664  0.46987  0.22972  1.0000
  H   H187      1.0  0.29987  0.29727  0.35765  1.0000
  C   C180      1.0  0.28662  0.47113  0.47642  1.0000
  S   S76       1.0  0.46988  0.30798  0.18365  1.0000
  H   H188      1.0  0.48007  0.44663  0.31273  1.0000
  H   H189      1.0  0.31579  0.46293  0.08806  1.0000
  C   C181      1.0  0.47355  0.29483  0.15275  1.0000
  S   S77       1.0  0.48702  0.28114  0.31978  1.0000
  C   C182      1.0  0.40350  0.28835  0.36449  1.0000
  C   C183      1.0  0.09867  0.32063  0.27983  1.0000
  H   H190      1.0  0.46284  0.41656  0.27046  1.0000
  C   C184      1.0  0.22945  0.47215  0.03252  1.0000
  H   H191      1.0  0.07023  0.38692  0.46102  1.0000
  H   H192      1.0  0.36397  0.23775  0.04205  1.0000
  H   H193      1.0  0.44772  0.43516  0.28043  1.0000
  S   S78       1.0  0.02414  0.33464  0.05522  1.0000
  C   C185      1.0  0.30949  0.29008  0.28314  1.0000
  C   C186      1.0  0.33352  0.29936  0.28373  1.0000
  C   C187      1.0  0.36379  0.29287  0.28535  1.0000
  C   C188      1.0  0.37025  0.27706  0.28655  1.0000
  C   C189      1.0  0.34604  0.26798  0.28632  1.0000
  C   C190      1.0  0.31613  0.27440  0.28442  1.0000
  H   H194      1.0  0.32881  0.31150  0.28259  1.0000
  H   H195      1.0  0.38177  0.30017  0.28606  1.0000
  H   H196      1.0  0.29788  0.26708  0.28390  1.0000
  C   C191      1.0  0.48182  0.27453  0.10261  1.0000
  C   C192      1.0  0.30763  0.46335  0.06334  1.0000
  C   C193      1.0  0.26177  0.45455  0.44539  1.0000
  H   H197      1.0  0.21246  0.46113  0.10824  1.0000
  H   H198      1.0  0.35502  0.32398  0.19837  1.0000
  S   S79       1.0  0.49086  0.26135  0.07275  1.0000
  C   C194      1.0  0.47302  0.28722  0.43446  1.0000
  C   C195      1.0  0.47248  0.29313  0.40262  1.0000
  H   H199      1.0  0.47559  0.27515  0.43952  1.0000
  H   H200      1.0  0.21741  0.45877  0.48642  1.0000
  H   H201      1.0  0.33278  0.47460  0.46313  1.0000
  C   C196      1.0  0.32917  0.28917  0.20843  1.0000
  H   H202      1.0  0.18739  0.47033  0.05789  1.0000
  Fe  Fe37      1.0  0.47640  0.30574  0.31011  1.0000
  C   C197      1.0  0.35534  0.31178  0.20080  1.0000
  H   H203      1.0  0.46239  0.43231  0.24154  1.0000
  C   C198      1.0  0.47211  0.28976  0.09615  1.0000
  C   C199      1.0  0.32313  0.31760  0.35662  1.0000
  C   C200      1.0  0.46585  0.42878  0.26687  1.0000
  H   H204      1.0  0.48773  0.27539  0.18258  1.0000
  C   C201      1.0  0.47991  0.46480  0.23587  1.0000
  H   H205      1.0  0.02172  0.33701  0.18698  1.0000
  N   N15       1.0  0.37575  0.29841  0.36152  1.0000
  H   H206      1.0  0.34689  0.28037  0.36253  1.0000
  Fe  Fe38      1.0  0.48535  0.25697  0.02006  1.0000
  H   H207      1.0  0.40364  0.30826  0.19593  1.0000
  Fe  Fe39      1.0  0.36995  0.46080  0.25584  1.0000
  C   C202      1.0  0.35121  0.32354  0.35738  1.0000
  H   H208      1.0  0.35265  0.33567  0.35580  1.0000
  C   C203      1.0  0.46802  0.29983  0.12111  1.0000
  N   N16       1.0  0.20439  0.38935  0.23236  1.0000
  C   C204      1.0  0.20576  0.40205  0.24903  1.0000
  C   C205      1.0  0.22181  0.38726  0.20570  1.0000
  C   C206      1.0  0.22535  0.41297  0.23939  1.0000
  C   C207      1.0  0.24190  0.39788  0.19558  1.0000
  C   C208      1.0  0.24365  0.41080  0.21261  1.0000
  C   C209      1.0  0.18317  0.37823  0.24237  1.0000
  H   H209      1.0  0.19243  0.40354  0.27055  1.0000
  H   H210      1.0  0.22060  0.37719  0.19245  1.0000
  H   H211      1.0  0.22738  0.42273  0.25336  1.0000
  H   H212      1.0  0.25652  0.39596  0.17514  1.0000
  H   H213      1.0  0.25998  0.41885  0.20584  1.0000
  H   H214      1.0  0.16081  0.38127  0.23150  1.0000
  H   H215      1.0  0.19140  0.36675  0.23517  1.0000
  H   H216      1.0  0.18052  0.37753  0.26856  1.0000
  N   N17       1.0  0.07642  0.32535  0.25546  1.0000
  H   H217      1.0  0.12016  0.31622  0.26859  1.0000
  C   C210      1.0  0.07518  0.33975  0.24235  1.0000
  C   C211      1.0  0.03825  0.31915  0.21994  1.0000
  C   C212      1.0  0.05489  0.34429  0.21814  1.0000
  C   C213      1.0  0.03631  0.33391  0.20695  1.0000
  H   H218      1.0  0.09068  0.34764  0.24980  1.0000
  H   H219      1.0  0.43095  0.28454  0.20979  1.0000
  H   H220      1.0  0.42241  0.29315  0.35091  1.0000
  C   C214      1.0  0.50741  0.46944  0.24643  1.0000
  C   C215      1.0  0.28800  0.45170  0.42709  1.0000
  N   N18       1.0  0.49611  0.43197  0.27652  1.0000
  C   C216      1.0  0.32158  0.30199  0.35885  1.0000
  H   H221      1.0  0.40072  0.27717  0.35477  1.0000
  C   C217      1.0  0.25750  0.46182  0.08831  1.0000
  C   C218      1.0  0.05334  0.37838  0.46206  1.0000
  C   C219      1.0  0.34827  0.29250  0.36146  1.0000
  C   C220      1.0  0.05862  0.31503  0.24430  1.0000
  S   S80       1.0  0.28803  0.46725  0.34657  1.0000
  H   H222      1.0  0.02522  0.31081  0.20996  1.0000
  H   H223      1.0  0.46448  0.32030  0.47154  1.0000
  H   H224      1.0  0.31774  0.47303  0.05072  1.0000
  H   H225      1.0  0.41189  0.26789  0.21776  1.0000
  C   C221      1.0  0.37730  0.22861  0.03104  1.0000
  N   N19       1.0  0.02246  0.38518  0.46659  1.0000
  Fe  Fe40      1.0  0.31523  0.46346  0.30091  1.0000
  C   C222      1.0  0.46680  0.31259  0.45249  1.0000
  N   N20       1.0  0.38332  0.28745  0.20351  1.0000
  C   C223      1.0  0.38276  0.30283  0.19966  1.0000
  C   C224      1.0  0.35700  0.28057  0.20748  1.0000
  Fe  Fe41      1.0  0.01681  0.32428  0.10433  1.0000
  H   H226      1.0  0.09062  0.31167  0.29639  1.0000
  C   C225      1.0  0.49961  0.44121  0.30086  1.0000
  S   S81       1.0  0.47103  0.29089  0.50049  1.0000
  C   C226      1.0  0.48693  0.26957  0.13419  1.0000
  H   H227      1.0  0.30836  0.28375  0.21268  1.0000
  C   C227      1.0  0.26095  0.47045  0.03448  1.0000
  C   C228      1.0  0.21187  0.46880  0.05915  1.0000
  C   C229      1.0  0.31384  0.45879  0.43374  1.0000
  C   C230      1.0  0.22592  0.46360  0.08728  1.0000
  H   H228      1.0  0.49459  0.25787  0.13956  1.0000
  N   N21       1.0  0.27456  0.46541  0.06218  1.0000
  C   C231      1.0  0.46621  0.31842  0.42105  1.0000
  H   H229      1.0  0.47967  0.45882  0.21427  1.0000
  H   H230      1.0  0.33384  0.45719  0.41877  1.0000
  H   H231      1.0  0.24150  0.44941  0.43931  1.0000
  H   H232      1.0  0.05919  0.37000  0.48183  1.0000
  H   H233      1.0  0.05523  0.37233  0.43966  1.0000
  S   S82       1.0  0.51135  0.30819  0.27092  1.0000
  H   H234      1.0  0.10332  0.33016  0.29454  1.0000
  H   H235      1.0  0.31590  0.45274  0.05215  1.0000
  C   C232      1.0  0.45281  0.46773  0.25309  1.0000
  C   C233      1.0  0.45344  0.47557  0.28086  1.0000
  H   H236      1.0  0.27445  0.47344  0.01385  1.0000
  S   S83       1.0  0.45066  0.24107  0.00869  1.0000
  H   H237      1.0  0.14653  0.25650  0.72231  1.0000
  H   H238      1.0  0.03255  0.38679  0.54061  1.0000
  H   H239      1.0  0.04991  0.47501  0.70798  1.0000
  S   S84       1.0  0.33529  0.23820  0.82154  1.0000
  N   N22       1.0  0.04401  0.46291  0.75188  1.0000
  N   N23       1.0  0.07242  0.28588  0.87794  1.0000
  H   H240      1.0  0.12600  0.23502  0.75265  1.0000
  H   H241      1.0  0.02898  0.27987  0.71329  1.0000
  C   C234      1.0  0.06663  0.45569  0.81200  1.0000
  S   S85       1.0  0.02166  0.45202  0.94982  1.0000
  C   C235      1.0  0.09787  0.47003  0.95183  1.0000
  H   H242      1.0  0.08356  0.26562  0.90648  1.0000
  C   C236      1.0  0.10211  0.28739  0.87014  1.0000
  C   C237      1.0  0.06468  0.45075  0.75658  1.0000
  H   H243      1.0  0.37150  0.24336  0.60414  1.0000
  H   H244      1.0  0.43556  0.25324  0.75505  1.0000
  S   S86       1.0  0.43869  0.25220  0.53941  1.0000
  S   S87       1.0  0.28500  0.24600  0.67872  1.0000
  C   C238      1.0  0.39399  0.24249  0.76045  1.0000
  S   S88       1.0  0.48223  0.27069  0.58336  1.0000
  Fe  Fe42      1.0  0.44942  0.25280  0.59150  1.0000
  S   S89       1.0  0.42104  0.25594  0.63682  1.0000
  H   H245      1.0  0.04013  0.31719  0.83946  1.0000
  C   C239      1.0  0.42078  0.24575  0.74486  1.0000
  H   H246      1.0  0.11959  0.27877  0.87758  1.0000
  H   H247      1.0  0.33393  0.26305  0.92388  1.0000
  H   H248      1.0  0.07237  0.46661  0.55794  1.0000
  C   C240      1.0  0.07622  0.44692  0.78671  1.0000
  Fe  Fe43      1.0  0.26845  0.24272  0.72987  1.0000
  S   S90       1.0  0.26527  0.25881  0.76966  1.0000
  H   H249      1.0  0.01811  0.26083  0.60563  1.0000
  Fe  Fe44      1.0  0.28827  0.23941  0.79925  1.0000
  C   C241      1.0  0.38223  0.24128  0.86142  1.0000
  Fe  Fe45      1.0  0.22127  0.24846  0.78286  1.0000
  S   S91       1.0  0.17497  0.25775  0.80241  1.0000
  H   H250      1.0  0.05335  0.39074  0.64413  1.0000
  H   H251      1.0  0.03595  0.25434  0.73319  1.0000
  S   S92       1.0  0.48626  0.23369  0.59057  1.0000
  S   S93       1.0  0.47557  0.27166  0.97574  1.0000
  Fe  Fe46      1.0  0.44370  0.25450  0.96261  1.0000
  S   S94       1.0  0.39494  0.25965  0.94643  1.0000
  S   S95       1.0  0.47893  0.24040  0.93628  1.0000
  H   H252      1.0  0.09379  0.32006  0.82489  1.0000
  H   H253      1.0  0.02681  0.29515  0.87309  1.0000
  C   C242      1.0  0.05776  0.30905  0.84860  1.0000
  C   C243      1.0  0.37948  0.22833  0.99807  1.0000
  H   H254      1.0  0.04866  0.27605  0.91655  1.0000
  H   H255      1.0  0.49473  0.30897  0.55006  1.0000
  H   H256      1.0  0.03722  0.47457  0.82685  1.0000
  C   C244      1.0  0.11526  0.47351  0.97735  1.0000
  Fe  Fe47      1.0  0.47415  0.26881  0.53117  1.0000
  S   S96       1.0  0.05790  0.30250  0.76856  1.0000
  H   H257      1.0  0.39585  0.23518  0.84404  1.0000
  C   C245      1.0  0.04516  0.46789  0.80711  1.0000
  H   H258      1.0  0.11165  0.46815  0.00045  1.0000
  C   C246      1.0  0.03405  0.46740  0.71973  1.0000
  H   H259      1.0  0.08120  0.46194  0.95530  1.0000
  Fe  Fe48      1.0  0.02824  0.46393  0.61443  1.0000
  H   H260      1.0  0.23758  0.46915  0.51283  1.0000
  C   C247      1.0  0.14300  0.27007  0.79068  1.0000
  C   C248      1.0  0.14471  0.28255  0.76936  1.0000
  C   C249      1.0  0.11858  0.29237  0.76265  1.0000
  C   C250      1.0  0.09038  0.28969  0.77666  1.0000
  C   C251      1.0  0.08888  0.27716  0.79777  1.0000
  C   C252      1.0  0.11491  0.26754  0.80483  1.0000
  H   H261      1.0  0.16625  0.28482  0.75860  1.0000
  H   H262      1.0  0.12029  0.30211  0.74659  1.0000
  H   H263      1.0  0.06800  0.27519  0.80993  1.0000
  H   H264      1.0  0.11331  0.25808  0.82167  1.0000
  C   C253      1.0  0.35102  0.24442  0.85651  1.0000
  C   C254      1.0  0.33371  0.25227  0.87926  1.0000
  C   C255      1.0  0.34754  0.25694  0.90650  1.0000
  C   C256      1.0  0.37876  0.25385  0.91131  1.0000
  C   C257      1.0  0.39605  0.24598  0.88855  1.0000
  C   C258      1.0  0.42810  0.23954  0.71579  1.0000
  H   H265      1.0  0.30972  0.25481  0.87583  1.0000
  C   C259      1.0  0.07947  0.24322  0.74463  1.0000
  S   S97       1.0  0.03798  0.43916  0.62496  1.0000
  H   H266      1.0  0.06060  0.29033  0.70368  1.0000
  H   H267      1.0  0.07224  0.44393  0.73695  1.0000
  C   C260      1.0  0.38217  0.25437  0.64612  1.0000
  C   C261      1.0  0.37078  0.25941  0.67535  1.0000
  C   C262      1.0  0.34123  0.25685  0.68571  1.0000
  C   C263      1.0  0.32232  0.24960  0.66650  1.0000
  H   H268      1.0  0.42008  0.24357  0.89177  1.0000
  C   C264      1.0  0.36316  0.24726  0.62672  1.0000
  H   H269      1.0  0.38512  0.26509  0.69041  1.0000
  H   H270      1.0  0.33297  0.26062  0.70843  1.0000
  Fe  Fe49      1.0  0.03697  0.46215  0.90323  1.0000
  C   C265      1.0  0.33329  0.24504  0.63675  1.0000
  N   N24       1.0  0.07178  0.26696  0.71507  1.0000
  H   H271      1.0  0.03435  0.40495  0.61782  1.0000
  C   C266      1.0  0.12225  0.25587  0.72444  1.0000
  C   C267      1.0  0.06373  0.27255  0.89650  1.0000
  C   C268      1.0  0.11032  0.29982  0.85138  1.0000
  N   N25       1.0  0.38162  0.22749  0.71760  1.0000
  H   H272      1.0  0.11234  0.46887  0.51644  1.0000
  C   C269      1.0  0.10235  0.26742  0.71123  1.0000
  H   H273      1.0  0.07570  0.45300  0.83545  1.0000
  H   H274      1.0  0.03315  0.45737  0.70525  1.0000
  H   H275      1.0  0.50003  0.31058  0.60819  1.0000
  H   H276      1.0  0.11154  0.27694  0.69860  1.0000
  C   C270      1.0  0.03257  0.39847  0.64079  1.0000
  H   H277      1.0  0.05122  0.26540  0.88138  1.0000
  H   H278      1.0  0.36764  0.23735  0.98381  1.0000
  C   C271      1.0  0.05141  0.27922  0.70111  1.0000
  S   S98       1.0  0.02268  0.44351  0.87484  1.0000
  Fe  Fe50      1.0  0.47826  0.23447  0.53821  1.0000
  H   H279      1.0  0.03169  0.40652  0.66015  1.0000
  H   H280      1.0  0.04814  0.27745  0.67567  1.0000
  H   H281      1.0  0.07023  0.23385  0.75777  1.0000
  C   C272      1.0  0.08794  0.31068  0.84052  1.0000
  C   C273      1.0  0.05036  0.29649  0.86740  1.0000
  C   C274      1.0  0.06021  0.25490  0.73087  1.0000
  H   H282      1.0  0.02721  0.37227  0.61461  1.0000
  H   H283      1.0  0.44834  0.24237  0.70282  1.0000
  H   H284      1.0  0.09251  0.43726  0.79045  1.0000
  H   H285      1.0  0.02060  0.37855  0.95245  1.0000
  H   H286      1.0  0.31871  0.23954  0.62159  1.0000
  Fe  Fe51      1.0  0.48800  0.22812  0.98316  1.0000
  C   C275      1.0  0.03403  0.47138  0.77669  1.0000
  C   C276      1.0  0.11069  0.24381  0.74156  1.0000
  H   H287      1.0  0.13374  0.30071  0.84430  1.0000
  S   S99       1.0  0.22284  0.23394  0.74060  1.0000
  S   S100      1.0  0.01682  0.41756  0.55504  1.0000
  C   C277      1.0  0.09098  0.47340  0.56159  1.0000
  H   H288      1.0  0.01692  0.36658  0.00655  1.0000
  C   C278      1.0  0.01553  0.38551  0.97242  1.0000
  C   C279      1.0  0.11363  0.47467  0.53817  1.0000
  S   S101      1.0  0.07911  0.47359  0.89025  1.0000
  S   S102      1.0  0.24451  0.23011  0.81545  1.0000
  H   H289      1.0  0.38779  0.24729  0.78301  1.0000
  H   H290      1.0  0.01892  0.47369  0.00549  1.0000
  C   C280      1.0  0.40829  0.23025  0.70258  1.0000
  C   C281      1.0  0.37467  0.23323  0.74646  1.0000
  H   H291      1.0  0.35378  0.23093  0.75860  1.0000
  C   C282      1.0  0.01330  0.37871  0.00294  1.0000
  Fe  Fe52      1.0  0.51174  0.25637  0.95202  1.0000
  H   H292      1.0  0.01313  0.42239  0.77185  1.0000
  C   C283      1.0  0.08888  0.56105  0.02984  1.0000
  C   C284      1.0  0.29285  0.53731  0.09375  1.0000
  H   H293      1.0  0.03041  0.63425  0.33236  1.0000
  S   S103      1.0  0.03557  0.57568  0.04825  1.0000
  S   S104      1.0  0.16952  0.56000  0.48452  1.0000
  C   C285      1.0  0.02350  0.56283  0.26088  1.0000
  S   S105      1.0  0.05003  0.55519  0.40803  1.0000
  S   S106      1.0  0.20409  0.51822  0.47186  1.0000
  S   S107      1.0  0.33469  0.48007  0.26560  1.0000
  H   H294      1.0  0.03963  0.56292  0.24130  1.0000
  H   H295      1.0  0.12488  0.58246  0.46042  1.0000
  H   H296      1.0  0.19109  0.55827  0.42257  1.0000
  S   S108      1.0  0.29124  0.51309  0.45614  1.0000
  S   S109      1.0  0.20212  0.51473  0.04705  1.0000
  C   C286      1.0  0.31037  0.49349  0.11087  1.0000
  C   C287      1.0  0.02826  0.63872  0.35643  1.0000
  S   S110      1.0  0.28922  0.50462  0.05282  1.0000
  H   H297      1.0  0.24800  0.51715  0.36691  1.0000
  C   C288      1.0  0.27372  0.52730  0.14456  1.0000
  H   H298      1.0  0.33270  0.49428  0.10061  1.0000
  C   C289      1.0  0.08396  0.55663  0.42792  1.0000
  C   C290      1.0  0.09208  0.57065  0.43674  1.0000
  C   C291      1.0  0.11873  0.57157  0.45358  1.0000
  C   C292      1.0  0.13701  0.55847  0.46224  1.0000
  C   C293      1.0  0.12900  0.54444  0.45326  1.0000
  C   C294      1.0  0.10267  0.54355  0.43582  1.0000
  H   H299      1.0  0.07781  0.58080  0.43067  1.0000
  Fe  Fe53      1.0  0.25130  0.51703  0.48975  1.0000
  H   H300      1.0  0.14292  0.53428  0.45991  1.0000
  H   H301      1.0  0.09639  0.53268  0.42909  1.0000
  C   C295      1.0  0.07410  0.56983  0.05293  1.0000
  C   C296      1.0  0.09033  0.57403  0.07860  1.0000
  C   C297      1.0  0.12141  0.56961  0.08082  1.0000
  C   C298      1.0  0.13620  0.56083  0.05765  1.0000
  C   C299      1.0  0.11977  0.55647  0.03230  1.0000
  H   H302      1.0  0.04081  0.64900  0.35637  1.0000
  H   H303      1.0  0.07907  0.58086  0.09645  1.0000
  H   H304      1.0  0.24352  0.49609  0.43340  1.0000
  C   C300      1.0  0.03410  0.56234  0.29190  1.0000
  H   H305      1.0  0.23061  0.49090  0.14801  1.0000
  C   C301      1.0  0.28900  0.50168  0.42337  1.0000
  H   H306      1.0  0.19148  0.53860  0.11972  1.0000
  C   C302      1.0  0.28477  0.49789  0.09254  1.0000
  C   C303      1.0  0.30723  0.48820  0.14263  1.0000
  H   H307      1.0  0.33420  0.50515  0.40676  1.0000
  H   H308      1.0  0.23395  0.54384  0.08366  1.0000
  H   H309      1.0  0.05703  0.57694  0.50446  1.0000
  C   C304      1.0  0.25297  0.49150  0.13768  1.0000
  H   H310      1.0  0.28584  0.53734  0.06865  1.0000
  S   S111      1.0  0.01788  0.59727  0.38406  1.0000
  C   C305      1.0  0.23524  0.52612  0.37916  1.0000
  S   S112      1.0  0.17525  0.55561  0.06055  1.0000
  H   H311      1.0  0.03791  0.65089  0.02618  1.0000
  H   H312      1.0  0.19231  0.52149  0.36066  1.0000
  H   H313      1.0  0.23627  0.49974  0.09241  1.0000
  C   C306      1.0  0.21453  0.53537  0.12704  1.0000
  H   H314      1.0  0.30080  0.54846  0.09848  1.0000
  H   H315      1.0  0.04624  0.65600  0.46235  1.0000
  H   H316      1.0  0.25489  0.51835  0.18829  1.0000
  N   N26       1.0  0.26780  0.53403  0.11532  1.0000
  H   H317      1.0  0.13401  0.57305  0.10046  1.0000
  Fe  Fe54      1.0  0.24818  0.51453  0.02520  1.0000
  C   C307      1.0  0.20403  0.52857  0.37562  1.0000
  C   C308      1.0  0.22032  0.52825  0.15665  1.0000
  H   H318      1.0  0.01809  0.60890  0.03353  1.0000
  S   S113      1.0  0.02256  0.59777  0.20250  1.0000
  C   C309      1.0  0.27841  0.48740  0.15622  1.0000
  C   C310      1.0  0.06434  0.53856  0.50715  1.0000
  C   C311      1.0  0.26261  0.48456  0.39308  1.0000
  C   C312      1.0  0.23870  0.53828  0.10662  1.0000
  N   N27       1.0  0.23396  0.54619  0.41522  1.0000
  C   C313      1.0  0.24994  0.53512  0.39910  1.0000
  C   C314      1.0  0.20357  0.54911  0.41080  1.0000
  H   H319      1.0  0.20178  0.52570  0.17251  1.0000
  C   C315      1.0  0.18805  0.54021  0.39136  1.0000
  C   C316      1.0  0.25010  0.52426  0.16563  1.0000
  H   H320      1.0  0.05813  0.56196  0.29630  1.0000
  H   H321      1.0  0.27419  0.53305  0.40200  1.0000
  H   H322      1.0  0.23430  0.56003  0.45505  1.0000
  H   H323      1.0  0.03984  0.59899  0.26700  1.0000
  H   H324      1.0  0.16377  0.54233  0.38875  1.0000
  H   H325      1.0  0.32702  0.48511  0.15681  1.0000
  C   C317      1.0  0.24977  0.55538  0.43625  1.0000
  H   H326      1.0  0.03190  0.55520  0.48548  1.0000
  H   H327      1.0  0.01960  0.67724  0.49031  1.0000
  C   C318      1.0  0.26302  0.49443  0.41794  1.0000
  C   C319      1.0  0.31356  0.48969  0.37776  1.0000
  C   C320      1.0  0.31404  0.49952  0.40281  1.0000
  H   H328      1.0  0.29676  0.52381  0.15144  1.0000
  H   H329      1.0  0.03909  0.63016  0.37359  1.0000
  H   H330      1.0  0.26851  0.54845  0.44850  1.0000
  H   H331      1.0  0.31193  0.52843  0.09641  1.0000
  S   S114      1.0  0.02692  0.62826  0.44154  1.0000
  H   H332      1.0  0.48121  0.48645  0.31272  1.0000
  C   C321      1.0  0.48093  0.48038  0.29123  1.0000
  H   H333      1.0  0.43279  0.47793  0.29432  1.0000
  Fe  Fe55      1.0  0.19582  0.53844  0.50113  1.0000
  C   C322      1.0  0.25613  0.49672  0.10611  1.0000
  S   S115      1.0  0.01563  0.60825  0.11064  1.0000
  C   C323      1.0  0.05187  0.55326  0.49996  1.0000
  Fe  Fe56      1.0  0.19464  0.53833  0.02688  1.0000
  H   H334      1.0  0.06970  0.49965  0.03354  1.0000
  H   H335      1.0  0.33335  0.48765  0.36278  1.0000
  C   C324      1.0  0.02292  0.65539  0.46978  1.0000
  H   H336      1.0  0.24279  0.47856  0.38975  1.0000
  H   H337      1.0  0.28597  0.47925  0.49477  1.0000
  C   C325      1.0  0.28803  0.48190  0.37326  1.0000
  H   H338      1.0  0.25915  0.56489  0.42247  1.0000
  H   H339      1.0  0.05362  0.52915  0.49824  1.0000
  C   C326      1.0  0.01541  0.59987  0.26648  1.0000
  H   H340      1.0  0.03516  0.48064  0.03967  1.0000
  Fe  Fe57      1.0  0.01641  0.57539  0.41231  1.0000
  H   H341      1.0  0.13092  0.54979  0.01429  1.0000
  S   S116      1.0  0.27258  0.48267  0.19666  1.0000
  H   H342      1.0  0.02137  0.56257  0.34134  1.0000
  H   H343      1.0  0.22171  0.47845  0.47737  1.0000
  C   C327      1.0  0.01437  0.65405  0.03136  1.0000
  C   C328      1.0  0.50809  0.47726  0.27421  1.0000
  C   C329      1.0  0.02357  0.48417  0.01717  1.0000
  C   C330      1.0  0.01347  0.56271  0.31717  1.0000
  H   H344      1.0  0.21864  0.47614  0.01054  1.0000
  C   C331      1.0  0.06448  0.50097  0.00861  1.0000
  C   C332      1.0  0.01284  0.60989  0.00790  1.0000
  S   S117      1.0  0.24217  0.53896  0.00812  1.0000
  H   H345      1.0  0.07642  0.55781  0.00992  1.0000
  Fe  Fe58      1.0  0.33653  0.57521  0.71577  1.0000
  S   S118      1.0  0.37582  0.56484  0.74448  1.0000
  S   S119      1.0  0.33383  0.56774  0.66547  1.0000
  Fe  Fe59      1.0  0.31691  0.59751  0.76614  1.0000
  S   S120      1.0  0.35459  0.58874  0.79836  1.0000
  S   S121      1.0  0.28549  0.61589  0.78718  1.0000
  Fe  Fe60      1.0  0.38433  0.58857  0.75493  1.0000
  S   S122      1.0  0.42783  0.60041  0.75229  1.0000
  Fe  Fe61      1.0  0.34259  0.56587  0.78540  1.0000
  S   S123      1.0  0.34193  0.54663  0.82250  1.0000
  S   S124      1.0  0.34725  0.59904  0.72345  1.0000
  S   S125      1.0  0.30272  0.57448  0.75603  1.0000
  S   S126      1.0  0.24221  0.70669  0.78616  1.0000
  S   S127      1.0  0.18536  0.70334  0.73879  1.0000
  Fe  Fe62      1.0  0.23583  0.69931  0.73689  1.0000
  S   S128      1.0  0.25946  0.67922  0.71307  1.0000
  H   H346      1.0  0.08546  0.51240  0.53270  1.0000
  C   C333      1.0  0.03551  0.49523  0.96488  1.0000
  Fe  Fe63      1.0  0.23088  0.52392  0.55756  1.0000
  S   S129      1.0  0.23862  0.52713  0.60969  1.0000
  S   S130      1.0  0.18178  0.52540  0.54458  1.0000
  C   C334      1.0  0.30269  0.52859  0.75767  1.0000
  C   C335      1.0  0.08812  0.71613  0.62816  1.0000
  Fe  Fe64      1.0  0.22415  0.53033  0.96366  1.0000
  S   S131      1.0  0.22830  0.54215  0.91501  1.0000
  H   H347      1.0  0.15808  0.49757  0.57482  1.0000
  Fe  Fe65      1.0  0.18753  0.50761  0.00022  1.0000
  C   C336      1.0  0.46444  0.59129  0.75872  1.0000
  C   C337      1.0  0.46885  0.57594  0.76765  1.0000
  S   S132      1.0  0.15637  0.70495  0.82233  1.0000
  H   H348      1.0  0.14670  0.70459  0.58668  1.0000
  C   C338      1.0  0.08819  0.67547  0.94589  1.0000
  H   H349      1.0  0.44958  0.56931  0.77073  1.0000
  H   H350      1.0  0.48658  0.61164  0.74814  1.0000
  C   C339      1.0  0.27697  0.63315  0.76561  1.0000
  C   C340      1.0  0.28754  0.63548  0.73460  1.0000
  C   C341      1.0  0.28126  0.64955  0.71845  1.0000
  C   C342      1.0  0.26463  0.66141  0.73326  1.0000
  C   C343      1.0  0.25368  0.65903  0.76411  1.0000
  C   C344      1.0  0.25983  0.64493  0.78021  1.0000
  H   H351      1.0  0.30059  0.62647  0.72306  1.0000
  H   H352      1.0  0.28971  0.65130  0.69454  1.0000
  H   H353      1.0  0.24078  0.66810  0.77570  1.0000
  H   H354      1.0  0.25150  0.64318  0.80418  1.0000
  C   C345      1.0  0.30991  0.54468  0.84736  1.0000
  C   C346      1.0  0.31297  0.53616  0.87615  1.0000
  C   C347      1.0  0.28808  0.53496  0.89701  1.0000
  C   C348      1.0  0.25981  0.54201  0.88881  1.0000
  C   C349      1.0  0.25662  0.55011  0.85954  1.0000
  C   C350      1.0  0.28159  0.55161  0.83909  1.0000
  H   H355      1.0  0.33481  0.53068  0.88261  1.0000
  H   H356      1.0  0.29081  0.52867  0.91944  1.0000
  H   H357      1.0  0.23478  0.55555  0.85298  1.0000
  H   H358      1.0  0.27887  0.55812  0.81694  1.0000
  C   C351      1.0  0.30519  0.55790  0.64937  1.0000
  C   C352      1.0  0.30903  0.55300  0.61840  1.0000
  C   C353      1.0  0.28805  0.54414  0.60538  1.0000
  C   C354      1.0  0.26310  0.54001  0.62336  1.0000
  C   C355      1.0  0.25881  0.54524  0.65405  1.0000
  C   C356      1.0  0.27970  0.55421  0.66702  1.0000
  H   H359      1.0  0.32863  0.55588  0.60455  1.0000
  H   H360      1.0  0.29164  0.54015  0.58177  1.0000
  H   H361      1.0  0.23942  0.54217  0.66801  1.0000
  H   H362      1.0  0.27640  0.55800  0.69081  1.0000
  H   H363      1.0  0.10132  0.69792  0.85368  1.0000
  C   C357      1.0  0.13932  0.49095  0.57086  1.0000
  N   N28       1.0  0.34121  0.65695  0.76339  1.0000
  C   C358      1.0  0.35013  0.65952  0.73262  1.0000
  C   C359      1.0  0.34971  0.64351  0.77918  1.0000
  C   C360      1.0  0.49825  0.56917  0.77301  1.0000
  C   C361      1.0  0.36765  0.63223  0.76414  1.0000
  H   H364      1.0  0.50138  0.55731  0.78021  1.0000
  C   C362      1.0  0.32406  0.66899  0.78015  1.0000
  H   H365      1.0  0.34323  0.67015  0.72006  1.0000
  H   H366      1.0  0.34245  0.64138  0.80346  1.0000
  H   H367      1.0  0.11781  0.49564  0.61578  1.0000
  H   H368      1.0  0.14470  0.72550  0.95545  1.0000
  H   H369      1.0  0.26203  0.51513  0.69958  1.0000
  H   H370      1.0  0.30808  0.66425  0.79771  1.0000
  H   H371      1.0  0.33976  0.67573  0.79248  1.0000
  H   H372      1.0  0.31024  0.67670  0.76354  1.0000
  C   C363      1.0  0.36788  0.64843  0.71680  1.0000
  C   C364      1.0  0.20437  0.71406  0.63133  1.0000
  C   C365      1.0  0.48976  0.59975  0.75496  1.0000
  S   S133      1.0  0.02812  0.70965  0.51978  1.0000
  N   N29       1.0  0.33057  0.52820  0.70846  1.0000
  H   H373      1.0  0.25799  0.52094  0.75663  1.0000
  S   S134      1.0  0.15648  0.48891  0.00632  1.0000
  C   C366      1.0  0.32879  0.53115  0.73990  1.0000
  N   N30       1.0  0.19372  0.68832  0.64297  1.0000
  H   H374      1.0  0.34751  0.53558  0.75147  1.0000
  C   C367      1.0  0.28080  0.51946  0.71133  1.0000
  C   C368      1.0  0.10999  0.71202  0.97456  1.0000
  C   C369      1.0  0.30726  0.52214  0.69428  1.0000
  C   C370      1.0  0.37682  0.63474  0.73279  1.0000
  Fe  Fe66      1.0  0.19411  0.50499  0.51683  1.0000
  H   H375      1.0  0.15778  0.68042  0.61711  1.0000
  H   H376      1.0  0.22410  0.66987  0.65858  1.0000
  H   H377      1.0  0.14060  0.70788  0.68609  1.0000
  S   S135      1.0  0.02208  0.67936  0.99355  1.0000
  H   H378      1.0  0.11394  0.51969  0.55515  1.0000
  H   H379      1.0  0.13572  0.68389  0.91109  1.0000
  H   H380      1.0  0.10172  0.72024  0.99143  1.0000
  N   N31       1.0  0.04190  0.49355  0.99639  1.0000
  C   C371      1.0  0.08728  0.71635  0.88334  1.0000
  S   S136      1.0  0.23438  0.50579  0.97895  1.0000
  C   C372      1.0  0.27849  0.52280  0.74318  1.0000
  H   H381      1.0  0.12014  0.51730  0.51330  1.0000
  C   C373      1.0  0.05246  0.50420  0.94451  1.0000
  H   H382      1.0  0.39080  0.62605  0.72097  1.0000
  H   H383      1.0  0.30129  0.53113  0.78251  1.0000
  H   H384      1.0  0.35315  0.53330  0.66473  1.0000
  N   N32       1.0  0.29345  0.58048  0.88265  1.0000
  C   C374      1.0  0.28368  0.58947  0.85710  1.0000
  C   C375      1.0  0.27338  0.57620  0.90561  1.0000
  C   C376      1.0  0.25297  0.59395  0.85345  1.0000
  C   C377      1.0  0.24248  0.58047  0.90271  1.0000
  C   C378      1.0  0.23225  0.58932  0.87634  1.0000
  C   C379      1.0  0.32575  0.57585  0.88588  1.0000
  H   H385      1.0  0.29954  0.59306  0.83908  1.0000
  H   H386      1.0  0.28094  0.56891  0.92570  1.0000
  H   H387      1.0  0.24537  0.60085  0.83277  1.0000
  H   H388      1.0  0.22653  0.57642  0.92025  1.0000
  H   H389      1.0  0.20830  0.59244  0.87350  1.0000
  H   H390      1.0  0.33646  0.57370  0.86240  1.0000
  H   H391      1.0  0.33727  0.58478  0.89704  1.0000
  H   H392      1.0  0.32947  0.56508  0.90027  1.0000
  H   H393      1.0  0.12798  0.49257  0.89447  1.0000
  H   H394      1.0  0.10445  0.57225  0.53495  1.0000
  C   C380      1.0  0.35814  0.53089  0.69022  1.0000
  H   H395      1.0  0.07195  0.70791  0.73195  1.0000
  C   C381      1.0  0.09231  0.48107  0.58951  1.0000
  C   C382      1.0  0.10516  0.70784  0.65180  1.0000
  H   H396      1.0  0.37481  0.52093  0.69284  1.0000
  S   S137      1.0  0.24222  0.50217  0.53289  1.0000
  C   C383      1.0  0.14170  0.49082  0.94324  1.0000
  H   H397      1.0  0.10108  0.69618  0.65730  1.0000
  C   C384      1.0  0.13422  0.71495  0.95440  1.0000
  C   C385      1.0  0.08240  0.71822  0.73601  1.0000
  H   H398      1.0  0.04824  0.50492  0.91930  1.0000
  H   H399      1.0  0.10580  0.70915  0.77791  1.0000
  C   C386      1.0  0.08175  0.51012  0.98896  1.0000
  N   N33       1.0  0.10498  0.68877  0.94939  1.0000
  C   C387      1.0  0.18169  0.71559  0.60878  1.0000
  C   C388      1.0  0.16509  0.70335  0.60342  1.0000
  C   C389      1.0  0.17135  0.68973  0.62093  1.0000
  C   C390      1.0  0.13693  0.48403  0.97320  1.0000
  C   C391      1.0  0.12447  0.48721  0.91759  1.0000
  C   C392      1.0  0.10436  0.54800  0.53454  1.0000
  S   S138      1.0  0.24411  0.53859  0.51576  1.0000
  Fe  Fe67      1.0  0.19165  0.71283  0.78641  1.0000
  C   C393      1.0  0.10623  0.70894  0.86087  1.0000
  C   C394      1.0  0.10224  0.47696  0.92195  1.0000
  H   H400      1.0  0.06805  0.71102  0.89333  1.0000
  H   H401      1.0  0.30855  0.51983  0.66932  1.0000
  H   H402      1.0  0.36829  0.54103  0.69818  1.0000
  H   H403      1.0  0.21673  0.72366  0.63641  1.0000
  H   H404      1.0  0.22776  0.69914  0.66584  1.0000
  C   C395      1.0  0.12879  0.69153  0.92955  1.0000
  C   C396      1.0  0.13180  0.71552  0.84816  1.0000
  H   H405      1.0  0.37471  0.65042  0.69233  1.0000
  H   H406      1.0  0.15846  0.49893  0.93988  1.0000
  H   H407      1.0  0.37450  0.62157  0.77663  1.0000
  S   S139      1.0  0.17582  0.53133  0.98167  1.0000
  C   C397      1.0  0.20001  0.67414  0.66169  1.0000
  C   C398      1.0  0.09254  0.56285  0.52775  1.0000
  S   S140      1.0  0.06117  0.70687  0.60754  1.0000
  C   C399      1.0  0.12763  0.71445  0.66814  1.0000
  H   H408      1.0  0.01754  0.48939  0.95528  1.0000
  C   C400      1.0  0.09557  0.69878  0.97174  1.0000
  H   H409      1.0  0.16202  0.70705  0.91535  1.0000
  C   C401      1.0  0.07575  0.51167  0.95670  1.0000
  S   S141      1.0  0.03049  0.72159  0.99981  1.0000
  N   N34       1.0  0.08996  0.53609  0.52472  1.0000
  H   H410      1.0  0.19587  0.67604  0.68723  1.0000
  C   C402      1.0  0.11656  0.48980  0.59410  1.0000
  H   H411      1.0  0.08436  0.66971  0.96939  1.0000
  H   H412      1.0  0.18575  0.66520  0.65481  1.0000
  C   C403      1.0  0.10142  0.71889  0.76166  1.0000
  C   C404      1.0  0.10300  0.52064  0.53167  1.0000
  H   H413      1.0  0.01724  0.48086  0.77311  1.0000
  H   H414      1.0  0.10036  0.66714  0.93054  1.0000
  H   H415      1.0  0.12537  0.54611  0.54732  1.0000
  H   H416      1.0  0.02999  0.60241  0.99546  1.0000
  C   C405      1.0  0.21019  0.70024  0.64821  1.0000
  C   C406      1.0  0.13767  0.48358  0.54264  1.0000
  S   S142      1.0  0.06377  0.48034  0.61880  1.0000
  H   H417      1.0  0.08972  0.51827  0.94104  1.0000
  C   C407      1.0  0.06602  0.56547  0.51052  1.0000
  C   C408      1.0  0.14388  0.70461  0.93188  1.0000
  H   H418      1.0  0.07643  0.69664  0.98714  1.0000
  H   H419      1.0  0.06571  0.67903  0.93557  1.0000
  S   S143      1.0  0.24251  0.72199  0.71297  1.0000
  H   H420      1.0  0.10035  0.51556  0.99853  1.0000
  H   H421      1.0  0.01514  0.62171  0.99901  1.0000
  Fe  Fe68      1.0  0.02545  0.71569  0.57117  1.0000
  S   S144      1.0  0.16484  0.48576  0.51230  1.0000
  H   H422      1.0  0.26115  0.88024  0.34617  1.0000
  H   H423      1.0  0.29324  0.84724  0.39280  1.0000
  S   S145      1.0  0.13680  0.95241  0.24106  1.0000
  H   H424      1.0  0.05876  0.73959  0.25689  1.0000
  Fe  Fe69      1.0  0.23259  0.85020  0.25070  1.0000
  S   S146      1.0  0.23770  0.87272  0.22498  1.0000
  S   S147      1.0  0.19647  0.83506  0.23483  1.0000
  Fe  Fe70      1.0  0.29074  0.85275  0.28891  1.0000
  S   S148      1.0  0.29918  0.87519  0.26578  1.0000
  S   S149      1.0  0.32105  0.84114  0.32743  1.0000
  Fe  Fe71      1.0  0.24925  0.88078  0.27237  1.0000
  S   S150      1.0  0.23626  0.90287  0.29570  1.0000
  Fe  Fe72      1.0  0.28739  0.86518  0.22035  1.0000
  S   S151      1.0  0.31112  0.87123  0.17354  1.0000
  S   S152      1.0  0.24120  0.85880  0.29860  1.0000
  S   S153      1.0  0.28189  0.84216  0.24290  1.0000
  H   H425      1.0  0.46996  0.78871  0.04732  1.0000
  Fe  Fe73      1.0  0.45258  0.86541  0.44042  1.0000
  S   S154      1.0  0.47235  0.84187  0.45367  1.0000
  S   S155      1.0  0.41733  0.87397  0.40343  1.0000
  H   H426      1.0  0.39039  0.82841  0.05446  1.0000
  H   H427      1.0  0.06314  0.73159  0.21876  1.0000
  Fe  Fe74      1.0  0.45737  0.84873  0.06738  1.0000
  H   H428      1.0  0.48461  0.79151  0.00763  1.0000
  S   S156      1.0  0.42634  0.83856  0.10501  1.0000
  C   C409      1.0  0.44641  0.84469  0.33751  1.0000
  H   H429      1.0  0.23347  0.94330  0.23691  1.0000
  S   S157      1.0  0.03138  0.77946  0.26135  1.0000
  C   C410      1.0  0.23967  0.96709  0.23739  1.0000
  C   C411      1.0  0.50050  0.85332  0.35933  1.0000
  H   H430      1.0  0.01981  0.73576  0.18109  1.0000
  S   S158      1.0  0.47682  0.87108  0.06978  1.0000
  C   C412      1.0  0.32653  0.88731  0.40079  1.0000
  S   S159      1.0  0.06287  0.81975  0.28035  1.0000
  H   H431      1.0  0.43584  0.86835  0.32679  1.0000
  C   C413      1.0  0.15924  0.83109  0.24795  1.0000
  C   C414      1.0  0.14497  0.83761  0.27431  1.0000
  C   C415      1.0  0.11563  0.83397  0.28378  1.0000
  C   C416      1.0  0.10003  0.82377  0.26714  1.0000
  C   C417      1.0  0.11415  0.81736  0.24059  1.0000
  C   C418      1.0  0.14351  0.82099  0.23115  1.0000
  H   H432      1.0  0.15661  0.84539  0.28755  1.0000
  H   H433      1.0  0.10508  0.83902  0.30437  1.0000
  H   H434      1.0  0.10258  0.80953  0.22744  1.0000
  H   H435      1.0  0.15418  0.81584  0.21073  1.0000
  C   C419      1.0  0.34489  0.86259  0.15676  1.0000
  C   C420      1.0  0.35726  0.86937  0.12929  1.0000
  C   C421      1.0  0.38273  0.86241  0.11375  1.0000
  C   C422      1.0  0.39582  0.84840  0.12520  1.0000
  C   C423      1.0  0.38339  0.84159  0.15263  1.0000
  C   C424      1.0  0.35829  0.84870  0.16854  1.0000
  H   H436      1.0  0.34702  0.88008  0.11988  1.0000
  H   H437      1.0  0.39190  0.86777  0.09263  1.0000
  H   H438      1.0  0.39337  0.83076  0.16173  1.0000
  H   H439      1.0  0.34904  0.84333  0.18961  1.0000
  C   C425      1.0  0.34906  0.85006  0.34725  1.0000
  C   C426      1.0  0.35577  0.86480  0.33876  1.0000
  C   C427      1.0  0.37707  0.87179  0.35599  1.0000
  C   C428      1.0  0.39192  0.86417  0.38190  1.0000
  C   C429      1.0  0.38572  0.84931  0.39004  1.0000
  C   C430      1.0  0.36435  0.84231  0.37278  1.0000
  H   H440      1.0  0.34428  0.87091  0.31917  1.0000
  H   H441      1.0  0.38174  0.88328  0.34942  1.0000
  H   H442      1.0  0.39706  0.84328  0.40985  1.0000
  H   H443      1.0  0.35940  0.83087  0.37947  1.0000
  C   C431      1.0  0.16340  0.93844  0.25749  1.0000
  C   C432      1.0  0.16889  0.92467  0.24270  1.0000
  C   C433      1.0  0.19115  0.91365  0.25413  1.0000
  C   C434      1.0  0.20791  0.91629  0.28062  1.0000
  C   C435      1.0  0.20230  0.93004  0.29549  1.0000
  C   C436      1.0  0.18019  0.94110  0.28395  1.0000
  H   H444      1.0  0.15597  0.92254  0.22223  1.0000
  H   H445      1.0  0.19521  0.90309  0.24257  1.0000
  H   H446      1.0  0.21512  0.93216  0.31604  1.0000
  H   H447      1.0  0.17619  0.95167  0.29551  1.0000
  C   C437      1.0  0.27962  0.88208  0.36156  1.0000
  H   H448      1.0  0.14750  0.97256  0.18434  1.0000
  N   N35       1.0  0.25959  0.84636  0.14798  1.0000
  C   C438      1.0  0.24161  0.83804  0.16728  1.0000
  C   C439      1.0  0.28826  0.84075  0.14025  1.0000
  C   C440      1.0  0.25252  0.82389  0.18015  1.0000
  C   C441      1.0  0.30005  0.82673  0.15303  1.0000
  C   C442      1.0  0.28205  0.81830  0.17323  1.0000
  C   C443      1.0  0.24759  0.86120  0.13508  1.0000
  H   H449      1.0  0.21881  0.84245  0.17331  1.0000
  H   H450      1.0  0.30256  0.84733  0.12494  1.0000
  H   H451      1.0  0.23835  0.81751  0.19610  1.0000
  H   H452      1.0  0.32322  0.82264  0.14779  1.0000
  H   H453      1.0  0.29102  0.80754  0.18383  1.0000
  H   H454      1.0  0.23675  0.86795  0.15425  1.0000
  H   H455      1.0  0.26583  0.86785  0.12478  1.0000
  H   H456      1.0  0.23078  0.85988  0.11659  1.0000
  H   H457      1.0  0.32193  0.86480  0.41980  1.0000
  C   C444      1.0  0.46766  0.83375  0.35031  1.0000
  C   C445      1.0  0.22672  0.95453  0.22689  1.0000
  H   H458      1.0  0.03161  0.85100  0.29903  1.0000
  C   C446      1.0  0.29251  0.89590  0.35869  1.0000
  S   S160      1.0  0.45140  0.87267  0.49077  1.0000
  H   H459      1.0  0.05680  0.75179  0.22158  1.0000
  H   H460      1.0  0.34545  0.88903  0.41571  1.0000
  H   H461      1.0  0.46291  0.82198  0.35207  1.0000
  S   S161      1.0  0.44663  0.85181  0.01557  1.0000
  H   H462      1.0  0.04998  0.84816  0.19081  1.0000
  H   H463      1.0  0.03428  0.77134  0.42152  1.0000
  C   C447      1.0  0.31618  0.89848  0.37838  1.0000
  S   S162      1.0  0.02083  0.76996  0.17446  1.0000
  C   C448      1.0  0.02354  0.75591  0.11767  1.0000
  C   C449      1.0  0.42953  0.81349  0.04320  1.0000
  H   H464      1.0  0.42486  0.84154  0.32943  1.0000
  H   H465      1.0  0.50379  0.94680  0.03708  1.0000
  C   C450      1.0  0.02970  0.84825  0.20550  1.0000
  C   C451      1.0  0.50739  0.93529  0.04682  1.0000
  N   N36       1.0  0.29030  0.87106  0.38316  1.0000
  C   C452      1.0  0.27624  0.85673  0.38628  1.0000
  Fe  Fe75      1.0  0.49818  0.87957  0.48148  1.0000
  H   H466      1.0  0.46882  0.90555  0.07272  1.0000
  H   H467      1.0  0.02688  0.74473  0.07322  1.0000
  H   H468      1.0  0.43711  0.81246  0.06750  1.0000
  H   H469      1.0  0.28419  0.90448  0.34112  1.0000
  C   C453      1.0  0.03169  0.84891  0.23832  1.0000
  H   H470      1.0  0.45994  0.93226  0.05293  1.0000
  C   C454      1.0  0.47420  0.79734  0.02828  1.0000
  H   H471      1.0  0.32666  0.90907  0.37609  1.0000
  C   C455      1.0  0.45274  0.85985  0.33603  1.0000
  S   S163      1.0  0.50284  0.83618  0.05831  1.0000
  C   C456      1.0  0.20394  0.95657  0.20434  1.0000
  C   C457      1.0  0.31321  0.87358  0.40289  1.0000
  C   C458      1.0  0.48283  0.92713  0.05557  1.0000
  N   N37       1.0  0.44610  0.80637  0.01994  1.0000
  H   H472      1.0  0.19309  0.94681  0.19725  1.0000
  H   H473      1.0  0.05377  0.84935  0.24864  1.0000
  H   H474      1.0  0.25789  0.85739  0.40440  1.0000
  Fe  Fe76      1.0  0.02681  0.80478  0.26392  1.0000
  H   H475      1.0  0.26680  0.85387  0.36342  1.0000
  H   H476      1.0  0.48071  0.88540  0.32276  1.0000
  S   S164      1.0  0.49792  0.87428  0.43029  1.0000
  Fe  Fe77      1.0  0.46984  0.87330  0.01736  1.0000
  C   C459      1.0  0.40302  0.82252  0.03594  1.0000
  N   N38       1.0  0.47941  0.86399  0.34707  1.0000
  H   H477      1.0  0.04725  0.75347  0.12280  1.0000
  C   C460      1.0  0.48780  0.91211  0.06661  1.0000
  H   H478      1.0  0.49096  0.80485  0.03645  1.0000
  H   H479      1.0  0.46896  0.88581  0.36397  1.0000
  C   C461      1.0  0.05083  0.74070  0.23208  1.0000
  C   C462      1.0  0.48463  0.88005  0.34673  1.0000
  H   H480      1.0  0.01860  0.77627  0.36563  1.0000
  H   H481      1.0  0.17018  0.96343  0.15388  1.0000
  C   C463      1.0  0.01868  0.76425  0.41146  1.0000
  S   S165      1.0  0.01740  0.75029  0.47107  1.0000
  H   H482      1.0  0.25673  0.96571  0.25554  1.0000
  C   C464      1.0  0.49497  0.83806  0.36115  1.0000
  N   N39       1.0  0.19448  0.97071  0.19244  1.0000
  H   H483      1.0  0.50813  0.88179  0.35346  1.0000
  C   C465      1.0  0.16907  0.97268  0.17062  1.0000
  Fe  Fe78      1.0  0.13121  0.97549  0.26179  1.0000
  Fe  Fe79      1.0  0.47469  0.84965  0.50380  1.0000
  N   N40       1.0  0.01810  0.73981  0.23035  1.0000
  C   C466      1.0  0.01205  0.75092  0.08944  1.0000
  H   H484      1.0  0.51169  0.82969  0.37135  1.0000
  C   C467      1.0  0.36679  0.74192  0.73958  1.0000
  Fe  Fe80      1.0  0.03113  0.73046  0.94898  1.0000
  H   H485      1.0  0.08929  0.75324  0.70283  1.0000
  H   H486      1.0  0.47160  0.87094  0.56072  1.0000
  C   C468      1.0  0.47255  0.90960  0.98565  1.0000
  C   C469      1.0  0.48479  0.78420  0.59652  1.0000
  H   H487      1.0  0.38926  0.79215  0.64086  1.0000
  C   C470      1.0  0.41085  0.81714  0.98098  1.0000
  C   C471      1.0  0.41768  0.77490  0.66588  1.0000
  C   C472      1.0  0.38659  0.96885  0.59816  1.0000
  H   H488      1.0  0.43712  0.91642  0.57121  1.0000
  H   H489      1.0  0.37953  0.73471  0.72341  1.0000
  C   C473      1.0  0.47089  0.90997  0.53603  1.0000
  S   S166      1.0  0.07278  0.73936  0.92457  1.0000
  C   C474      1.0  0.45982  0.92413  0.97693  1.0000
  H   H490      1.0  0.40913  0.94142  0.87523  1.0000
  C   C475      1.0  0.13786  0.72978  0.85762  1.0000
  N   N41       1.0  0.46170  0.78130  0.62075  1.0000
  Fe  Fe81      1.0  0.48496  0.79646  0.78944  1.0000
  S   S167      1.0  0.48422  0.77142  0.80002  1.0000
  H   H491      1.0  0.43086  0.82918  0.60942  1.0000
  H   H492      1.0  0.46838  0.94706  0.96321  1.0000
  Fe  Fe82      1.0  0.45733  0.77127  0.75514  1.0000
  S   S168      1.0  0.41994  0.75584  0.74361  1.0000
  H   H493      1.0  0.48820  0.95255  0.86690  1.0000
  S   S169      1.0  0.45544  0.79659  0.74602  1.0000
  Fe  Fe83      1.0  0.47521  0.96484  0.60889  1.0000
  C   C476      1.0  0.50980  0.93305  0.97036  1.0000
  S   S170      1.0  0.45557  0.83817  0.54891  1.0000
  H   H494      1.0  0.14566  0.75821  0.73255  1.0000
  N   N42       1.0  0.11043  0.74440  0.74539  1.0000
  C   C477      1.0  0.49726  0.93627  0.55089  1.0000
  H   H495      1.0  0.47089  0.84033  0.86557  1.0000
  S   S171      1.0  0.28046  0.74617  0.77739  1.0000
  C   C478      1.0  0.45754  0.91941  0.55899  1.0000
  C   C479      1.0  0.11607  0.73782  0.63767  1.0000
  H   H496      1.0  0.13471  0.75846  0.77376  1.0000
  H   H497      1.0  0.42842  0.79739  0.60028  1.0000
  H   H498      1.0  0.40074  0.77247  0.68387  1.0000
  H   H499      1.0  0.47500  0.90189  0.91584  1.0000
  H   H500      1.0  0.12443  0.74796  0.88823  1.0000
  Fe  Fe84      1.0  0.49890  0.79241  0.71832  1.0000
  H   H501      1.0  0.50860  0.79594  0.93282  1.0000
  H   H502      1.0  0.12028  0.74946  0.63197  1.0000
  C   C480      1.0  0.49831  0.81376  0.63834  1.0000
  C   C481      1.0  0.11533  0.73214  0.76602  1.0000
  H   H503      1.0  0.40586  0.96528  0.61286  1.0000
  H   H504      1.0  0.49304  0.91177  0.63174  1.0000
  C   C482      1.0  0.45315  0.92249  0.89469  1.0000
  C   C483      1.0  0.46813  0.77051  0.64430  1.0000
  C   C484      1.0  0.47813  0.91289  0.90451  1.0000
  H   H505      1.0  0.43285  0.94952  0.84511  1.0000
  H   H506      1.0  0.45050  0.80272  0.97052  1.0000
  S   S172      1.0  0.44867  0.89521  0.99520  1.0000
  S   S173      1.0  0.45533  0.94311  0.59796  1.0000
  H   H507      1.0  0.43550  0.92635  0.97633  1.0000
  C   C485      1.0  0.48524  0.94141  0.87749  1.0000
  H   H508      1.0  0.32572  0.73058  0.73557  1.0000
  C   C486      1.0  0.38109  0.75347  0.75349  1.0000
  H   H509      1.0  0.47018  0.88817  0.62065  1.0000
  C   C487      1.0  0.50390  0.90405  0.61511  1.0000
  C   C488      1.0  0.31926  0.74867  0.76747  1.0000
  C   C489      1.0  0.33354  0.76025  0.78129  1.0000
  C   C490      1.0  0.36414  0.76266  0.77438  1.0000
  C   C491      1.0  0.47897  0.83058  0.88023  1.0000
  Fe  Fe85      1.0  0.19213  0.72651  0.71882  1.0000
  H   H510      1.0  0.32082  0.76743  0.79755  1.0000
  H   H511      1.0  0.37460  0.77159  0.78532  1.0000
  C   C492      1.0  0.48441  0.81648  0.86649  1.0000
  C   C493      1.0  0.43358  0.78885  0.61900  1.0000
  H   H512      1.0  0.49047  0.76461  0.64588  1.0000
  H   H513      1.0  0.15756  0.73494  0.84825  1.0000
  C   C494      1.0  0.09390  0.73039  0.89366  1.0000
  C   C495      1.0  0.50396  0.90678  0.98643  1.0000
  C   C496      1.0  0.49098  0.89076  0.60855  1.0000
  S   S174      1.0  0.16162  0.73823  0.68072  1.0000
  C   C497      1.0  0.38646  0.96409  0.56718  1.0000
  C   C498      1.0  0.49504  0.81981  0.93189  1.0000
  H   H514      1.0  0.08068  0.73771  0.60312  1.0000
  C   C499      1.0  0.46740  0.81827  0.63738  1.0000
  C   C500      1.0  0.45489  0.82600  0.61008  1.0000
  C   C501      1.0  0.47308  0.82946  0.58352  1.0000
  H   H515      1.0  0.42980  0.95725  0.88363  1.0000
  C   C502      1.0  0.41129  0.78591  0.64179  1.0000
  H   H516      1.0  0.45303  0.81551  0.65739  1.0000
  H   H517      1.0  0.11071  0.76834  0.74465  1.0000
  C   C503      1.0  0.33619  0.73952  0.74646  1.0000
  N   N43       1.0  0.50387  0.88139  0.58649  1.0000
  C   C504      1.0  0.43081  0.94659  0.87087  1.0000
  C   C505      1.0  0.47839  0.93585  0.96933  1.0000
  S   S175      1.0  0.19607  0.73641  0.76638  1.0000
  H   H518      1.0  0.40432  0.81876  0.95640  1.0000
  C   C506      1.0  0.44613  0.76701  0.66691  1.0000
  H   H519      1.0  0.06356  0.73020  0.69447  1.0000
  C   C507      1.0  0.47095  0.93244  0.56681  1.0000
  C   C508      1.0  0.48406  0.83223  0.91269  1.0000
  H   H520      1.0  0.46078  0.89979  0.53063  1.0000
  H   H521      1.0  0.47988  0.84317  0.92271  1.0000
  H   H522      1.0  0.45117  0.75833  0.68538  1.0000
  N   N44       1.0  0.45696  0.93653  0.88127  1.0000
  C   C509      1.0  0.49771  0.91357  0.52075  1.0000
  S   S176      1.0  0.49981  0.76710  0.72522  1.0000
  C   C510      1.0  0.09204  0.74379  0.72001  1.0000
  C   C511      1.0  0.36177  0.96857  0.54804  1.0000
  H   H523      1.0  0.43076  0.91865  0.89828  1.0000
  Fe  Fe86      1.0  0.24648  0.72978  0.76228  1.0000
  C   C512      1.0  0.49477  0.80398  0.88587  1.0000
  C   C513      1.0  0.51060  0.92684  0.52793  1.0000
  C   C514      1.0  0.48913  0.86793  0.57884  1.0000
  C   C515      1.0  0.11908  0.73712  0.88038  1.0000
  S   S177      1.0  0.47892  0.81533  0.82496  1.0000
  C   C516      1.0  0.12613  0.75802  0.74935  1.0000
  H   H524      1.0  0.13033  0.73247  0.78584  1.0000
  H   H525      1.0  0.49859  0.79303  0.87589  1.0000
  C   C517      1.0  0.09356  0.73120  0.62130  1.0000
  C   C518      1.0  0.07750  0.73077  0.71511  1.0000
  S   S178      1.0  0.50263  0.82121  0.97291  1.0000
  H   H526      1.0  0.47828  0.86273  0.60009  1.0000
  H   H527      1.0  0.40552  0.95703  0.55813  1.0000
  C   C519      1.0  0.50024  0.80567  0.91824  1.0000
  C   C520      1.0  0.13332  0.72947  0.66104  1.0000
  C   C521      1.0  0.50415  0.82540  0.58490  1.0000
  H   H528      1.0  0.47935  0.79511  0.58303  1.0000
  H   H529      1.0  0.36158  0.96517  0.52379  1.0000
  H   H530      1.0  0.37373  0.83172  0.99854  1.0000
  H   H531      1.0  0.50703  0.78499  0.60775  1.0000
  H   H532      1.0  0.35277  0.97449  0.65842  1.0000
  H   H533      1.0  0.48682  0.77499  0.57972  1.0000
  H   H534      1.0  0.50561  0.85910  0.56945  1.0000
  C   C522      1.0  0.43701  0.80804  0.98915  1.0000
  C   C523      1.0  0.50704  0.91781  0.90087  1.0000
  H   H535      1.0  0.50769  0.94632  0.55671  1.0000
  S   S179      1.0  0.45720  0.97528  0.65347  1.0000
  C   C524      1.0  0.39375  0.82440  0.00459  1.0000
  Fe  Fe87      1.0  0.49322  0.84083  0.00616  1.0000
  H   H536      1.0  0.17629  0.72640  0.59628  1.0000
  C   C525      1.0  0.50968  0.97581  0.80010  1.0000
  C   C526      1.0  0.51068  0.93219  0.88745  1.0000
  Fe  Fe88      1.0  0.86632  0.98697  0.27566  1.0000
  H   H537      1.0  0.61728  0.07386  0.36295  1.0000
  C   C527      1.0  0.57634  0.08877  0.36122  1.0000
  Fe  Fe89      1.0  0.81637  0.99564  0.22720  1.0000
  S   S180      1.0  0.77875  0.99309  0.26291  1.0000
  S   S181      1.0  0.81171  0.99958  0.17389  1.0000
  Fe  Fe90      1.0  0.80781  0.00507  0.29494  1.0000
  S   S182      1.0  0.78766  0.02447  0.32365  1.0000
  H   H538      1.0  0.62896  0.07775  0.08085  1.0000
  S   S183      1.0  0.84378  0.00923  0.25765  1.0000
  H   H539      1.0  0.81129  0.05085  0.44752  1.0000
  S   S184      1.0  0.66704  0.04457  0.04588  1.0000
  S   S185      1.0  0.69485  0.07729  0.03517  1.0000
  Fe  Fe91      1.0  0.71039  0.05436  0.05699  1.0000
  S   S186      1.0  0.72496  0.05202  0.10834  1.0000
  C   C528      1.0  0.00364  0.00364  0.27647  1.0000
  C   C529      1.0  0.73063  0.99423  0.11224  1.0000
  H   H540      1.0  0.74356  0.98655  0.09707  1.0000
  C   C530      1.0  0.60373  0.10557  0.40421  1.0000
  H   H541      1.0  0.54686  0.09086  0.03090  1.0000
  S   S187      1.0  0.64054  0.06915  0.45803  1.0000
  H   H542      1.0  0.88677  0.01606  0.35867  1.0000
  H   H543      1.0  0.59924  0.04382  0.02075  1.0000
  H   H544      1.0  0.60529  0.08781  0.12990  1.0000
  C   C531      1.0  0.78979  0.01509  0.15588  1.0000
  C   C532      1.0  0.78760  0.01622  0.12274  1.0000
  C   C533      1.0  0.76849  0.02773  0.10766  1.0000
  C   C534      1.0  0.75156  0.03826  0.12566  1.0000
  C   C535      1.0  0.75456  0.03741  0.15872  1.0000
  C   C536      1.0  0.77348  0.02585  0.17381  1.0000
  H   H545      1.0  0.80033  0.00801  0.10868  1.0000
  H   H546      1.0  0.76671  0.02839  0.08219  1.0000
  H   H547      1.0  0.74166  0.04557  0.17280  1.0000
  H   H548      1.0  0.77507  0.02515  0.19932  1.0000
  C   C537      1.0  0.77608  0.02213  0.36371  1.0000
  C   C538      1.0  0.78426  0.00889  0.38182  1.0000
  C   C539      1.0  0.77831  0.00822  0.41463  1.0000
  C   C540      1.0  0.76382  0.02068  0.42952  1.0000
  C   C541      1.0  0.75433  0.03364  0.41117  1.0000
  C   C542      1.0  0.76062  0.03438  0.37844  1.0000
  H   H549      1.0  0.79599  0.99935  0.37074  1.0000
  H   H550      1.0  0.78559  0.99811  0.42864  1.0000
  H   H551      1.0  0.74310  0.04330  0.42234  1.0000
  H   H552      1.0  0.75414  0.04465  0.36458  1.0000
  H   H553      1.0  0.59670  0.11719  0.05678  1.0000
  C   C543      1.0  0.97536  0.01206  0.27543  1.0000
  C   C544      1.0  0.94827  0.00483  0.27764  1.0000
  C   C545      1.0  0.94927  0.98908  0.28103  1.0000
  H   H554      1.0  0.72159  0.01771  0.05652  1.0000
  H   H555      1.0  0.85224  0.01839  0.33638  1.0000
  H   H556      1.0  0.97443  0.02424  0.27270  1.0000
  H   H557      1.0  0.92668  0.01141  0.27646  1.0000
  H   H558      1.0  0.66341  0.99649  0.45957  1.0000
  N   N45       1.0  0.84841  0.02519  0.38412  1.0000
  S   S188      1.0  0.73525  0.04654  0.01308  1.0000
  H   H559      1.0  0.83270  0.02494  0.46271  1.0000
  H   H560      1.0  0.55773  0.13546  0.15290  1.0000
  C   C546      1.0  0.56373  0.10289  0.48812  1.0000
  C   C547      1.0  0.55881  0.09209  0.46633  1.0000
  C   C548      1.0  0.58222  0.08135  0.45824  1.0000
  C   C549      1.0  0.61060  0.08125  0.47213  1.0000
  C   C550      1.0  0.89114  0.98883  0.18649  1.0000
  H   H561      1.0  0.83700  0.04351  0.35092  1.0000
  C   C551      1.0  0.70890  0.00804  0.06515  1.0000
  H   H562      1.0  0.57853  0.07327  0.44073  1.0000
  C   C552      1.0  0.56262  0.09495  0.10820  1.0000
  C   C553      1.0  0.54614  0.09570  0.08029  1.0000
  C   C554      1.0  0.55957  0.09007  0.05255  1.0000
  C   C555      1.0  0.58947  0.08362  0.05266  1.0000
  C   C556      1.0  0.60586  0.08271  0.08062  1.0000
  C   C557      1.0  0.59243  0.08838  0.10836  1.0000
  H   H563      1.0  0.85725  0.00337  0.36561  1.0000
  S   S189      1.0  0.60580  0.07694  0.01745  1.0000
  C   C558      1.0  0.83466  0.02927  0.43840  1.0000
  C   C559      1.0  0.55177  0.15004  0.05034  1.0000
  C   C560      1.0  0.54912  0.15290  0.08251  1.0000
  H   H564      1.0  0.64176  0.08885  0.40150  1.0000
  C   C561      1.0  0.94161  0.98621  0.20467  1.0000
  N   N46       1.0  0.71169  0.00581  0.09954  1.0000
  C   C562      1.0  0.69982  0.01447  0.15154  1.0000
  H   H565      1.0  0.87234  0.01148  0.17429  1.0000
  H   H566      1.0  0.87044  0.98391  0.18106  1.0000
  C   C563      1.0  0.71896  0.00267  0.16470  1.0000
  S   S190      1.0  0.53568  0.11742  0.49616  1.0000
  S   S191      1.0  0.72638  0.06335  0.48541  1.0000
  H   H567      1.0  0.54360  0.11980  0.42649  1.0000
  Fe  Fe92      1.0  0.73176  0.03834  0.49644  1.0000
  C   C564      1.0  0.73448  0.99247  0.14499  1.0000
  C   C565      1.0  0.84778  0.02008  0.41513  1.0000
  H   H568      1.0  0.85645  0.00864  0.42187  1.0000
  H   H569      1.0  0.54466  0.12981  0.38837  1.0000
  H   H570      1.0  0.61420  0.11165  0.42207  1.0000
  C   C566      1.0  0.82257  0.04384  0.42985  1.0000
  C   C567      1.0  0.94350  0.00180  0.20072  1.0000
  N   N47       1.0  0.56262  0.14300  0.10473  1.0000
  C   C568      1.0  0.91850  0.01098  0.18975  1.0000
  C   C569      1.0  0.00459  0.98792  0.28005  1.0000
  H   H571      1.0  0.53871  0.15356  0.14313  1.0000
  H   H572      1.0  0.53720  0.09210  0.45532  1.0000
  H   H573      1.0  0.55366  0.06052  0.02266  1.0000
  N   N48       1.0  0.91570  0.97991  0.19744  1.0000
  H   H574      1.0  0.71773  0.99792  0.05247  1.0000
  N   N49       1.0  0.57524  0.11013  0.39393  1.0000
  S   S192      1.0  0.76060  0.02014  0.47128  1.0000
  Fe  Fe93      1.0  0.65384  0.06664  0.02037  1.0000
  Fe  Fe94      1.0  0.67667  0.06110  0.49301  1.0000
  H   H575      1.0  0.57415  0.13124  0.41622  1.0000
  C   C570      1.0  0.60554  0.08414  0.37130  1.0000
  C   C571      1.0  0.58013  0.13053  0.09569  1.0000
  C   C572      1.0  0.83710  0.03957  0.37560  1.0000
  C   C573      1.0  0.58336  0.12732  0.06373  1.0000
  C   C574      1.0  0.86197  0.01530  0.36007  1.0000
  C   C575      1.0  0.59184  0.10250  0.50277  1.0000
  C   C576      1.0  0.82395  0.04909  0.39829  1.0000
  C   C577      1.0  0.66525  0.99536  0.48510  1.0000
  H   H576      1.0  0.68483  0.01045  0.05850  1.0000
  C   C578      1.0  0.55864  0.12342  0.40687  1.0000
  C   C579      1.0  0.97754  0.98070  0.28240  1.0000
  H   H577      1.0  0.57943  0.15169  0.14600  1.0000
  S   S193      1.0  0.54733  0.10310  0.14253  1.0000
  C   C580      1.0  0.55955  0.14612  0.13835  1.0000
  H   H578      1.0  0.81388  0.06025  0.39125  1.0000
  C   C581      1.0  0.56884  0.13708  0.04098  1.0000
  H   H579      1.0  0.52693  0.06627  0.50566  1.0000
  H   H580      1.0  0.53601  0.16302  0.08964  1.0000
  S   S194      1.0  0.83254  0.98389  0.31522  1.0000
  S   S195      1.0  0.91620  0.97919  0.28220  1.0000
  H   H581      1.0  0.68282  0.02557  0.10859  1.0000
  C   C582      1.0  0.69655  0.01593  0.11870  1.0000
  H   H582      1.0  0.68875  0.02290  0.16647  1.0000
  H   H583      1.0  0.91943  0.02313  0.18719  1.0000
  H   H584      1.0  0.59124  0.12280  0.11330  1.0000
  C   C583      1.0  0.89213  0.00448  0.18253  1.0000
  H   H585      1.0  0.53853  0.10529  0.36530  1.0000
  H   H586      1.0  0.56522  0.08221  0.34469  1.0000
  C   C584      1.0  0.61941  0.09261  0.39278  1.0000
  C   C585      1.0  0.56139  0.10185  0.37294  1.0000
  H   H587      1.0  0.72278  0.00180  0.19000  1.0000
  H   H588      1.0  0.54052  0.15780  0.03289  1.0000
  S   S196      1.0  0.68215  0.03593  0.50015  1.0000
  H   H589      1.0  0.52314  0.10075  0.08000  1.0000
  H   H590      1.0  0.96072  0.97921  0.21442  1.0000
  C   C586      1.0  0.69216  0.99814  0.49959  1.0000
  H   H591      1.0  0.61941  0.98951  0.49306  1.0000
  H   H592      1.0  0.57086  0.13460  0.01616  1.0000
  H   H593      1.0  0.71108  0.00135  0.48486  1.0000
  C   C587      1.0  0.61525  0.09165  0.49487  1.0000
  H   H594      1.0  0.75044  0.98367  0.15497  1.0000
  H   H595      1.0  0.96397  0.00674  0.20704  1.0000
  H   H596      1.0  0.63717  0.09166  0.50557  1.0000
  C   C588      1.0  0.64067  0.99141  0.50382  1.0000
  H   H597      1.0  0.62424  0.98729  0.55142  1.0000
  S   S197      1.0  0.57340  0.01320  0.89216  1.0000
  H   H598      1.0  0.80571  0.18745  0.73194  1.0000
  C   C589      1.0  0.69350  0.08540  0.88780  1.0000
  H   H599      1.0  0.57828  0.02228  0.51933  1.0000
  S   S198      1.0  0.73479  0.08682  0.95702  1.0000
  H   H600      1.0  0.93212  0.09272  0.84094  1.0000
  C   C590      1.0  0.90729  0.09340  0.84526  1.0000
  Fe  Fe95      1.0  0.68596  0.04037  0.55131  1.0000
  S   S199      1.0  0.66350  0.02643  0.58944  1.0000
  Fe  Fe96      1.0  0.72708  0.06561  0.53844  1.0000
  S   S200      1.0  0.75302  0.08369  0.55937  1.0000
  S   S201      1.0  0.67662  0.06548  0.54476  1.0000
  S   S202      1.0  0.73649  0.04069  0.54886  1.0000
  Fe  Fe97      1.0  0.82826  0.09661  0.80333  1.0000
  S   S203      1.0  0.78529  0.10106  0.77684  1.0000
  S   S204      1.0  0.83333  0.08086  0.84699  1.0000
  Fe  Fe98      1.0  0.86363  0.11440  0.75440  1.0000
  S   S205      1.0  0.82293  0.12024  0.72313  1.0000
  S   S206      1.0  0.90893  0.12405  0.74388  1.0000
  Fe  Fe99      1.0  0.79802  0.12487  0.76875  1.0000
  S   S207      1.0  0.75891  0.14247  0.77599  1.0000
  Fe  Fe100     1.0  0.81284  0.09606  0.73307  1.0000
  S   S208      1.0  0.79083  0.07935  0.70388  1.0000
  S   S209      1.0  0.83893  0.12084  0.79930  1.0000
  S   S210      1.0  0.85557  0.08983  0.76036  1.0000
  C   C591      1.0  0.94472  0.11604  0.75685  1.0000
  C   C592      1.0  0.94850  0.10159  0.77151  1.0000
  C   C593      1.0  0.97719  0.09578  0.78221  1.0000
  H   H601      1.0  0.66010  0.03544  0.93476  1.0000
  H   H602      1.0  0.67332  0.08638  0.87258  1.0000
  C   C594      1.0  0.96999  0.12448  0.75255  1.0000
  H   H603      1.0  0.92935  0.09489  0.77445  1.0000
  H   H604      1.0  0.97993  0.08458  0.79348  1.0000
  S   S211      1.0  0.76376  0.21293  0.74386  1.0000
  H   H605      1.0  0.96727  0.13567  0.74121  1.0000
  C   C595      1.0  0.76116  0.16204  0.76765  1.0000
  C   C596      1.0  0.78602  0.16761  0.75163  1.0000
  C   C597      1.0  0.78652  0.18323  0.74456  1.0000
  C   C598      1.0  0.73765  0.18784  0.76995  1.0000
  C   C599      1.0  0.73700  0.17221  0.77671  1.0000
  H   H606      1.0  0.80475  0.15990  0.74448  1.0000
  H   H607      1.0  0.70230  0.09667  0.88932  1.0000
  H   H608      1.0  0.71767  0.16799  0.78907  1.0000
  C   C600      1.0  0.76601  0.08174  0.59875  1.0000
  C   C601      1.0  0.75992  0.06929  0.61855  1.0000
  C   C602      1.0  0.76853  0.06859  0.65044  1.0000
  C   C603      1.0  0.78310  0.08034  0.66295  1.0000
  C   C604      1.0  0.78968  0.09270  0.64307  1.0000
  C   C605      1.0  0.78119  0.09337  0.61106  1.0000
  H   H609      1.0  0.74820  0.06029  0.60942  1.0000
  H   H610      1.0  0.76344  0.05897  0.66563  1.0000
  H   H611      1.0  0.80100  0.10178  0.65241  1.0000
  H   H612      1.0  0.78608  0.10301  0.59584  1.0000
  C   C606      1.0  0.76366  0.08505  0.92793  1.0000
  C   C607      1.0  0.78289  0.07188  0.92557  1.0000
  C   C608      1.0  0.80474  0.07086  0.90107  1.0000
  C   C609      1.0  0.80692  0.08282  0.87842  1.0000
  C   C610      1.0  0.78789  0.09602  0.88097  1.0000
  C   C611      1.0  0.76662  0.09719  0.90589  1.0000
  H   H613      1.0  0.78097  0.06254  0.94262  1.0000
  H   H614      1.0  0.81960  0.06065  0.89931  1.0000
  H   H615      1.0  0.78954  0.10534  0.86376  1.0000
  H   H616      1.0  0.75202  0.10747  0.90782  1.0000
  C   C612      1.0  0.60414  0.01325  0.91782  1.0000
  C   C613      1.0  0.62220  0.02545  0.91579  1.0000
  Fe  Fe101     1.0  0.53689  0.99822  0.90751  1.0000
  C   C614      1.0  0.65253  0.01436  0.95950  1.0000
  C   C615      1.0  0.63465  0.00207  0.96131  1.0000
  C   C616      1.0  0.61024  0.00161  0.94080  1.0000
  H   H617      1.0  0.73684  0.00701  0.53050  1.0000
  S   S212      1.0  0.52466  0.99198  0.95766  1.0000
  C   C617      1.0  0.57229  0.01033  0.56425  1.0000
  C   C618      1.0  0.58749  0.01954  0.54259  1.0000
  C   C619      1.0  0.61479  0.02512  0.55072  1.0000
  C   C620      1.0  0.62742  0.02122  0.58030  1.0000
  C   C621      1.0  0.61202  0.01215  0.60213  1.0000
  C   C622      1.0  0.58438  0.00680  0.59422  1.0000
  S   S213      1.0  0.52974  0.97868  0.70647  1.0000
  H   H618      1.0  0.62168  0.00910  0.62506  1.0000
  H   H619      1.0  0.57277  0.99968  0.61106  1.0000
  H   H620      1.0  0.72900  0.09000  0.83755  1.0000
  H   H621      1.0  0.60216  0.22339  0.83259  1.0000
  H   H622      1.0  0.59645  0.99213  0.94248  1.0000
  C   C623      1.0  0.87186  0.11081  0.87362  1.0000
  C   C624      1.0  0.76118  0.05438  0.85035  1.0000
  C   C625      1.0  0.57807  0.00515  0.80054  1.0000
  C   C626      1.0  0.51639  0.15481  0.53897  1.0000
  H   H623      1.0  0.53725  0.17403  0.55443  1.0000
  H   H624      1.0  0.86126  0.14914  0.86797  1.0000
  C   C627      1.0  0.51717  0.03544  0.96502  1.0000
  H   H625      1.0  0.60529  0.04752  0.97903  1.0000
  H   H626      1.0  0.76879  0.07216  0.81550  1.0000
  H   H627      1.0  0.89599  0.09010  0.82376  1.0000
  C   C628      1.0  0.72222  0.06053  0.88921  1.0000
  C   C629      1.0  0.76237  0.19341  0.75369  1.0000
  H   H628      1.0  0.71891  0.19555  0.77705  1.0000
  C   C630      1.0  0.52483  0.01207  0.81285  1.0000
  H   H629      1.0  0.84004  0.12692  0.89559  1.0000
  H   H630      1.0  0.68659  0.08194  0.91231  1.0000
  H   H631      1.0  0.56187  0.02494  0.95871  1.0000
  H   H632      1.0  0.60246  0.02843  0.99492  1.0000
  H   H633      1.0  0.57692  0.22057  0.88366  1.0000
  C   C631      1.0  0.00903  0.09623  0.70206  1.0000
  H   H634      1.0  0.70985  0.05732  0.91047  1.0000
  C   C632      1.0  0.64616  0.02607  0.93673  1.0000
  H   H635      1.0  0.74917  0.03917  0.88893  1.0000
  C   C633      1.0  0.89548  0.13556  0.84297  1.0000
  C   C634      1.0  0.00246  0.10423  0.77798  1.0000
  S   S214      1.0  0.53895  0.00295  0.55271  1.0000
  S   S215      1.0  0.67401  0.05961  0.97408  1.0000
  C   C635      1.0  0.87120  0.13780  0.86410  1.0000
  Fe  Fe102     1.0  0.51226  0.99140  0.59123  1.0000
  C   C636      1.0  0.75531  0.06870  0.83582  1.0000
  N   N50       1.0  0.72375  0.10969  0.66117  1.0000
  C   C637      1.0  0.73337  0.12185  0.64393  1.0000
  C   C638      1.0  0.72721  0.10849  0.69326  1.0000
  C   C639      1.0  0.74674  0.13325  0.65887  1.0000
  C   C640      1.0  0.74002  0.11980  0.70897  1.0000
  C   C641      1.0  0.74980  0.13225  0.69167  1.0000
  C   C642      1.0  0.70786  0.09837  0.64559  1.0000
  H   H636      1.0  0.73097  0.12270  0.61843  1.0000
  H   H637      1.0  0.72024  0.09870  0.70687  1.0000
  H   H638      1.0  0.75460  0.14282  0.64519  1.0000
  H   H639      1.0  0.74238  0.11895  0.73445  1.0000
  H   H640      1.0  0.75984  0.14106  0.70377  1.0000
  H   H641      1.0  0.68309  0.10095  0.64796  1.0000
  H   H642      1.0  0.71392  0.09801  0.62000  1.0000
  H   H643      1.0  0.71407  0.08688  0.65621  1.0000
  H   H644      1.0  0.67198  0.99275  0.57592  1.0000
  Fe  Fe103     1.0  0.71640  0.06878  0.99015  1.0000
  H   H645      1.0  0.55741  0.00733  0.74132  1.0000
  N   N51       1.0  0.89571  0.10872  0.85292  1.0000
  H   H646      1.0  0.98476  0.09814  0.70563  1.0000
  N   N52       1.0  0.56088  0.04231  0.99172  1.0000
  H   H647      1.0  0.71721  0.00759  0.56769  1.0000
  H   H648      1.0  0.63952  0.99295  0.97879  1.0000
  C   C643      1.0  0.72228  0.00056  0.54691  1.0000
  C   C644      1.0  0.51610  0.16895  0.55214  1.0000
  C   C645      1.0  0.90748  0.12086  0.83760  1.0000
  N   N53       1.0  0.54707  0.00959  0.79048  1.0000
  H   H649      1.0  0.58079  0.99276  0.80583  1.0000
  C   C646      1.0  0.51395  0.04681  0.53344  1.0000
  N   N54       1.0  0.69422  0.99737  0.53185  1.0000
  C   C647      1.0  0.99875  0.11862  0.76302  1.0000
  C   C648      1.0  0.54815  0.03353  0.97088  1.0000
  C   C649      1.0  0.54013  0.01010  0.75905  1.0000
  N   N55       1.0  0.71688  0.07464  0.87504  1.0000
  Fe  Fe104     1.0  0.69048  0.03828  0.00062  1.0000
  C   C650      1.0  0.51240  0.05557  0.00133  1.0000
  H   H650      1.0  0.61754  0.03450  0.89811  1.0000
  H   H651      1.0  0.90267  0.08505  0.86478  1.0000
  C   C651      1.0  0.85931  0.12536  0.87960  1.0000
  C   C652      1.0  0.74447  0.05020  0.87714  1.0000
  C   C653      1.0  0.73287  0.07874  0.84850  1.0000
  H   H652      1.0  0.77913  0.04668  0.84121  1.0000
  S   S216      1.0  0.68246  0.01497  0.98603  1.0000
  H   H653      1.0  0.90450  0.14510  0.83015  1.0000
  C   C654      1.0  0.67045  0.99320  0.55032  1.0000
  H   H654      1.0  0.62626  0.03223  0.53386  1.0000
  H   H655      1.0  0.86200  0.10119  0.88519  1.0000
  H   H656      1.0  0.53743  0.14894  0.53112  1.0000
  H   H657      1.0  0.92589  0.11924  0.82062  1.0000
  H   H658      1.0  0.54145  0.21711  0.86603  1.0000
  H   H659      1.0  0.53029  0.01126  0.83777  1.0000
  C   C655      1.0  0.59354  0.04040  0.99683  1.0000
  C   C656      1.0  0.64337  0.99012  0.53661  1.0000
  H   H660      1.0  0.58342  0.01094  0.82221  1.0000
  H   H661      1.0  0.59576  0.11077  0.51979  1.0000
  H   H662      1.0  0.73514  0.98985  0.55477  1.0000
  H   H663      1.0  0.53692  0.04274  0.53958  1.0000
  H   H664      1.0  0.59479  0.00817  0.78194  1.0000
  C   C657      1.0  0.55556  0.22598  0.87347  1.0000
  C   C658      1.0  0.54351  0.05336  0.00659  1.0000
  C   C659      1.0  0.59093  0.28499  0.36129  1.0000
  Fe  Fe105     1.0  0.99473  0.35441  0.07254  1.0000
  H   H665      1.0  0.94003  0.37445  0.02100  1.0000
  S   S217      1.0  0.57213  0.27603  0.28045  1.0000
  H   H666      1.0  0.75861  0.40307  0.28980  1.0000
  H   H667      1.0  0.53465  0.30940  0.38423  1.0000
  C   C660      1.0  0.78104  0.34115  0.16285  1.0000
  N   N56       1.0  0.80398  0.34089  0.14077  1.0000
  H   H668      1.0  0.94232  0.28106  0.47984  1.0000
  H   H669      1.0  0.63793  0.31826  0.37731  1.0000
  S   S218      1.0  0.97464  0.31320  0.09144  1.0000
  S   S219      1.0  0.60074  0.45853  0.23430  1.0000
  S   S220      1.0  0.96302  0.34038  0.47437  1.0000
  H   H670      1.0  0.98417  0.41762  0.48833  1.0000
  S   S221      1.0  0.67231  0.45987  0.25181  1.0000
  C   C661      1.0  0.62249  0.28278  0.36088  1.0000
  H   H671      1.0  0.53983  0.30191  0.12183  1.0000
  C   C662      1.0  0.55837  0.27399  0.10494  1.0000
  Fe  Fe106     1.0  0.63351  0.44710  0.26929  1.0000
  S   S222      1.0  0.63341  0.42221  0.28326  1.0000
  H   H672      1.0  0.83612  0.35352  0.11523  1.0000
  S   S223      1.0  0.62040  0.46299  0.30766  1.0000
  Fe  Fe107     1.0  0.72236  0.32543  0.29586  1.0000
  S   S224      1.0  0.73393  0.34711  0.31699  1.0000
  S   S225      1.0  0.67470  0.31907  0.31044  1.0000
  Fe  Fe108     1.0  0.78263  0.32283  0.25921  1.0000
  S   S226      1.0  0.79724  0.34418  0.27708  1.0000
  S   S227      1.0  0.81462  0.30929  0.22663  1.0000
  Fe  Fe109     1.0  0.78074  0.33579  0.32453  1.0000
  S   S228      1.0  0.80994  0.34226  0.36476  1.0000
  Fe  Fe110     1.0  0.74971  0.35371  0.26823  1.0000
  S   S229      1.0  0.74444  0.37705  0.24409  1.0000
  S   S230      1.0  0.76833  0.31354  0.30743  1.0000
  S   S231      1.0  0.73594  0.33288  0.24630  1.0000
  Fe  Fe111     1.0  0.94639  0.31732  0.48073  1.0000
  S   S232      1.0  0.91377  0.30689  0.44869  1.0000
  Fe  Fe112     1.0  0.94927  0.33477  0.10671  1.0000
  S   S233      1.0  0.90687  0.34183  0.13569  1.0000
  S   S234      1.0  0.95175  0.34568  0.05794  1.0000
  C   C663      1.0  0.84221  0.31815  0.20339  1.0000
  C   C664      1.0  0.86234  0.30946  0.18419  1.0000
  C   C665      1.0  0.88355  0.31637  0.16430  1.0000
  C   C666      1.0  0.88464  0.33204  0.16351  1.0000
  C   C667      1.0  0.86532  0.34061  0.18364  1.0000
  C   C668      1.0  0.84419  0.33373  0.20341  1.0000
  H   H673      1.0  0.86108  0.29736  0.18413  1.0000
  H   H674      1.0  0.89825  0.30966  0.14878  1.0000
  H   H675      1.0  0.86613  0.35274  0.18329  1.0000
  H   H676      1.0  0.82898  0.34058  0.21802  1.0000
  C   C669      1.0  0.83874  0.33208  0.38767  1.0000
  C   C670      1.0  0.84311  0.31630  0.38880  1.0000
  C   C671      1.0  0.86630  0.30879  0.40741  1.0000
  C   C672      1.0  0.88519  0.31692  0.42530  1.0000
  C   C673      1.0  0.88074  0.33268  0.42425  1.0000
  C   C674      1.0  0.85763  0.34019  0.40557  1.0000
  H   H677      1.0  0.82819  0.30986  0.37606  1.0000
  H   H678      1.0  0.86935  0.29660  0.40830  1.0000
  H   H679      1.0  0.89497  0.33909  0.43798  1.0000
  H   H680      1.0  0.85428  0.35238  0.40513  1.0000
  H   H681      1.0  0.55031  0.26247  0.10512  1.0000
  H   H682      1.0  0.52807  0.46699  0.23304  1.0000
  C   C675      1.0  0.80887  0.36729  0.14689  1.0000
  H   H683      1.0  0.66200  0.42967  0.35019  1.0000
  C   C676      1.0  0.52084  0.42563  0.26081  1.0000
  C   C677      1.0  0.66355  0.40963  0.27070  1.0000
  C   C678      1.0  0.66509  0.39449  0.28203  1.0000
  C   C679      1.0  0.68953  0.38432  0.27360  1.0000
  C   C680      1.0  0.71247  0.38922  0.25355  1.0000
  C   C681      1.0  0.71076  0.40431  0.24192  1.0000
  C   C682      1.0  0.68647  0.41451  0.25060  1.0000
  H   H684      1.0  0.64741  0.39063  0.29756  1.0000
  H   H685      1.0  0.69059  0.37270  0.28263  1.0000
  H   H686      1.0  0.72842  0.40818  0.22639  1.0000
  H   H687      1.0  0.68544  0.42613  0.24165  1.0000
  Fe  Fe113     1.0  0.58986  0.47537  0.27137  1.0000
  C   C683      1.0  0.62478  0.30872  0.37397  1.0000
  S   S235      1.0  0.00025  0.37942  0.06673  1.0000
  N   N57       1.0  0.72947  0.41703  0.31873  1.0000
  H   H688      1.0  0.82023  0.37738  0.14077  1.0000
  H   H689      1.0  0.83738  0.32648  0.11752  1.0000
  H   H690      1.0  0.79906  0.32591  0.10418  1.0000
  H   H691      1.0  0.77038  0.33092  0.16972  1.0000
  C   C684      1.0  0.68428  0.43002  0.33939  1.0000
  C   C685      1.0  0.78570  0.36762  0.16964  1.0000
  H   H692      1.0  0.53117  0.45220  0.32831  1.0000
  C   C686      1.0  0.74838  0.40298  0.31398  1.0000
  C   C687      1.0  0.93818  0.27797  0.50454  1.0000
  H   H693      1.0  0.69296  0.40594  0.34029  1.0000
  C   C688      1.0  0.60072  0.28894  0.28313  1.0000
  C   C689      1.0  0.59365  0.30397  0.29067  1.0000
  C   C690      1.0  0.61675  0.31339  0.29639  1.0000
  C   C691      1.0  0.64741  0.30808  0.29430  1.0000
  C   C692      1.0  0.65462  0.29323  0.28538  1.0000
  C   C693      1.0  0.63141  0.28373  0.27993  1.0000
  H   H694      1.0  0.57042  0.30824  0.29361  1.0000
  H   H695      1.0  0.61079  0.32475  0.30374  1.0000
  H   H696      1.0  0.67803  0.28881  0.28435  1.0000
  C   C694      1.0  0.69524  0.44385  0.33038  1.0000
  H   H697      1.0  0.99698  0.41032  0.04396  1.0000
  H   H698      1.0  0.63734  0.27212  0.27425  1.0000
  H   H699      1.0  0.54327  0.28114  0.08857  1.0000
  C   C695      1.0  0.63946  0.29474  0.36727  1.0000
  Fe  Fe114     1.0  0.52146  0.28341  0.28035  1.0000
  H   H700      1.0  0.53302  0.29038  0.37316  1.0000
  H   H701      1.0  0.75355  0.35474  0.19521  1.0000
  H   H702      1.0  0.57794  0.27584  0.35479  1.0000
  C   C696      1.0  0.77158  0.35451  0.17755  1.0000
  H   H703      1.0  0.63369  0.27208  0.35418  1.0000
  C   C697      1.0  0.74024  0.43055  0.30952  1.0000
  H   H704      1.0  0.81102  0.31686  0.14166  1.0000
  C   C698      1.0  0.81322  0.32686  0.12518  1.0000
  Fe  Fe115     1.0  0.63882  0.47286  0.21958  1.0000
  C   C699      1.0  0.59319  0.31053  0.37425  1.0000
  H   H705      1.0  0.73165  0.45493  0.30774  1.0000
  C   C700      1.0  0.70187  0.41664  0.33353  1.0000
  H   H706      1.0  0.66395  0.29346  0.36544  1.0000
  H   H707      1.0  0.53897  0.31167  0.17553  1.0000
  H   H708      1.0  0.58195  0.32157  0.37840  1.0000
  H   H709      1.0  0.53663  0.30518  0.34299  1.0000
  H   H710      1.0  0.58179  0.27363  0.09527  1.0000
  C   C701      1.0  0.72331  0.44416  0.31520  1.0000
  N   N58       1.0  0.87073  0.32049  0.28989  1.0000
  C   C702      1.0  0.87374  0.33471  0.29968  1.0000
  C   C703      1.0  0.88660  0.31530  0.26409  1.0000
  C   C704      1.0  0.89205  0.34438  0.28262  1.0000
  C   C705      1.0  0.90532  0.32462  0.24664  1.0000
  C   C706      1.0  0.90776  0.33930  0.25580  1.0000
  C   C707      1.0  0.85139  0.31052  0.30789  1.0000
  H   H711      1.0  0.86158  0.33872  0.32055  1.0000
  H   H712      1.0  0.88408  0.30404  0.25628  1.0000
  H   H713      1.0  0.89381  0.35575  0.29010  1.0000
  H   H714      1.0  0.91709  0.32062  0.22555  1.0000
  H   H715      1.0  0.92160  0.34675  0.24193  1.0000
  H   H716      1.0  0.86495  0.30346  0.32571  1.0000
  H   H717      1.0  0.83294  0.31717  0.32034  1.0000
  H   H718      1.0  0.84041  0.30311  0.29196  1.0000
  C   C708      1.0  0.56670  0.27023  0.16190  1.0000
  C   C709      1.0  0.54740  0.30007  0.17181  1.0000
  C   C710      1.0  0.56665  0.27549  0.19252  1.0000
  C   C711      1.0  0.55696  0.29051  0.19742  1.0000
  H   H719      1.0  0.57418  0.25851  0.15827  1.0000
  C   C712      1.0  0.00617  0.38763  0.02871  1.0000
  H   H720      1.0  0.55672  0.29470  0.22107  1.0000
  C   C713      1.0  0.00231  0.40339  0.02400  1.0000
  H   H721      1.0  0.77870  0.37797  0.18134  1.0000
  C   C714      1.0  0.96917  0.38229  0.46996  1.0000
  H   H722      1.0  0.76203  0.43088  0.29766  1.0000
  N   N59       1.0  0.55724  0.27967  0.13690  1.0000
  C   C715      1.0  0.54785  0.29446  0.14149  1.0000
  C   C716      1.0  0.98795  0.40616  0.48055  1.0000
  Fe  Fe116     1.0  0.98045  0.32498  0.04312  1.0000
  H   H723      1.0  0.73504  0.39293  0.31620  1.0000
  C   C717      1.0  0.54371  0.30101  0.36710  1.0000
  N   N60       1.0  0.57671  0.29868  0.36830  1.0000
  C   C718      1.0  0.81762  0.35377  0.13240  1.0000
  H   H724      1.0  0.89441  0.29049  0.50517  1.0000
  H   H725      1.0  0.94100  0.40175  0.48418  1.0000
  H   H726      1.0  0.76659  0.40152  0.33172  1.0000
  C   C719      1.0  0.96377  0.39724  0.47838  1.0000
  S   S236      1.0  0.99326  0.30565  0.48649  1.0000
  S   S237      1.0  0.99087  0.34483  0.12224  1.0000
  H   H727      1.0  0.68192  0.45433  0.33489  1.0000
  H   H728      1.0  0.57397  0.26800  0.21245  1.0000
  H   H729      1.0  0.92964  0.40213  0.01874  1.0000
  C   C720      1.0  0.55375  0.43787  0.29416  1.0000
  H   H730      1.0  0.57622  0.44029  0.30077  1.0000
  H   H731      1.0  0.95060  0.37513  0.46910  1.0000
  H   H732      1.0  0.56973  0.42351  0.25694  1.0000
  H   H733      1.0  0.51807  0.41844  0.24133  1.0000
  C   C721      1.0  0.52846  0.44435  0.30995  1.0000
  H   H734      1.0  0.98830  0.26592  0.48095  1.0000
  Fe  Fe117     1.0  0.00952  0.32898  0.48327  1.0000
  H   H735      1.0  0.88413  0.46727  0.50645  1.0000
  C   C722      1.0  0.55002  0.42845  0.26944  1.0000
  C   C723      1.0  0.99884  0.37642  0.46403  1.0000
  H   H736      1.0  0.00302  0.36471  0.45807  1.0000
  C   C724      1.0  0.98877  0.26452  0.50717  1.0000
  Fe  Fe118     1.0  0.96046  0.46139  0.61205  1.0000
  H   H737      1.0  0.97168  0.25908  0.56672  1.0000
  S   S238      1.0  0.99693  0.46120  0.57439  1.0000
  C   C725      1.0  0.90586  0.27993  0.55085  1.0000
  S   S239      1.0  0.96447  0.43624  0.62252  1.0000
  C   C726      1.0  0.98096  0.36860  0.62544  1.0000
  S   S240      1.0  0.95744  0.44687  0.91398  1.0000
  H   H738      1.0  0.90719  0.27646  0.69814  1.0000
  C   C727      1.0  0.98722  0.44025  0.79536  1.0000
  C   C728      1.0  0.54210  0.24868  0.83983  1.0000
  S   S241      1.0  0.72094  0.25216  0.73130  1.0000
  H   H739      1.0  0.96497  0.30151  0.62816  1.0000
  Fe  Fe119     1.0  0.69116  0.24389  0.81668  1.0000
  S   S242      1.0  0.68254  0.26623  0.79054  1.0000
  H   H740      1.0  0.98159  0.35816  0.61309  1.0000
  Fe  Fe120     1.0  0.67260  0.25257  0.74902  1.0000
  S   S243      1.0  0.62599  0.25996  0.72862  1.0000
  Fe  Fe121     1.0  0.73168  0.26374  0.77529  1.0000
  S   S244      1.0  0.76064  0.28398  0.77233  1.0000
  H   H741      1.0  0.00662  0.24938  0.65825  1.0000
  S   S245      1.0  0.74118  0.24246  0.80522  1.0000
  S   S246      1.0  0.56725  0.24929  0.59584  1.0000
  S   S247      1.0  0.54338  0.26617  0.91455  1.0000
  C   C729      1.0  0.96757  0.45332  0.79165  1.0000
  S   S248      1.0  0.95439  0.46348  0.82452  1.0000
  H   H742      1.0  0.57700  0.26299  0.77413  1.0000
  Fe  Fe122     1.0  0.93855  0.29857  0.78542  1.0000
  S   S249      1.0  0.93842  0.27397  0.79772  1.0000
  S   S250      1.0  0.89112  0.30987  0.77729  1.0000
  Fe  Fe123     1.0  0.97264  0.27193  0.75763  1.0000
  H   H743      1.0  0.75864  0.27755  0.84073  1.0000
  Fe  Fe124     1.0  0.97651  0.27797  0.83041  1.0000
  H   H744      1.0  0.53214  0.26853  0.80919  1.0000
  S   S251      1.0  0.97253  0.29640  0.74539  1.0000
  S   S252      1.0  0.97606  0.30275  0.81883  1.0000
  C   C730      1.0  0.97369  0.30605  0.96261  1.0000
  H   H745      1.0  0.59018  0.28373  0.52137  1.0000
  C   C731      1.0  0.97957  0.28503  0.91355  1.0000
  H   H746      1.0  0.58143  0.28114  0.60437  1.0000
  H   H747      1.0  0.95733  0.30297  0.88451  1.0000
  Fe  Fe125     1.0  0.98618  0.30875  0.53907  1.0000
  C   C732      1.0  0.98011  0.26894  0.67431  1.0000
  S   S253      1.0  0.93836  0.31872  0.53328  1.0000
  C   C733      1.0  0.93345  0.39623  0.99703  1.0000
  C   C734      1.0  0.96499  0.40305  0.56590  1.0000
  C   C735      1.0  0.94688  0.38088  0.94246  1.0000
  H   H748      1.0  0.00015  0.26967  0.94946  1.0000
  S   S254      1.0  0.00416  0.42827  0.70540  1.0000
  C   C736      1.0  0.79778  0.29002  0.77591  1.0000
  C   C737      1.0  0.80208  0.30488  0.76550  1.0000
  C   C738      1.0  0.83057  0.31054  0.76650  1.0000
  C   C739      1.0  0.85575  0.30154  0.77794  1.0000
  C   C740      1.0  0.85172  0.28659  0.78884  1.0000
  C   C741      1.0  0.82276  0.28086  0.78794  1.0000
  H   H749      1.0  0.78316  0.31213  0.75631  1.0000
  H   H750      1.0  0.83312  0.32207  0.75818  1.0000
  H   H751      1.0  0.87075  0.27951  0.79816  1.0000
  H   H752      1.0  0.81990  0.26937  0.79626  1.0000
  C   C742      1.0  0.63666  0.24656  0.87971  1.0000
  C   C743      1.0  0.62167  0.25917  0.86415  1.0000
  C   C744      1.0  0.59374  0.26537  0.87595  1.0000
  C   C745      1.0  0.58006  0.25883  0.90291  1.0000
  C   C746      1.0  0.59525  0.24635  0.91875  1.0000
  H   H753      1.0  0.91873  0.46272  0.55211  1.0000
  H   H754      1.0  0.63151  0.26412  0.84294  1.0000
  H   H755      1.0  0.58223  0.27508  0.86363  1.0000
  C   C747      1.0  0.00888  0.38787  0.54732  1.0000
  H   H756      1.0  0.61189  0.24030  0.78595  1.0000
  C   C748      1.0  0.60988  0.25619  0.69201  1.0000
  C   C749      1.0  0.62700  0.24952  0.66760  1.0000
  C   C750      1.0  0.61342  0.24729  0.63853  1.0000
  C   C751      1.0  0.58254  0.25146  0.63367  1.0000
  C   C752      1.0  0.56532  0.25799  0.65819  1.0000
  C   C753      1.0  0.57899  0.26041  0.68711  1.0000
  H   H757      1.0  0.65078  0.24627  0.67095  1.0000
  S   S255      1.0  0.93844  0.36160  0.55104  1.0000
  H   H758      1.0  0.54159  0.26134  0.65474  1.0000
  H   H759      1.0  0.56556  0.26563  0.70580  1.0000
  H   H760      1.0  0.81104  0.23826  0.73569  1.0000
  C   C754      1.0  0.96081  0.37688  0.55340  1.0000
  N   N61       1.0  0.00565  0.39000  0.64115  1.0000
  H   H761      1.0  0.88526  0.28443  0.56235  1.0000
  H   H762      1.0  0.72564  0.29965  0.82160  1.0000
  N   N62       1.0  0.55963  0.28665  0.56028  1.0000
  H   H763      1.0  0.00192  0.36487  0.53739  1.0000
  C   C755      1.0  0.54729  0.25849  0.81381  1.0000
  C   C756      1.0  0.89944  0.47154  0.96608  1.0000
  H   H764      1.0  0.01096  0.47327  0.71986  1.0000
  Fe  Fe126     1.0  0.72891  0.23074  0.76199  1.0000
  S   S256      1.0  0.99130  0.46604  0.65102  1.0000
  C   C757      1.0  0.92767  0.27098  0.56810  1.0000
  C   C758      1.0  0.58637  0.23313  0.82725  1.0000
  H   H765      1.0  0.95508  0.35168  0.94964  1.0000
  C   C759      1.0  0.53565  0.29433  0.54519  1.0000
  S   S257      1.0  0.67201  0.23849  0.86586  1.0000
  H   H766      1.0  0.54353  0.23218  0.89283  1.0000
  H   H767      1.0  0.90270  0.28084  0.73917  1.0000
  H   H768      1.0  0.75228  0.25750  0.90817  1.0000
  N   N63       1.0  0.95948  0.26924  0.52166  1.0000
  H   H769      1.0  0.00629  0.27151  0.51576  1.0000
  C   C760      1.0  0.51414  0.30324  0.56210  1.0000
  H   H770      1.0  0.95445  0.41376  0.57310  1.0000
  C   C761      1.0  0.96608  0.29966  0.90765  1.0000
  C   C762      1.0  0.95846  0.45849  0.76122  1.0000
  C   C763      1.0  0.96845  0.28375  0.66549  1.0000
  N   N64       1.0  0.94587  0.37306  0.97107  1.0000
  H   H771      1.0  0.95443  0.29018  0.68197  1.0000
  H   H772      1.0  0.83988  0.45797  0.56751  1.0000
  H   H773      1.0  0.95228  0.32120  0.92693  1.0000
  C   C764      1.0  0.62352  0.24033  0.90730  1.0000
  N   N65       1.0  0.86847  0.26843  0.72148  1.0000
  H   H774      1.0  0.85436  0.47226  0.64401  1.0000
  Fe  Fe127     1.0  0.01005  0.29592  0.78058  1.0000
  C   C765      1.0  0.98997  0.28097  0.94432  1.0000
  C   C766      1.0  0.99227  0.28197  0.61288  1.0000
  C   C767      1.0  0.94768  0.39064  0.56403  1.0000
  C   C768      1.0  0.54151  0.29613  0.60994  1.0000
  H   H775      1.0  0.93376  0.36852  0.63773  1.0000
  Fe  Fe128     1.0  0.00359  0.43628  0.58810  1.0000
  C   C769      1.0  0.95312  0.38817  0.65399  1.0000
  Fe  Fe129     1.0  0.99844  0.44103  0.65837  1.0000
  Fe  Fe130     1.0  0.51814  0.25157  0.57986  1.0000
  H   H776      1.0  0.93225  0.39290  0.66458  1.0000
  C   C770      1.0  0.96922  0.45075  0.73461  1.0000
  H   H777      1.0  0.82708  0.44778  0.60271  1.0000
  H   H778      1.0  0.57020  0.26739  0.53353  1.0000
  C   C771      1.0  0.00664  0.37664  0.62635  1.0000
  H   H779      1.0  0.91075  0.46216  0.95418  1.0000
  H   H780      1.0  0.95325  0.37508  0.92112  1.0000
  C   C772      1.0  0.86778  0.47300  0.96845  1.0000
  C   C773      1.0  0.93425  0.40428  0.96795  1.0000
  C   C774      1.0  0.57248  0.25543  0.79428  1.0000
  C   C775      1.0  0.94090  0.39658  0.94045  1.0000
  Fe  Fe131     1.0  0.95914  0.34095  0.52723  1.0000
  H   H781      1.0  0.67306  0.30362  0.84273  1.0000
  Fe  Fe132     1.0  0.00339  0.43446  0.92069  1.0000
  H   H782      1.0  0.62700  0.24230  0.61967  1.0000
  H   H783      1.0  0.94307  0.46852  0.75821  1.0000
  C   C776      1.0  0.96310  0.31002  0.93194  1.0000
  C   C777      1.0  0.56277  0.28747  0.59223  1.0000
  H   H784      1.0  0.99384  0.43596  0.81870  1.0000
  H   H785      1.0  0.58511  0.24127  0.93967  1.0000
  C   C778      1.0  0.83829  0.27229  0.71715  1.0000
  C   C779      1.0  0.93939  0.38053  0.99816  1.0000
  H   H786      1.0  0.90250  0.25091  0.73391  1.0000
  S   S258      1.0  0.52375  0.24284  0.99701  1.0000
  H   H787      1.0  0.94306  0.40281  0.91795  1.0000
  H   H788      1.0  0.79323  0.26475  0.71972  1.0000
  C   C780      1.0  0.81724  0.26152  0.72219  1.0000
  Fe  Fe133     1.0  0.97839  0.45723  0.87029  1.0000
  Fe  Fe134     1.0  0.97722  0.46521  0.93948  1.0000
  S   S259      1.0  0.96863  0.31984  0.99208  1.0000
  H   H789      1.0  0.85484  0.46475  0.95822  1.0000
  S   S260      1.0  0.97234  0.25965  0.71173  1.0000
  C   C781      1.0  0.99156  0.37546  0.54539  1.0000
  H   H790      1.0  0.76516  0.25392  0.86833  1.0000
  S   S261      1.0  0.01000  0.40916  0.92864  1.0000
  C   C782      1.0  0.97424  0.29019  0.63477  1.0000
  N   N66       1.0  0.72532  0.26910  0.87245  1.0000
  C   C783      1.0  0.73589  0.27924  0.85046  1.0000
  C   C784      1.0  0.69669  0.27138  0.88473  1.0000
  C   C785      1.0  0.71732  0.29185  0.83961  1.0000
  C   C786      1.0  0.67746  0.28381  0.87429  1.0000
  C   C787      1.0  0.68786  0.29406  0.85146  1.0000
  H   H791      1.0  0.60083  0.27241  0.55649  1.0000
  C   C788      1.0  0.98729  0.29142  0.96863  1.0000
  H   H792      1.0  0.68833  0.26335  0.90222  1.0000
  C   C789      1.0  0.59212  0.24266  0.80093  1.0000
  H   H793      1.0  0.65450  0.28531  0.88353  1.0000
  C   C790      1.0  0.58136  0.27714  0.54195  1.0000
  H   H794      1.0  0.92392  0.39175  0.57040  1.0000
  N   N67       1.0  0.82429  0.47158  0.60543  1.0000
  H   H795      1.0  0.97488  0.35386  0.98543  1.0000
  C   C791      1.0  0.95307  0.35667  0.97320  1.0000
  C   C792      1.0  0.00444  0.41019  0.99346  1.0000
  C   C793      1.0  0.95437  0.26559  0.55294  1.0000
  H   H796      1.0  0.96198  0.45479  0.71126  1.0000
  H   H797      1.0  0.97840  0.40655  0.66611  1.0000
  H   H798      1.0  0.93521  0.35100  0.98675  1.0000
  C   C794      1.0  0.99792  0.43249  0.76879  1.0000
  H   H799      1.0  0.87952  0.29119  0.71036  1.0000
  S   S262      1.0  0.98440  0.27168  0.88307  1.0000
  C   C795      1.0  0.98915  0.43778  0.73836  1.0000
  H   H800      1.0  0.86604  0.23136  0.74291  1.0000
  H   H801      1.0  0.93101  0.41652  0.96684  1.0000
  C   C796      1.0  0.87851  0.25392  0.73048  1.0000
  H   H802      1.0  0.99537  0.28810  0.99209  1.0000
  C   C797      1.0  0.85807  0.24285  0.73558  1.0000
  C   C798      1.0  0.99762  0.26080  0.65210  1.0000
  H   H803      1.0  0.92442  0.26857  0.59325  1.0000
  C   C799      1.0  0.97931  0.39585  0.65472  1.0000
  C   C800      1.0  0.88153  0.47447  0.52636  1.0000
  H   H804      1.0  0.53263  0.29334  0.52002  1.0000
  C   C801      1.0  0.95401  0.37447  0.63917  1.0000
  C   C802      1.0  0.00403  0.26731  0.62205  1.0000
  C   C803      1.0  0.74484  0.25591  0.88377  1.0000
  C   C804      1.0  0.99553  0.40175  0.55707  1.0000
  C   C805      1.0  0.89045  0.27979  0.71688  1.0000
  H   H805      1.0  0.00070  0.42232  0.98991  1.0000
  H   H806      1.0  0.83014  0.28387  0.71086  1.0000
  H   H807      1.0  0.73241  0.24555  0.88375  1.0000
  S   S263      1.0  0.00100  0.28888  0.57364  1.0000
  S   S264      1.0  0.00648  0.33116  0.53621  1.0000
  C   C806      1.0  0.83927  0.45756  0.59382  1.0000
  C   C807      1.0  0.90123  0.47195  0.55202  1.0000
  H   H808      1.0  0.86317  0.45586  0.60156  1.0000
  C   C808      1.0  0.82723  0.24670  0.73147  1.0000
  H   H809      1.0  0.54375  0.29640  0.63537  1.0000
  H   H810      1.0  0.63509  0.23065  0.91968  1.0000
  S   S265      1.0  0.67982  0.23015  0.77610  1.0000
  H   H811      1.0  0.99544  0.25246  0.51356  1.0000
  H   H812      1.0  0.79163  0.47377  0.56876  1.0000
  H   H813      1.0  0.86297  0.47440  0.87264  1.0000
  H   H814      1.0  0.52283  0.25132  0.85535  1.0000
  S   S266      1.0  0.01059  0.27127  0.79222  1.0000
  C   C809      1.0  0.51706  0.30407  0.59470  1.0000
  C   C810      1.0  0.91098  0.28335  0.51879  1.0000
  N   N68       1.0  0.56172  0.23628  0.84644  1.0000
  S   S267      1.0  0.51265  0.25117  0.52726  1.0000
  C   C811      1.0  0.01064  0.40123  0.96755  1.0000
  Fe  Fe135     1.0  0.94933  0.58238  0.12305  1.0000
  S   S268      1.0  0.96111  0.59271  0.07595  1.0000
  S   S269      1.0  0.91381  0.56574  0.12966  1.0000
  S   S270      1.0  0.82564  0.56125  0.01571  1.0000
  Fe  Fe136     1.0  0.96636  0.61387  0.10098  1.0000
  S   S271      1.0  0.94487  0.63583  0.07918  1.0000
  S   S272      1.0  0.94996  0.60410  0.14768  1.0000
  H   H815      1.0  0.82849  0.55623  0.50584  1.0000
  Fe  Fe137     1.0  0.96864  0.59540  0.37650  1.0000
  S   S273      1.0  0.94539  0.60028  0.32972  1.0000
  Fe  Fe138     1.0  0.95696  0.58507  0.44477  1.0000
  H   H816      1.0  0.98007  0.62671  0.33445  1.0000
  N   N69       1.0  0.90388  0.53159  0.48905  1.0000
  C   C812      1.0  0.66977  0.52848  0.04334  1.0000
  C   C813      1.0  0.66527  0.49400  0.36982  1.0000
  S   S274      1.0  0.95299  0.60796  0.41949  1.0000
  S   S275      1.0  0.96820  0.57248  0.40106  1.0000
  H   H817      1.0  0.96607  0.63212  0.46836  1.0000
  Fe  Fe139     1.0  0.73067  0.51688  0.47763  1.0000
  S   S276      1.0  0.68879  0.51103  0.45245  1.0000
  N   N70       1.0  0.63593  0.51002  0.08237  1.0000
  S   S277      1.0  0.79726  0.55739  0.44613  1.0000
  S   S278      1.0  0.77612  0.51759  0.45437  1.0000
  H   H818      1.0  0.00711  0.65746  0.40025  1.0000
  S   S279      1.0  0.80442  0.51991  0.04582  1.0000
  H   H819      1.0  0.92801  0.60252  0.26482  1.0000
  Fe  Fe140     1.0  0.75465  0.52302  0.05688  1.0000
  S   S280      1.0  0.73836  0.52297  0.10808  1.0000
  C   C814      1.0  0.82840  0.57008  0.13190  1.0000
  C   C815      1.0  0.70789  0.49705  0.10772  1.0000
  C   C816      1.0  0.71629  0.50894  0.12512  1.0000
  C   C817      1.0  0.66674  0.53094  0.07556  1.0000
  H   H820      1.0  0.71605  0.49591  0.08366  1.0000
  H   H821      1.0  0.84383  0.51589  0.46063  1.0000
  C   C818      1.0  0.88931  0.57232  0.47262  1.0000
  C   C819      1.0  0.63896  0.50747  0.05081  1.0000
  C   C820      1.0  0.89904  0.53754  0.43331  1.0000
  C   C821      1.0  0.83229  0.56346  0.45679  1.0000
  C   C822      1.0  0.85037  0.57044  0.43382  1.0000
  C   C823      1.0  0.87897  0.57475  0.44164  1.0000
  H   H822      1.0  0.96628  0.56438  0.33051  1.0000
  H   H823      1.0  0.84244  0.57232  0.40984  1.0000
  H   H824      1.0  0.89305  0.57986  0.42370  1.0000
  S   S281      1.0  0.54235  0.48281  0.28918  1.0000
  H   H825      1.0  0.76596  0.55032  0.09271  1.0000
  H   H826      1.0  0.84456  0.53523  0.16222  1.0000
  C   C824      1.0  0.84149  0.54753  0.16618  1.0000
  Fe  Fe141     1.0  0.99896  0.59679  0.15570  1.0000
  H   H827      1.0  0.62513  0.48829  0.10006  1.0000
  C   C825      1.0  0.99774  0.64440  0.05086  1.0000
  C   C826      1.0  0.84255  0.56122  0.48780  1.0000
  H   H828      1.0  0.90954  0.61995  0.00950  1.0000
  C   C827      1.0  0.89264  0.56389  0.09556  1.0000
  C   C828      1.0  0.88636  0.57621  0.07422  1.0000
  C   C829      1.0  0.85248  0.56174  0.04563  1.0000
  C   C830      1.0  0.85938  0.54931  0.06650  1.0000
  C   C831      1.0  0.87941  0.55039  0.09140  1.0000
  H   H829      1.0  0.84913  0.53891  0.06367  1.0000
  H   H830      1.0  0.88431  0.54079  0.10772  1.0000
  C   C832      1.0  0.96721  0.64832  0.05745  1.0000
  H   H831      1.0  0.86455  0.55157  0.16634  1.0000
  C   C833      1.0  0.68620  0.49990  0.17005  1.0000
  S   S282      1.0  0.74816  0.54541  0.02994  1.0000
  H   H832      1.0  0.81709  0.58892  0.09894  1.0000
  C   C834      1.0  0.64952  0.52159  0.09484  1.0000
  H   H833      1.0  0.69138  0.52589  0.35066  1.0000
  C   C835      1.0  0.96918  0.60134  0.23692  1.0000
  C   C836      1.0  0.95243  0.60180  0.26539  1.0000
  C   C837      1.0  0.96712  0.60099  0.29450  1.0000
  H   H834      1.0  0.95762  0.60168  0.21470  1.0000
  C   C838      1.0  0.97446  0.63479  0.35242  1.0000
  C   C839      1.0  0.66434  0.49977  0.40028  1.0000
  S   S283      1.0  0.92609  0.57608  0.48280  1.0000
  H   H835      1.0  0.67088  0.54267  0.45866  1.0000
  C   C840      1.0  0.00075  0.60016  0.23739  1.0000
  C   C841      1.0  0.87329  0.52960  0.43296  1.0000
  C   C842      1.0  0.98242  0.56371  0.22268  1.0000
  S   S284      1.0  0.69556  0.48471  0.31528  1.0000
  C   C843      1.0  0.70561  0.51023  0.15640  1.0000
  H   H836      1.0  0.73957  0.50102  0.41173  1.0000
  H   H837      1.0  0.65157  0.55669  0.43226  1.0000
  C   C844      1.0  0.94430  0.63739  0.36218  1.0000
  C   C845      1.0  0.68840  0.48676  0.12134  1.0000
  H   H838      1.0  0.90656  0.54352  0.41206  1.0000
  H   H839      1.0  0.94872  0.56500  0.27542  1.0000
  S   S285      1.0  0.99721  0.57424  0.13435  1.0000
  H   H840      1.0  0.77723  0.57605  0.07296  1.0000
  C   C846      1.0  0.95361  0.66208  0.04491  1.0000
  C   C847      1.0  0.80069  0.54858  0.12774  1.0000
  H   H841      1.0  0.91369  0.64926  0.39431  1.0000
  C   C848      1.0  0.78350  0.55597  0.10345  1.0000
  H   H842      1.0  0.01029  0.59960  0.31717  1.0000
  C   C849      1.0  0.78950  0.57051  0.09281  1.0000
  C   C850      1.0  0.98259  0.56358  0.31114  1.0000
  C   C851      1.0  0.93688  0.64744  0.38593  1.0000
  H   H843      1.0  0.86064  0.52926  0.41139  1.0000
  H   H844      1.0  0.93396  0.54478  0.46193  1.0000
  H   H845      1.0  0.79607  0.53715  0.13533  1.0000
  S   S286      1.0  0.83166  0.48793  0.49618  1.0000
  Fe  Fe142     1.0  0.79450  0.50666  0.49959  1.0000
  C   C852      1.0  0.97278  0.56400  0.27987  1.0000
  C   C853      1.0  0.73111  0.53526  0.36719  1.0000
  H   H846      1.0  0.65868  0.53587  0.39398  1.0000
  H   H847      1.0  0.84637  0.57560  0.14246  1.0000
  C   C854      1.0  0.00075  0.66781  0.01882  1.0000
  C   C855      1.0  0.86630  0.57513  0.04935  1.0000
  C   C856      1.0  0.68207  0.53853  0.39252  1.0000
  H   H848      1.0  0.71200  0.51939  0.17004  1.0000
  S   S287      1.0  0.74102  0.51016  0.01584  1.0000
  H   H849      1.0  0.00848  0.63389  0.06061  1.0000
  H   H850      1.0  0.67833  0.53976  0.08572  1.0000
  Fe  Fe143     1.0  0.00931  0.58627  0.08874  1.0000
  H   H851      1.0  0.74579  0.53044  0.34890  1.0000
  H   H852      1.0  0.89590  0.58678  0.07768  1.0000
  H   H853      1.0  0.73307  0.55561  0.43259  1.0000
  C   C857      1.0  0.98946  0.65205  0.38889  1.0000
  C   C858      1.0  0.91439  0.53826  0.46167  1.0000
  C   C859      1.0  0.69303  0.49096  0.35433  1.0000
  S   S288      1.0  0.00543  0.58627  0.45807  1.0000
  N   N71       1.0  0.99655  0.64215  0.36566  1.0000
  C   C860      1.0  0.86358  0.52226  0.46068  1.0000
  C   C861      1.0  0.71976  0.49344  0.36975  1.0000
  C   C862      1.0  0.72363  0.54930  0.41441  1.0000
  C   C863      1.0  0.95956  0.65487  0.39935  1.0000
  H   H854      1.0  0.64789  0.52339  0.12000  1.0000
  C   C864      1.0  0.67404  0.55217  0.44117  1.0000
  C   C865      1.0  0.97769  0.66679  0.49505  1.0000
  H   H855      1.0  0.92998  0.66516  0.04985  1.0000
  H   H856      1.0  0.97888  0.55205  0.21632  1.0000
  N   N72       1.0  0.69365  0.54677  0.41514  1.0000
  C   C866      1.0  0.97781  0.64191  0.47311  1.0000
  H   H857      1.0  0.64452  0.49216  0.35816  1.0000
  H   H858      1.0  0.93938  0.65340  0.49613  1.0000
  C   C867      1.0  0.96273  0.65399  0.48879  1.0000
  C   C868      1.0  0.81185  0.57771  0.10735  1.0000
  H   H859      1.0  0.83035  0.54932  0.18952  1.0000
  H   H860      1.0  0.76664  0.54545  0.39045  1.0000
  H   H861      1.0  0.59334  0.50240  0.09617  1.0000
  C   C869      1.0  0.70051  0.53279  0.36803  1.0000
  H   H862      1.0  0.68310  0.53560  0.02807  1.0000
  Fe  Fe144     1.0  0.00249  0.60814  0.42912  1.0000
  C   C870      1.0  0.00794  0.64262  0.46345  1.0000
  H   H863      1.0  0.68385  0.56130  0.45355  1.0000
  C   C871      1.0  0.97036  0.67186  0.02584  1.0000
  H   H864      1.0  0.67764  0.50118  0.19395  1.0000
  C   C872      1.0  0.99868  0.60022  0.29497  1.0000
  S   S289      1.0  0.62550  0.49079  0.25417  1.0000
  C   C873      1.0  0.00788  0.66744  0.48558  1.0000
  N   N73       1.0  0.82327  0.55554  0.14113  1.0000
  C   C874      1.0  0.74279  0.54360  0.39047  1.0000
  C   C875      1.0  0.61750  0.50041  0.10256  1.0000
  C   C876      1.0  0.69108  0.50244  0.41553  1.0000
  Fe  Fe145     1.0  0.77882  0.53928  0.47839  1.0000
  C   C877      1.0  0.71884  0.49907  0.40026  1.0000
  H   H865      1.0  0.95425  0.66244  0.41839  1.0000
  H   H866      1.0  0.74133  0.49109  0.35795  1.0000
  H   H867      1.0  0.64275  0.50232  0.41192  1.0000
  C   C878      1.0  0.67722  0.48822  0.15242  1.0000
  H   H868      1.0  0.96094  0.57096  0.21966  1.0000
  H   H869      1.0  0.99890  0.56843  0.20561  1.0000
  C   C879      1.0  0.87084  0.56575  0.49573  1.0000
  S   S290      1.0  0.73154  0.53963  0.49877  1.0000
  H   H870      1.0  0.86059  0.58484  0.03361  1.0000
  H   H871      1.0  0.92698  0.63130  0.35192  1.0000
  Fe  Fe146     1.0  0.79697  0.54143  0.01612  1.0000
  C   C880      1.0  0.87925  0.52336  0.48867  1.0000
  N   N74       1.0  0.99316  0.56371  0.25523  1.0000
  H   H872      1.0  0.96151  0.62743  0.01240  1.0000
  H   H873      1.0  0.68170  0.47770  0.10761  1.0000
  H   H874      1.0  0.61953  0.50255  0.12809  1.0000
  H   H875      1.0  0.62837  0.49824  0.04097  1.0000
  C   C881      1.0  0.65590  0.51666  0.03082  1.0000
  H   H876      1.0  0.95964  0.68241  0.01623  1.0000
  H   H877      1.0  0.00153  0.49047  0.02249  1.0000
  S   S291      1.0  0.64971  0.47626  0.16702  1.0000
  Fe  Fe147     1.0  0.65675  0.47683  0.28769  1.0000
  H   H878      1.0  0.85827  0.50538  0.00824  1.0000
  H   H879      1.0  0.86584  0.72603  0.00935  1.0000
  H   H880      1.0  0.81007  0.48971  0.87670  1.0000
  C   C882      1.0  0.58698  0.53702  0.71161  1.0000
  C   C883      1.0  0.65568  0.66338  0.71189  1.0000
  S   S292      1.0  0.98022  0.70624  0.57954  1.0000
  H   H881      1.0  0.91786  0.70455  0.54743  1.0000
  Fe  Fe148     1.0  0.67199  0.57221  0.78374  1.0000
  S   S293      1.0  0.68652  0.59008  0.74844  1.0000
  S   S294      1.0  0.70969  0.56016  0.81323  1.0000
  Fe  Fe149     1.0  0.60533  0.57817  0.76621  1.0000
  S   S295      1.0  0.61477  0.59669  0.73043  1.0000
  S   S296      1.0  0.56005  0.56841  0.77587  1.0000
  Fe  Fe150     1.0  0.65444  0.58102  0.71518  1.0000
  S   S297      1.0  0.66190  0.57969  0.66200  1.0000
  Fe  Fe151     1.0  0.64631  0.60418  0.76648  1.0000
  S   S298      1.0  0.64781  0.62817  0.78216  1.0000
  S   S299      1.0  0.64310  0.56193  0.74877  1.0000
  S   S300      1.0  0.63359  0.58685  0.80384  1.0000
  Fe  Fe152     1.0  0.76332  0.69118  0.75627  1.0000
  S   S301      1.0  0.76390  0.71006  0.71916  1.0000
  S   S302      1.0  0.75447  0.66816  0.73959  1.0000
  S   S303      1.0  0.74201  0.70545  0.79439  1.0000
  S   S304      1.0  0.81028  0.69412  0.77124  1.0000
  C   C884      1.0  0.54995  0.57553  0.69092  1.0000
  H   H882      1.0  0.88223  0.68355  0.85442  1.0000
  C   C885      1.0  0.85760  0.70785  0.89557  1.0000
  Fe  Fe153     1.0  0.75319  0.52684  0.54085  1.0000
  S   S305      1.0  0.74455  0.52847  0.59383  1.0000
  C   C886      1.0  0.90891  0.67680  0.62327  1.0000
  C   C887      1.0  0.90146  0.48553  0.88596  1.0000
  C   C888      1.0  0.82040  0.49093  0.64330  1.0000
  H   H883      1.0  0.89605  0.70806  0.92627  1.0000
  S   S306      1.0  0.69706  0.54041  0.95914  1.0000
  H   H884      1.0  0.92571  0.66774  0.63018  1.0000
  S   S307      1.0  0.78699  0.53024  0.97145  1.0000
  C   C889      1.0  0.86964  0.49587  0.99672  1.0000
  C   C890      1.0  0.67902  0.63864  0.77237  1.0000
  C   C891      1.0  0.70099  0.63357  0.75045  1.0000
  C   C892      1.0  0.72459  0.64255  0.74161  1.0000
  C   C893      1.0  0.72643  0.65668  0.75451  1.0000
  C   C894      1.0  0.70484  0.66164  0.77699  1.0000
  C   C895      1.0  0.68121  0.65261  0.78589  1.0000
  H   H885      1.0  0.69943  0.62292  0.73964  1.0000
  H   H886      1.0  0.74113  0.63869  0.72409  1.0000
  H   H887      1.0  0.70602  0.67252  0.78700  1.0000
  H   H888      1.0  0.66426  0.65660  0.80289  1.0000
  C   C896      1.0  0.70507  0.55392  0.85322  1.0000
  C   C897      1.0  0.73061  0.54784  0.87000  1.0000
  C   C898      1.0  0.72836  0.54350  0.90231  1.0000
  C   C899      1.0  0.70047  0.54513  0.91817  1.0000
  C   C900      1.0  0.67481  0.55102  0.90130  1.0000
  C   C901      1.0  0.67709  0.55544  0.86896  1.0000
  H   H889      1.0  0.75231  0.54661  0.85798  1.0000
  H   H890      1.0  0.74824  0.53895  0.91494  1.0000
  H   H891      1.0  0.65311  0.55226  0.91333  1.0000
  H   H892      1.0  0.65726  0.56009  0.85628  1.0000
  C   C902      1.0  0.68601  0.56570  0.64358  1.0000
  C   C903      1.0  0.68854  0.56615  0.61040  1.0000
  C   C904      1.0  0.70649  0.55490  0.59478  1.0000
  C   C905      1.0  0.72199  0.54304  0.61226  1.0000
  C   C906      1.0  0.71937  0.54258  0.64545  1.0000
  C   C907      1.0  0.70150  0.55385  0.66108  1.0000
  H   H893      1.0  0.67655  0.57526  0.59668  1.0000
  H   H894      1.0  0.70830  0.55540  0.56925  1.0000
  H   H895      1.0  0.73128  0.53346  0.65919  1.0000
  H   H896      1.0  0.69967  0.55335  0.68662  1.0000
  C   C908      1.0  0.91152  0.49713  0.90293  1.0000
  C   C909      1.0  0.63683  0.67242  0.73125  1.0000
  H   H897      1.0  0.53842  0.59963  0.75746  1.0000
  H   H898      1.0  0.62904  0.52704  0.69271  1.0000
  H   H899      1.0  0.69214  0.71251  0.71085  1.0000
  H   H900      1.0  0.95706  0.71714  0.83751  1.0000
  H   H901      1.0  0.93551  0.49841  0.90449  1.0000
  H   H902      1.0  0.84801  0.69869  0.90896  1.0000
  H   H903      1.0  0.68692  0.70801  0.75238  1.0000
  C   C910      1.0  0.89035  0.70588  0.78938  1.0000
  Fe  Fe154     1.0  0.78987  0.71006  0.80638  1.0000
  C   C911      1.0  0.93877  0.71385  0.82339  1.0000
  H   H904      1.0  0.67266  0.58577  0.92732  1.0000
  H   H905      1.0  0.74630  0.58353  0.86042  1.0000
  H   H906      1.0  0.69701  0.66192  0.68431  1.0000
  S   S308      1.0  0.95850  0.71588  0.98921  1.0000
  H   H907      1.0  0.65853  0.51464  0.00577  1.0000
  H   H908      1.0  0.93905  0.71819  0.63546  1.0000
  H   H909      1.0  0.84425  0.69556  0.64974  1.0000
  C   C912      1.0  0.91631  0.48221  0.97909  1.0000
  H   H910      1.0  0.93749  0.52347  0.52197  1.0000
  H   H911      1.0  0.88937  0.67508  0.81659  1.0000
  N   N75       1.0  0.89802  0.69814  0.81716  1.0000
  H   H912      1.0  0.65564  0.71596  0.72861  1.0000
  H   H913      1.0  0.72980  0.59229  0.80386  1.0000
  C   C913      1.0  0.87252  0.72094  0.67783  1.0000
  N   N76       1.0  0.85021  0.49308  0.90111  1.0000
  H   H914      1.0  0.88225  0.67479  0.66624  1.0000
  H   H915      1.0  0.63680  0.54907  0.65607  1.0000
  C   C914      1.0  0.87451  0.49284  0.57795  1.0000
  H   H916      1.0  0.92996  0.54388  0.51900  1.0000
  Fe  Fe155     1.0  0.80994  0.71409  0.73665  1.0000
  H   H917      1.0  0.85643  0.68796  0.82314  1.0000
  C   C915      1.0  0.86660  0.70011  0.60488  1.0000
  C   C916      1.0  0.89063  0.50677  0.91877  1.0000
  S   S309      1.0  0.00778  0.71157  0.93023  1.0000
  H   H918      1.0  0.55858  0.58356  0.70711  1.0000
  H   H919      1.0  0.89829  0.51550  0.93291  1.0000
  C   C917      1.0  0.91598  0.72194  0.64152  1.0000
  Fe  Fe156     1.0  0.98130  0.70210  0.52773  1.0000
  H   H920      1.0  0.92821  0.69578  0.85607  1.0000
  H   H921      1.0  0.84392  0.51170  0.93118  1.0000
  C   C918      1.0  0.85781  0.48590  0.52695  1.0000
  N   N77       1.0  0.57086  0.56189  0.69040  1.0000
  C   C919      1.0  0.59598  0.56175  0.67120  1.0000
  C   C920      1.0  0.81810  0.49037  0.90122  1.0000
  C   C921      1.0  0.92222  0.70180  0.83388  1.0000
  Fe  Fe157     1.0  0.00415  0.70346  0.98124  1.0000
  C   C922      1.0  0.51919  0.59296  0.76020  1.0000
  H   H922      1.0  0.54671  0.54999  0.72631  1.0000
  H   H923      1.0  0.54749  0.58110  0.66695  1.0000
  S   S310      1.0  0.95592  0.48118  0.97481  1.0000
  C   C923      1.0  0.89720  0.48092  0.57818  1.0000
  S   S311      1.0  0.80071  0.52840  0.52199  1.0000
  C   C924      1.0  0.88451  0.68068  0.64336  1.0000
  Fe  Fe158     1.0  0.74477  0.72475  0.75815  1.0000
  C   C925      1.0  0.97771  0.59087  0.99769  1.0000
  H   H924      1.0  0.76541  0.49719  0.58852  1.0000
  C   C926      1.0  0.52355  0.57763  0.76939  1.0000
  C   C927      1.0  0.90639  0.71796  0.77815  1.0000
  H   H925      1.0  0.85022  0.70939  0.59815  1.0000
  H   H926      1.0  0.80380  0.49947  0.91274  1.0000
  C   C928      1.0  0.79543  0.49805  0.62751  1.0000
  C   C929      1.0  0.86304  0.69230  0.63402  1.0000
  H   H927      1.0  0.94497  0.57459  0.99210  1.0000
  C   C930      1.0  0.56619  0.54974  0.71044  1.0000
  C   C931      1.0  0.88479  0.71315  0.90546  1.0000
  C   C932      1.0  0.85463  0.49521  0.55259  1.0000
  H   H928      1.0  0.72470  0.57602  0.91257  1.0000
  H   H929      1.0  0.87857  0.56401  0.51981  1.0000
  C   C933      1.0  0.85278  0.48527  0.98342  1.0000
  N   N78       1.0  0.89086  0.69640  0.58557  1.0000
  C   C934      1.0  0.91162  0.68475  0.59415  1.0000
  S   S312      1.0  0.81307  0.48763  0.98284  1.0000
  H   H930      1.0  0.60028  0.57156  0.65602  1.0000
  C   C935      1.0  0.61689  0.54909  0.67129  1.0000
  H   H931      1.0  0.65102  0.65178  0.70862  1.0000
  N   N79       1.0  0.66899  0.69269  0.72244  1.0000
  C   C936      1.0  0.68798  0.68379  0.70402  1.0000
  C   C937      1.0  0.64388  0.68714  0.73633  1.0000
  C   C938      1.0  0.68141  0.66909  0.69814  1.0000
  H   H932      1.0  0.70881  0.68785  0.69447  1.0000
  H   H933      1.0  0.88180  0.69879  0.53655  1.0000
  C   C939      1.0  0.67629  0.70799  0.72887  1.0000
  C   C940      1.0  0.85987  0.50456  0.91765  1.0000
  H   H934      1.0  0.78438  0.50855  0.63567  1.0000
  N   N80       1.0  0.70771  0.59814  0.84694  1.0000
  H   H935      1.0  0.90364  0.53261  0.53929  1.0000
  C   C941      1.0  0.91963  0.53290  0.51878  1.0000
  Fe  Fe159     1.0  0.73856  0.53239  0.98780  1.0000
  C   C942      1.0  0.78482  0.49170  0.60086  1.0000
  C   C943      1.0  0.88085  0.68550  0.82834  1.0000
  C   C944      1.0  0.90254  0.71628  0.66954  1.0000
  H   H936      1.0  0.87149  0.49987  0.59809  1.0000
  H   H937      1.0  0.66628  0.61167  0.83912  1.0000
  H   H938      1.0  0.81462  0.47966  0.91493  1.0000
  S   S313      1.0  0.80944  0.70674  0.85604  1.0000
  C   C945      1.0  0.84298  0.71414  0.86819  1.0000
  C   C946      1.0  0.89377  0.70444  0.55478  1.0000
  C   C947      1.0  0.71195  0.58406  0.89678  1.0000
  C   C948      1.0  0.93064  0.72201  0.79542  1.0000
  H   H939      1.0  0.70450  0.60904  0.80074  1.0000
  H   H940      1.0  0.58358  0.52763  0.72824  1.0000
  C   C949      1.0  0.68268  0.58953  0.90505  1.0000
  H   H941      1.0  0.93054  0.68162  0.57850  1.0000
  C   C950      1.0  0.67928  0.60389  0.85519  1.0000
  H   H942      1.0  0.64330  0.60378  0.89015  1.0000
  C   C951      1.0  0.95806  0.61591  0.00714  1.0000
  C   C952      1.0  0.61246  0.53672  0.69181  1.0000
  C   C953      1.0  0.72408  0.58838  0.86732  1.0000
  C   C954      1.0  0.87054  0.48363  0.88537  1.0000
  H   H943      1.0  0.83632  0.50396  0.55343  1.0000
  C   C955      1.0  0.66620  0.59954  0.88418  1.0000
  C   C956      1.0  0.72121  0.60253  0.81638  1.0000
  H   H944      1.0  0.74006  0.60968  0.81988  1.0000
  H   H945      1.0  0.99679  0.58250  0.99579  1.0000
  H   H946      1.0  0.88467  0.71644  0.55575  1.0000
  H   H947      1.0  0.82908  0.49587  0.66384  1.0000
  C   C957      1.0  0.90136  0.49426  0.99480  1.0000
  S   S314      1.0  0.74872  0.50403  0.52124  1.0000
  C   C958      1.0  0.94844  0.58631  0.99567  1.0000
  Fe  Fe160     1.0  0.79049  0.50893  0.00238  1.0000
  H   H948      1.0  0.91428  0.50254  0.00498  1.0000
  H   H949      1.0  0.91544  0.70808  0.68472  1.0000
  H   H950      1.0  0.62939  0.69405  0.75178  1.0000
  H   H951      1.0  0.61738  0.66786  0.74291  1.0000
  H   H952      1.0  0.52708  0.57291  0.69955  1.0000
  H   H953      1.0  0.87147  0.70287  0.77590  1.0000
  N   N81       1.0  0.98219  0.60554  0.00328  1.0000
  C   C959      1.0  0.92372  0.59683  0.99956  1.0000
  S   S315      1.0  0.85673  0.71268  0.71268  1.0000
  H   H954      1.0  0.87127  0.51779  0.51016  1.0000
  C   C960      1.0  0.89721  0.72504  0.88839  1.0000
  C   C961      1.0  0.92850  0.61174  0.00541  1.0000
  S   S316      1.0  0.91690  0.47632  0.61328  1.0000
  H   H955      1.0  0.90094  0.59336  0.99867  1.0000
  C   C962      1.0  0.79960  0.47840  0.59002  1.0000
  Fe  Fe161     1.0  0.96433  0.72564  0.93949  1.0000
  S   S317      1.0  0.95794  0.72476  0.51386  1.0000
  S   S318      1.0  0.99406  0.47664  0.89521  1.0000
  H   H956      1.0  0.89975  0.72419  0.75631  1.0000
  S   S319      1.0  0.95768  0.68183  0.51408  1.0000
  C   C963      1.0  0.83450  0.47754  0.63204  1.0000
  H   H957      1.0  0.91757  0.47788  0.87380  1.0000
  C   C964      1.0  0.85544  0.72603  0.85119  1.0000
  S   S320      1.0  0.55419  0.83918  0.41583  1.0000
  S   S321      1.0  0.78781  0.95010  0.29895  1.0000
  Fe  Fe162     1.0  0.68154  0.86508  0.29165  1.0000
  S   S322      1.0  0.66711  0.87673  0.24536  1.0000
  S   S323      1.0  0.65448  0.87264  0.33540  1.0000
  Fe  Fe163     1.0  0.73832  0.84852  0.26096  1.0000
  S   S324      1.0  0.72685  0.85884  0.21259  1.0000
  S   S325      1.0  0.77677  0.82996  0.27091  1.0000
  Fe  Fe164     1.0  0.71631  0.88042  0.23800  1.0000
  S   S326      1.0  0.72875  0.90302  0.21660  1.0000
  Fe  Fe165     1.0  0.67853  0.85437  0.22403  1.0000
  S   S327      1.0  0.64730  0.84218  0.19343  1.0000
  S   S328      1.0  0.73029  0.87041  0.28574  1.0000
  S   S329      1.0  0.69047  0.84238  0.27095  1.0000
  S   S330      1.0  0.56344  0.86787  0.07846  1.0000
  H   H958      1.0  0.92999  0.77528  0.39353  1.0000
  C   C965      1.0  0.00006  0.74248  0.25637  1.0000
  H   H959      1.0  0.93135  0.74063  0.22351  1.0000
  C   C966      1.0  0.93446  0.77410  0.41872  1.0000
  H   H960      1.0  0.71060  0.88901  0.34406  1.0000
  S   S331      1.0  0.00084  0.80844  0.21867  1.0000
  Fe  Fe166     1.0  0.95835  0.80657  0.24865  1.0000
  S   S332      1.0  0.95902  0.78139  0.24453  1.0000
  S   S333      1.0  0.91917  0.82470  0.23851  1.0000
  Fe  Fe167     1.0  0.98743  0.77967  0.28878  1.0000
  S   S334      1.0  0.97638  0.76151  0.32683  1.0000
  S   S335      1.0  0.96568  0.74841  0.04649  1.0000
  C   C967      1.0  0.69369  0.81041  0.20823  1.0000
  S   S336      1.0  0.98415  0.80478  0.29419  1.0000
  C   C968      1.0  0.98724  0.74340  0.41694  1.0000
  C   C969      1.0  0.69106  0.93304  0.27749  1.0000
  C   C970      1.0  0.70885  0.92547  0.32984  1.0000
  H   H961      1.0  0.79196  0.82322  0.20237  1.0000
  H   H962      1.0  0.97830  0.73430  0.43110  1.0000
  C   C971      1.0  0.70534  0.93642  0.30502  1.0000
  C   C972      1.0  0.76520  0.83237  0.16288  1.0000
  S   S337      1.0  0.51720  0.90116  0.49473  1.0000
  C   C973      1.0  0.68373  0.90829  0.30063  1.0000
  C   C974      1.0  0.73666  0.83351  0.14932  1.0000
  C   C975      1.0  0.92055  0.76340  0.43784  1.0000
  C   C976      1.0  0.96866  0.74252  0.25444  1.0000
  H   H963      1.0  0.89513  0.95947  0.18989  1.0000
  H   H964      1.0  0.69111  0.82727  0.15393  1.0000
  H   H965      1.0  0.97870  0.78718  0.47385  1.0000
  C   C977      1.0  0.92756  0.76163  0.46999  1.0000
  C   C978      1.0  0.00156  0.84729  0.19200  1.0000
  C   C979      1.0  0.68007  0.91891  0.27526  1.0000
  H   H966      1.0  0.78332  0.83834  0.15196  1.0000
  H   H967      1.0  0.71502  0.94717  0.30653  1.0000
  C   C980      1.0  0.81644  0.82894  0.26223  1.0000
  C   C981      1.0  0.83457  0.81580  0.27177  1.0000
  C   C982      1.0  0.86592  0.81428  0.26485  1.0000
  C   C983      1.0  0.87965  0.82590  0.24811  1.0000
  C   C984      1.0  0.86148  0.83901  0.23842  1.0000
  C   C985      1.0  0.83014  0.84054  0.24539  1.0000
  H   H968      1.0  0.82430  0.80673  0.28474  1.0000
  H   H969      1.0  0.87944  0.80413  0.27250  1.0000
  H   H970      1.0  0.87172  0.84809  0.22548  1.0000
  H   H971      1.0  0.81663  0.85071  0.23782  1.0000
  C   C986      1.0  0.62314  0.84989  0.16259  1.0000
  C   C987      1.0  0.60113  0.84108  0.15130  1.0000
  C   C988      1.0  0.58225  0.84649  0.12604  1.0000
  C   C989      1.0  0.58556  0.86070  0.11138  1.0000
  C   C990      1.0  0.60767  0.86948  0.12261  1.0000
  C   C991      1.0  0.62618  0.86418  0.14821  1.0000
  H   H972      1.0  0.59860  0.83000  0.16219  1.0000
  H   H973      1.0  0.56545  0.83958  0.11767  1.0000
  H   H974      1.0  0.61069  0.88042  0.11136  1.0000
  H   H975      1.0  0.64312  0.87104  0.15647  1.0000
  C   C992      1.0  0.77542  0.93660  0.27397  1.0000
  C   C993      1.0  0.77233  0.92188  0.28648  1.0000
  C   C994      1.0  0.75901  0.91132  0.26874  1.0000
  C   C995      1.0  0.74866  0.91539  0.23828  1.0000
  C   C996      1.0  0.75270  0.92995  0.22533  1.0000
  C   C997      1.0  0.76604  0.94053  0.24309  1.0000
  H   H976      1.0  0.77967  0.91875  0.31029  1.0000
  H   H977      1.0  0.75629  0.90013  0.27887  1.0000
  H   H978      1.0  0.74485  0.93315  0.20173  1.0000
  H   H979      1.0  0.76827  0.95184  0.23327  1.0000
  C   C998      1.0  0.58130  0.84877  0.39284  1.0000
  C   C999      1.0  0.58541  0.86398  0.39666  1.0000
  C   C1000     1.0  0.60769  0.87111  0.37867  1.0000
  C   C1001     1.0  0.62578  0.86322  0.35626  1.0000
  C   C1002     1.0  0.62116  0.84810  0.35188  1.0000
  C   C1003     1.0  0.59918  0.84091  0.37024  1.0000
  H   H980      1.0  0.57193  0.87018  0.41400  1.0000
  H   H981      1.0  0.61108  0.88278  0.38236  1.0000
  H   H982      1.0  0.63495  0.84187  0.33484  1.0000
  H   H983      1.0  0.59622  0.82914  0.36708  1.0000
  C   C1004     1.0  0.51739  0.90544  0.06860  1.0000
  H   H984      1.0  0.57614  0.90014  0.08408  1.0000
  N   N82       1.0  0.71844  0.81771  0.19202  1.0000
  C   C1005     1.0  0.00560  0.73724  0.20203  1.0000
  Fe  Fe168     1.0  0.52167  0.85892  0.05741  1.0000
  N   N83       1.0  0.54132  0.91345  0.05959  1.0000
  H   H985      1.0  0.90993  0.96106  0.22878  1.0000
  H   H986      1.0  0.96678  0.79086  0.41695  1.0000
  C   C1006     1.0  0.95572  0.74013  0.22554  1.0000
  C   C1007     1.0  0.00979  0.76710  0.37970  1.0000
  H   H987      1.0  0.90491  0.75634  0.42766  1.0000
  S   S338      1.0  0.52166  0.85713  0.49719  1.0000
  H   H988      1.0  0.67989  0.89865  0.36520  1.0000
  C   C1008     1.0  0.97587  0.84696  0.21141  1.0000
  N   N84       1.0  0.94802  0.77023  0.48263  1.0000
  H   H989      1.0  0.57417  0.89706  0.04254  1.0000
  H   H990      1.0  0.93905  0.76478  0.09840  1.0000
  H   H991      1.0  0.95448  0.74491  0.27506  1.0000
  H   H992      1.0  0.96280  0.73914  0.37510  1.0000
  C   C1009     1.0  0.95511  0.78287  0.43187  1.0000
  H   H993      1.0  0.71841  0.90302  0.37101  1.0000
  C   C1010     1.0  0.70205  0.90009  0.35328  1.0000
  H   H994      1.0  0.93522  0.95726  0.19571  1.0000
  C   C1011     1.0  0.96269  0.76222  0.10370  1.0000
  C   C1012     1.0  0.91389  0.96362  0.20313  1.0000
  C   C1013     1.0  0.97875  0.84744  0.24417  1.0000
  C   C1014     1.0  0.77009  0.82388  0.19114  1.0000
  H   H995      1.0  0.00494  0.83699  0.30208  1.0000
  H   H996      1.0  0.97855  0.96851  0.28502  1.0000
  C   C1015     1.0  0.96178  0.78073  0.46403  1.0000
  H   H997      1.0  0.95939  0.77346  0.14810  1.0000
  C   C1016     1.0  0.74626  0.81669  0.20562  1.0000
  H   H998      1.0  0.72083  0.92805  0.35069  1.0000
  C   C1017     1.0  0.97417  0.76718  0.13197  1.0000
  H   H999      1.0  0.52115  0.89371  0.07687  1.0000
  H   H1000     1.0  0.75003  0.81054  0.22819  1.0000
  C   C1018     1.0  0.98946  0.75812  0.36635  1.0000
  H   H1001     1.0  0.68952  0.94115  0.25748  1.0000
  C   C1019     1.0  0.53667  0.92820  0.04875  1.0000
  H   H1002     1.0  0.66985  0.91596  0.25357  1.0000
  H   H1003     1.0  0.67441  0.80954  0.19223  1.0000
  H   H1004     1.0  0.68506  0.81722  0.22826  1.0000
  H   H1005     1.0  0.67534  0.89729  0.29864  1.0000
  Fe  Fe169     1.0  0.00282  0.78309  0.21737  1.0000
  H   H1006     1.0  0.73231  0.84039  0.12778  1.0000
  H   H1007     1.0  0.58956  0.91379  0.05563  1.0000
  H   H1008     1.0  0.95392  0.84583  0.20133  1.0000
  C   C1020     1.0  0.71339  0.82606  0.16430  1.0000
  H   H1009     1.0  0.70145  0.79886  0.21741  1.0000
  N   N85       1.0  0.69833  0.91156  0.32727  1.0000
  H   H1010     1.0  0.95877  0.84667  0.25915  1.0000
  Fe  Fe170     1.0  0.51782  0.85136  0.44620  1.0000
  C   C1021     1.0  0.97846  0.74620  0.38513  1.0000
  C   C1022     1.0  0.98152  0.75411  0.08212  1.0000
  C   C1023     1.0  0.57187  0.90584  0.06044  1.0000
  S   S339      1.0  0.84149  0.97352  0.24257  1.0000
  C   C1024     1.0  0.00728  0.75249  0.43040  1.0000
  H   H1011     1.0  0.96452  0.73606  0.17622  1.0000
  H   H1012     1.0  0.91685  0.75321  0.48464  1.0000
  H   H1013     1.0  0.55547  0.93445  0.04045  1.0000
  H   H1014     1.0  0.52165  0.85658  0.36812  1.0000
  H   H1015     1.0  0.00981  0.74488  0.27870  1.0000
  N   N86       1.0  0.00639  0.84846  0.25721  1.0000
  C   C1025     1.0  0.00479  0.76415  0.13906  1.0000
  C   C1026     1.0  0.00877  0.84840  0.29170  1.0000
  H   H1016     1.0  0.99186  0.85685  0.30165  1.0000
  Fe  Fe171     1.0  0.80609  0.97201  0.28057  1.0000
  C   C1027     1.0  0.97427  0.73747  0.19910  1.0000
  H   H1017     1.0  0.99970  0.84648  0.16665  1.0000
  H   H1018     1.0  0.90579  0.74059  0.03055  1.0000
  C   C1028     1.0  0.86550  0.73803  0.96382  1.0000
  C   C1029     1.0  0.86974  0.73736  0.63008  1.0000
  S   S340      1.0  0.56636  0.75312  0.78730  1.0000
  H   H1019     1.0  0.54951  0.97349  0.77021  1.0000
  H   H1020     1.0  0.63137  0.78997  0.77612  1.0000
  S   S341      1.0  0.00461  0.73934  0.56062  1.0000
  S   S342      1.0  0.98804  0.74526  0.95561  1.0000
  H   H1021     1.0  0.57358  0.76723  0.85468  1.0000
  C   C1030     1.0  0.51661  0.81759  0.61209  1.0000
  H   H1022     1.0  0.94289  0.73156  0.78731  1.0000
  H   H1023     1.0  0.92800  0.76024  0.99657  1.0000
  H   H1024     1.0  0.91918  0.76425  0.91228  1.0000
  C   C1031     1.0  0.62402  0.73896  0.79037  1.0000
  S   S343      1.0  0.52348  0.96910  0.61761  1.0000
  H   H1025     1.0  0.53300  0.93629  0.88537  1.0000
  H   H1026     1.0  0.61512  0.73241  0.81009  1.0000
  H   H1027     1.0  0.56222  0.90135  0.56208  1.0000
  C   C1032     1.0  0.53002  0.90776  0.59878  1.0000
  H   H1028     1.0  0.52652  0.91066  0.90930  1.0000
  C   C1033     1.0  0.66691  0.74495  0.75656  1.0000
  S   S344      1.0  0.70567  0.74233  0.74437  1.0000
  H   H1029     1.0  0.85697  0.74563  0.61495  1.0000
  C   C1034     1.0  0.57488  0.81376  0.80547  1.0000
  C   C1035     1.0  0.61225  0.79400  0.79064  1.0000
  C   C1036     1.0  0.56248  0.80354  0.82715  1.0000
  H   H1030     1.0  0.53786  0.77593  0.84182  1.0000
  N   N87       1.0  0.57460  0.78891  0.83038  1.0000
  C   C1037     1.0  0.54282  0.89822  0.57610  1.0000
  C   C1038     1.0  0.91041  0.75406  0.98717  1.0000
  S   S345      1.0  0.93153  0.73214  0.89909  1.0000
  C   C1039     1.0  0.91462  0.76841  0.93641  1.0000
  S   S346      1.0  0.79143  0.73040  0.77286  1.0000
  H   H1031     1.0  0.60922  0.81660  0.76949  1.0000
  H   H1032     1.0  0.54258  0.80729  0.84074  1.0000
  Fe  Fe172     1.0  0.95973  0.72930  0.56547  1.0000
  C   C1040     1.0  0.59982  0.80890  0.78696  1.0000
  H   H1033     1.0  0.89150  0.74083  0.84819  1.0000
  C   C1041     1.0  0.60468  0.74992  0.77398  1.0000
  H   H1034     1.0  0.56455  0.82522  0.80245  1.0000
  S   S347      1.0  0.53382  0.94759  0.96286  1.0000
  C   C1042     1.0  0.65487  0.73646  0.78175  1.0000
  C   C1043     1.0  0.64757  0.75594  0.74023  1.0000
  C   C1044     1.0  0.61670  0.75841  0.74881  1.0000
  H   H1035     1.0  0.53134  0.92967  0.51614  1.0000
  H   H1036     1.0  0.54056  0.81417  0.61251  1.0000
  H   H1037     1.0  0.65654  0.76258  0.72070  1.0000
  H   H1038     1.0  0.60225  0.76692  0.73600  1.0000
  N   N88       1.0  0.90112  0.75685  0.95667  1.0000
  C   C1045     1.0  0.88217  0.73157  0.86150  1.0000
  C   C1046     1.0  0.55987  0.77824  0.85177  1.0000
  C   C1047     1.0  0.52923  0.88506  0.57004  1.0000
  C   C1048     1.0  0.59935  0.78413  0.81271  1.0000
  Fe  Fe173     1.0  0.51517  0.96961  0.93914  1.0000
  H   H1039     1.0  0.53954  0.91834  0.60274  1.0000
  C   C1049     1.0  0.87853  0.74924  0.94512  1.0000
  H   H1040     1.0  0.60894  0.77253  0.81515  1.0000
  H   H1041     1.0  0.53853  0.87810  0.55128  1.0000
  H   H1042     1.0  0.55602  0.78294  0.87547  1.0000
  C   C1050     1.0  0.52252  0.91847  0.97870  1.0000
  H   H1043     1.0  0.89913  0.77886  0.93482  1.0000
  H   H1044     1.0  0.87114  0.75147  0.92094  1.0000
  S   S348      1.0  0.52823  0.79422  0.76075  1.0000
  H   H1045     1.0  0.54682  0.91624  0.97950  1.0000
  S   S349      1.0  0.91585  0.73995  0.58615  1.0000
  C   C1051     1.0  0.89968  0.73257  0.62168  1.0000
  Fe  Fe174     1.0  0.52642  0.76921  0.76910  1.0000
  H   H1046     1.0  0.84432  0.73104  0.83022  1.0000
  C   C1052     1.0  0.85609  0.73150  0.65791  1.0000
  Fe  Fe175     1.0  0.00429  0.73283  0.50949  1.0000
  C   C1053     1.0  0.87538  0.73484  0.99470  1.0000
  H   H1047     1.0  0.93668  0.77116  0.94560  1.0000
  H   H1048     1.0  0.83299  0.73520  0.66401  1.0000
  H   H1049     1.0  0.84826  0.73170  0.95414  1.0000
  H   H1050     1.0  0.66939  0.72810  0.79485  1.0000
  H   H1051     1.0  0.51396  0.89562  0.99310  1.0000
  S   S350      1.0  0.51495  0.80229  0.67021  1.0000
  H   H1052     1.0  0.51848  0.82790  0.56470  1.0000
  C   C1054     1.0  0.95516  0.76846  0.51635  1.0000
  C   C1055     1.0  0.52512  0.97526  0.77086  1.0000
  H   H1053     1.0  0.52220  0.97440  0.82178  1.0000
  H   H1054     1.0  0.94672  0.77875  0.52861  1.0000
  Fe  Fe176     1.0  0.98531  0.73468  0.00503  1.0000
  S   S351      1.0  0.53181  0.97525  0.88982  1.0000
  H   H1055     1.0  0.98002  0.76652  0.51931  1.0000
  H   H1056     1.0  0.94482  0.75867  0.52824  1.0000
  C   C1056     1.0  0.89778  0.74299  0.00659  1.0000
  S   S352      1.0  0.51571  0.86263  0.00459  1.0000
