data_image0
_chemical_formula_structural       FeS2Fe2SFeSCH2SCNCFe2SH2S2C2H2C3HSC2HCHCH3C4HCHCFeCHCNHCHCS2NC6H11CHCSCH5CH3CH2CH3NCH2FeCH2CH2FeSHFeS2FeSFeNS2FeS2FeS2FeSFeS3NHFeS2FeHFeCFeS3FeCSCSH3FeS2C2H6C4HC2NC3HSC10H4C6H5C6H4NCH3C6H4SCNC3H4CNC6H9SHC2HC2HCH2CH4C2HC3HSCH2SC2H3NC3HC2H5C2HCHCSCHC2H2CHC2HCS2HC4HFeSHS2HSHNFeHC2HCHCHCSHCH2C2HCHC3S2Fe2SFeSCH2SH2CH2CSHS2H2CHCHCFeHC2HCNHNHCHC7HCHCHC2NSC2H6SHCHC2SH3SFeH2C3H3C2FeHC3SHNH2C5H5CHCHFeHFeNCSC4HC3H2FeS2FeS2FeSFeHSHFeS2FeS2FeSFeS3H2FeS2Fe3HFe2S2FeHSCSCH2FeS3HCH2C2HC2H2CSH3C5HC8H4C6H4C7H4CSC2HC6H4C2NC6H2SH5NC3HC2HNCHCNSH2C2SH4CSHCH5S2C2HNH5SCH3C2NC6H3CH3SH3CHC3HC3H2CHC2HSCHCHCHNHNFeS2FeS2FeSFeS3H4CS3FeS3NH2C3HC6H4C6H4CH2CHC2SCH2CHC4H3CFeC2NCNCHCHFeCH2CHCHC2H2CHC2H2C2HCHC2SH2CH4CH3CH2CFeS2FeS2FeSFeS3H2SFeS2HCH2CH3C7H4C6H4CH2CHSHCHC4HCH4C2HCH3CFeHC2HC3HCNCH3NH2NH2C2HC3HSH2CHCHC2HCHC2NCHC2H3C2H2C2S3CHFeNHC3HFeHCHCFeCFeS2FeS2FeSFeS3CH3CFeCSFeSHSFeHCHCNHC6H4C6H6CHCHC2HC2HC2S3HFeC2SH3CH2NCHCHCH4C3FeC5SH7CHSC2HCH2C3HNCHCHCHC2HCH2CHC2HFeS2FeS2FeSFeS4CSFeS2CH4CH2C7H4C6H4CSH4CHC5H3SHC2SHCH2CHCH2C3HNHCHC3NC2HC3H3CH2C2H2CHCH4NC2H3C2FeC2H3FeCNC2HCHCH2C2SCHCHCNHCHFeS2FeS2FeSFeS3FeS2FeS2FeSFeS3FeS2CSHCNFeS2CFeS2HFeC3S2H2C2H2CHSH3CHC2HCH2C6H4C6H4C2H3C6H4C2H2CNC4NC7H2SNC3NCHC2HNCNC6H9CHCH6C2HCHFeCHFeCH3CNCH3FeHNCH3C3HC2H4C2HC4HCHFeHCHSHCH4CH3SH3CHC2H2CHC2H3CFeNHFeSCHSFeS3HCHNH2FeCFeS2HC2SCH2CSCH2CH2CHSC5H2C2H3C2H2SCSH3C6H3CH2SH2CH2CH2C2HCH2FeH3C2HCH2C3HNHSCH2C2FeH2CS2CFeS3CHC2Fe2S2FeS2FeSFeS3FeS2FeS2FeSFeS3FeHSCSC2FeCS2CFeS2H2CFeCS2H3CFeCH2NH2CFeCHNC2HC7H4C6H4C2HFeHC6H4C2H2NC2H2C2HC6HNC6H8NC6HCH4SH2SCHCH4SNCHCHCHC5HCHCHFeHC2HCNSH3CHCH3CH6C2HCH7CH2CHC4H2CH3SCSCFeHSHNCHCH2FeSFeHSC3NC2HFe2HCHC3H2SH4CHCSH2FeH2CSCHCFeHC2HC3H3C3HSC2H2CS2NC4HSH2S2CH4CH2SH2C2SCNC2HCS3H2C2HC
_chemical_formula_sum              "Fe128 S256 C768 H768 N64"
_cell_length_a       81.4964
_cell_length_b       46.3103
_cell_length_c       36.7997
_cell_angle_alpha    89.6617
_cell_angle_beta     94.3413
_cell_angle_gamma    89.0446

_space_group_name_H-M_alt    "P 1"
_space_group_IT_number       1

loop_
  _space_group_symop_operation_xyz
  'x, y, z'

loop_
  _atom_site_type_symbol
  _atom_site_label
  _atom_site_symmetry_multiplicity
  _atom_site_fract_x
  _atom_site_fract_y
  _atom_site_fract_z
  _atom_site_occupancy
  Fe  Fe1       1.0  0.28297  0.47111  0.37722  1.0000
  S   S1        1.0  0.26364  0.44471  0.34618  1.0000
  S   S2        1.0  0.30932  0.45307  0.37489  1.0000
  Fe  Fe2       1.0  0.24849  0.01696  0.39361  1.0000
  Fe  Fe3       1.0  0.18252  0.49075  0.98971  1.0000
  S   S3        1.0  0.23453  0.05897  0.40788  1.0000
  Fe  Fe4       1.0  0.24801  0.45096  0.39343  1.0000
  S   S4        1.0  0.23038  0.41755  0.41557  1.0000
  C   C1        1.0  0.24540  0.08690  0.47264  1.0000
  H   H1        1.0  0.22824  0.03565  0.48390  1.0000
  H   H2        1.0  0.23218  0.17367  0.40216  1.0000
  S   S5        1.0  0.26796  0.01563  0.35278  1.0000
  C   C2        1.0  0.29432  0.44242  0.27907  1.0000
  N   N1        1.0  0.25308  0.20073  0.47694  1.0000
  C   C3        1.0  0.24815  0.18140  0.45048  1.0000
  Fe  Fe5       1.0  0.21434  0.01179  0.99381  1.0000
  Fe  Fe6       1.0  0.21015  0.44727  0.01632  1.0000
  S   S6        1.0  0.21621  0.39918  0.02302  1.0000
  H   H3        1.0  0.25713  0.10251  0.02701  1.0000
  H   H4        1.0  0.22431  0.33857  0.02571  1.0000
  S   S7        1.0  0.18572  0.45963  0.03699  1.0000
  S   S8        1.0  0.19437  0.02750  0.02781  1.0000
  C   C4        1.0  0.26536  0.17352  0.03861  1.0000
  C   C5        1.0  0.25759  0.14715  0.04218  1.0000
  H   H5        1.0  0.21364  0.08345  0.00526  1.0000
  H   H6        1.0  0.29689  0.42631  0.25794  1.0000
  C   C6        1.0  0.27903  0.17513  0.01813  1.0000
  C   C7        1.0  0.28448  0.15044  0.00060  1.0000
  C   C8        1.0  0.21757  0.37064  0.45028  1.0000
  H   H7        1.0  0.15121  0.39177  0.00124  1.0000
  S   S9        1.0  0.23615  0.49221  0.36908  1.0000
  C   C9        1.0  0.22141  0.10756  0.43909  1.0000
  C   C10       1.0  0.26350  0.12276  0.02472  1.0000
  H   H8        1.0  0.25291  0.15936  0.45158  1.0000
  C   C11       1.0  0.22866  0.34713  0.00084  1.0000
  H   H9        1.0  0.26068  0.19278  0.05123  1.0000
  C   C12       1.0  0.99001  0.47064  0.99835  1.0000
  H   H10       1.0  0.16566  0.00287  0.11932  1.0000
  H   H11       1.0  0.20584  0.03129  0.43489  1.0000
  H   H12       1.0  0.98774  0.16173  0.29724  1.0000
  C   C13       1.0  0.24722  0.37148  0.45302  1.0000
  C   C14       1.0  0.21817  0.34458  0.47075  1.0000
  C   C15       1.0  0.22175  0.09463  0.98815  1.0000
  C   C16       1.0  0.23012  0.21763  0.42079  1.0000
  H   H13       1.0  0.10585  0.48891  0.98969  1.0000
  C   C17       1.0  0.23645  0.18942  0.42230  1.0000
  H   H14       1.0  0.00791  0.25575  0.44133  1.0000
  C   C18       1.0  0.23205  0.38430  0.44111  1.0000
  Fe  Fe7       1.0  0.25337  0.48715  0.32377  1.0000
  C   C19       1.0  0.14781  0.00471  0.07343  1.0000
  H   H15       1.0  0.22090  0.22411  0.39934  1.0000
  C   C20       1.0  0.21035  0.01228  0.45024  1.0000
  N   N2        1.0  0.27665  0.12475  0.00385  1.0000
  H   H16       1.0  0.99687  0.46257  0.02272  1.0000
  C   C21       1.0  0.23398  0.08619  0.44224  1.0000
  H   H17       1.0  0.24675  0.14579  0.05746  1.0000
  C   C22       1.0  0.22015  0.12915  0.46587  1.0000
  S   S10       1.0  0.25226  0.48973  0.26101  1.0000
  S   S11       1.0  0.22420  0.48054  0.04959  1.0000
  N   N3        1.0  0.21381  0.42156  0.14117  1.0000
  C   C23       1.0  0.21362  0.42618  0.17783  1.0000
  C   C24       1.0  0.22842  0.41900  0.12532  1.0000
  C   C25       1.0  0.22835  0.42751  0.19986  1.0000
  C   C26       1.0  0.24338  0.42053  0.14649  1.0000
  C   C27       1.0  0.24330  0.42473  0.18402  1.0000
  C   C28       1.0  0.19815  0.42004  0.11896  1.0000
  H   H18       1.0  0.20205  0.42940  0.19012  1.0000
  H   H19       1.0  0.22860  0.41587  0.09613  1.0000
  H   H20       1.0  0.22818  0.43174  0.22884  1.0000
  H   H21       1.0  0.25493  0.41875  0.13374  1.0000
  H   H22       1.0  0.25477  0.42664  0.20076  1.0000
  H   H23       1.0  0.19993  0.41284  0.09072  1.0000
  H   H24       1.0  0.18989  0.40442  0.13107  1.0000
  H   H25       1.0  0.19203  0.44167  0.11751  1.0000
  H   H26       1.0  0.13640  0.49108  0.99780  1.0000
  H   H27       1.0  0.20574  0.38023  0.44136  1.0000
  H   H28       1.0  0.18164  0.38450  0.00228  1.0000
  C   C29       1.0  0.99794  0.24359  0.45133  1.0000
  H   H29       1.0  0.25850  0.38154  0.44635  1.0000
  C   C30       1.0  0.23563  0.23745  0.44719  1.0000
  S   S12       1.0  0.26799  0.47437  0.42637  1.0000
  C   C31       1.0  0.23333  0.33166  0.48247  1.0000
  H   H30       1.0  0.21247  0.10731  0.41580  1.0000
  H   H31       1.0  0.19776  0.00050  0.20268  1.0000
  H   H32       1.0  0.25400  0.49344  0.18368  1.0000
  H   H33       1.0  0.21039  0.14530  0.46291  1.0000
  H   H34       1.0  0.25964  0.33573  0.48219  1.0000
  C   C32       1.0  0.24782  0.34539  0.47341  1.0000
  H   H35       1.0  0.25520  0.07083  0.47554  1.0000
  H   H36       1.0  0.29535  0.09394  0.99413  1.0000
  H   H37       1.0  0.28525  0.19547  0.01534  1.0000
  C   C33       1.0  0.24717  0.22856  0.47528  1.0000
  H   H38       1.0  0.29575  0.43177  0.30632  1.0000
  H   H39       1.0  0.13017  0.99973  0.02737  1.0000
  C   C34       1.0  0.22642  0.37669  0.99253  1.0000
  H   H40       1.0  0.14808  0.02805  0.07096  1.0000
  H   H41       1.0  0.23080  0.25948  0.44639  1.0000
  H   H42       1.0  0.21922  0.46345  0.46079  1.0000
  N   N4        1.0  0.30567  0.46659  0.27816  1.0000
  C   C35       1.0  0.22908  0.47215  0.47875  1.0000
  H   H43       1.0  0.28127  0.44973  0.27402  1.0000
  H   H44       1.0  0.20688  0.33447  0.47732  1.0000
  Fe  Fe8       1.0  0.17751  0.99807  0.99422  1.0000
  C   C36       1.0  0.22299  0.01474  0.47771  1.0000
  H   H45       1.0  0.31283  0.01049  0.34075  1.0000
  H   H46       1.0  0.21394  0.13714  0.00430  1.0000
  C   C37       1.0  0.99971  0.23217  0.48712  1.0000
  H   H47       1.0  0.99798  0.30373  0.48629  1.0000
  H   H48       1.0  0.27476  0.08020  0.98838  1.0000
  Fe  Fe9       1.0  0.21828  0.26531  0.53384  1.0000
  S   S13       1.0  0.23240  0.23296  0.57100  1.0000
  H   H49       1.0  0.01532  0.07765  0.80114  1.0000
  Fe  Fe10      1.0  0.18533  0.23629  0.54802  1.0000
  S   S14       1.0  0.19748  0.20194  0.58490  1.0000
  S   S15       1.0  0.15752  0.24420  0.53529  1.0000
  Fe  Fe11      1.0  0.21258  0.23819  0.60981  1.0000
  S   S16       1.0  0.21365  0.24809  0.67109  1.0000
  Fe  Fe12      1.0  0.21655  0.19867  0.54316  1.0000
  N   N5        1.0  0.98596  0.29290  0.53398  1.0000
  S   S17       1.0  0.19950  0.27290  0.57470  1.0000
  S   S18       1.0  0.20338  0.23072  0.50418  1.0000
  Fe  Fe13      1.0  0.06606  0.22614  0.61550  1.0000
  S   S19       1.0  0.05550  0.22903  0.67064  1.0000
  S   S20       1.0  0.09377  0.21433  0.61976  1.0000
  Fe  Fe14      1.0  0.03118  0.23252  0.57370  1.0000
  S   S21       1.0  0.01899  0.23520  0.62653  1.0000
  S   S22       1.0  0.01821  0.23935  0.51550  1.0000
  Fe  Fe15      1.0  0.03935  0.26548  0.64628  1.0000
  S   S23       1.0  0.03234  0.31094  0.66709  1.0000
  Fe  Fe16      1.0  0.03624  0.19860  0.64705  1.0000
  S   S24       1.0  0.02672  0.15672  0.67202  1.0000
  S   S25       1.0  0.05102  0.26426  0.59244  1.0000
  S   S26       1.0  0.04730  0.19429  0.59290  1.0000
  N   N6        1.0  0.17528  0.42257  0.92361  1.0000
  H   H50       1.0  0.06972  0.16727  0.66266  1.0000
  Fe  Fe17      1.0  0.26435  0.22096  0.86435  1.0000
  S   S27       1.0  0.24191  0.23657  0.89049  1.0000
  S   S28       1.0  0.26491  0.21008  0.80377  1.0000
  Fe  Fe18      1.0  0.28640  0.22279  0.93756  1.0000
  H   H51       1.0  0.25121  0.24400  0.49602  1.0000
  Fe  Fe19      1.0  0.25009  0.20589  0.93647  1.0000
  C   C38       1.0  0.15176  0.28945  0.60753  1.0000
  Fe  Fe20      1.0  0.25880  0.26847  0.91944  1.0000
  S   S29       1.0  0.25227  0.31666  0.91414  1.0000
  S   S30       1.0  0.27143  0.18798  0.90848  1.0000
  S   S31       1.0  0.28118  0.25415  0.89090  1.0000
  Fe  Fe21      1.0  0.04577  0.44455  0.82065  1.0000
  C   C39       1.0  0.11402  0.48831  0.90062  1.0000
  S   S32       1.0  0.04950  0.39752  0.80104  1.0000
  C   C40       1.0  0.12600  0.27383  0.64823  1.0000
  S   S33       1.0  0.04747  0.01523  0.87760  1.0000
  H   H52       1.0  0.23309  0.31959  0.74861  1.0000
  H   H53       1.0  0.16161  0.29456  0.59036  1.0000
  H   H54       1.0  0.23856  0.32313  0.81584  1.0000
  Fe  Fe22      1.0  0.04571  0.01550  0.81576  1.0000
  S   S34       1.0  0.05212  0.05901  0.78917  1.0000
  S   S35       1.0  0.04364  0.44940  0.88138  1.0000
  C   C41       1.0  0.23207  0.07878  0.96671  1.0000
  C   C42       1.0  0.98965  0.48455  0.93397  1.0000
  H   H55       1.0  0.99323  0.05263  0.94541  1.0000
  H   H56       1.0  0.25069  0.13522  0.92660  1.0000
  H   H57       1.0  0.19769  0.43044  0.89830  1.0000
  H   H58       1.0  0.03254  0.08051  0.91397  1.0000
  H   H59       1.0  0.02567  0.31760  0.58836  1.0000
  H   H60       1.0  0.03689  0.08322  0.62511  1.0000
  C   C43       1.0  0.24053  0.45303  0.49659  1.0000
  C   C44       1.0  0.12159  0.01797  0.93638  1.0000
  C   C45       1.0  0.99849  0.06277  0.83932  1.0000
  C   C46       1.0  0.01023  0.38593  0.81116  1.0000
  H   H61       1.0  0.09678  0.01901  0.91042  1.0000
  C   C47       1.0  0.23212  0.38742  0.96026  1.0000
  C   C48       1.0  0.24698  0.31132  0.79965  1.0000
  N   N7        1.0  0.00825  0.06480  0.90255  1.0000
  C   C49       1.0  0.23999  0.36872  0.93667  1.0000
  C   C50       1.0  0.24231  0.33915  0.94504  1.0000
  C   C51       1.0  0.13962  0.49121  0.94034  1.0000
  H   H62       1.0  0.24446  0.37725  0.91190  1.0000
  S   S36       1.0  0.15278  0.01796  0.97143  1.0000
  C   C52       1.0  0.24266  0.12406  0.94390  1.0000
  C   C53       1.0  0.01446  0.31100  0.57305  1.0000
  C   C54       1.0  0.23244  0.13992  0.96555  1.0000
  C   C55       1.0  0.24248  0.09366  0.94456  1.0000
  C   C56       1.0  0.03365  0.13060  0.70613  1.0000
  C   C57       1.0  0.02459  0.10516  0.70953  1.0000
  C   C58       1.0  0.02992  0.08314  0.73476  1.0000
  C   C59       1.0  0.04435  0.08636  0.75744  1.0000
  C   C60       1.0  0.05327  0.11200  0.75447  1.0000
  C   C61       1.0  0.04802  0.13391  0.72900  1.0000
  H   H63       1.0  0.01345  0.10228  0.69207  1.0000
  H   H64       1.0  0.02293  0.06358  0.73633  1.0000
  H   H65       1.0  0.06442  0.11488  0.77187  1.0000
  H   H66       1.0  0.05509  0.15334  0.72707  1.0000
  C   C62       1.0  0.03784  0.33487  0.70419  1.0000
  C   C63       1.0  0.03157  0.36350  0.70279  1.0000
  C   C64       1.0  0.03528  0.38315  0.73152  1.0000
  C   C65       1.0  0.04519  0.37440  0.76253  1.0000
  C   C66       1.0  0.05139  0.34575  0.76402  1.0000
  C   C67       1.0  0.04785  0.32621  0.73509  1.0000
  H   H67       1.0  0.02386  0.37063  0.67912  1.0000
  H   H68       1.0  0.03044  0.40504  0.72967  1.0000
  H   H69       1.0  0.05902  0.33856  0.78778  1.0000
  H   H70       1.0  0.05275  0.30436  0.73689  1.0000
  H   H71       1.0  0.27740  0.20057  0.50201  1.0000
  C   C68       1.0  0.13974  0.23360  0.55738  1.0000
  C   C69       1.0  0.14071  0.21502  0.58765  1.0000
  C   C70       1.0  0.12643  0.20885  0.60564  1.0000
  C   C71       1.0  0.11099  0.22113  0.59379  1.0000
  C   C72       1.0  0.10995  0.23916  0.56303  1.0000
  C   C73       1.0  0.12422  0.24525  0.54495  1.0000
  H   H72       1.0  0.15245  0.20549  0.59728  1.0000
  H   H73       1.0  0.12741  0.19470  0.62922  1.0000
  H   H74       1.0  0.09820  0.24868  0.55337  1.0000
  H   H75       1.0  0.12326  0.25947  0.52141  1.0000
  N   N8        1.0  0.15459  0.27078  0.63635  1.0000
  C   C74       1.0  0.13598  0.30091  0.59848  1.0000
  H   H76       1.0  0.04946  0.04932  0.67253  1.0000
  H   H77       1.0  0.15209  0.43844  0.90046  1.0000
  H   H78       1.0  0.01757  0.36714  0.80466  1.0000
  C   C75       1.0  0.22729  0.23492  0.70784  1.0000
  C   C76       1.0  0.22459  0.24352  0.74358  1.0000
  C   C77       1.0  0.23571  0.23549  0.77336  1.0000
  C   C78       1.0  0.24976  0.21883  0.76773  1.0000
  C   C79       1.0  0.25238  0.21000  0.73204  1.0000
  C   C80       1.0  0.24120  0.21787  0.70228  1.0000
  H   H79       1.0  0.21390  0.25674  0.74826  1.0000
  H   H80       1.0  0.23354  0.24253  0.80058  1.0000
  H   H81       1.0  0.26319  0.19709  0.72734  1.0000
  H   H82       1.0  0.24348  0.21109  0.67500  1.0000
  S   S37       1.0  0.99921  0.48914  0.89175  1.0000
  C   C81       1.0  0.10682  0.00543  0.92188  1.0000
  N   N9        1.0  0.07003  0.12207  0.65435  1.0000
  C   C82       1.0  0.07698  0.10368  0.68065  1.0000
  C   C83       1.0  0.06983  0.07704  0.68718  1.0000
  C   C84       1.0  0.07704  0.15059  0.64913  1.0000
  H   H83       1.0  0.08782  0.10987  0.69748  1.0000
  H   H84       1.0  0.07498  0.06296  0.70900  1.0000
  H   H85       1.0  0.09005  0.15172  0.66044  1.0000
  H   H86       1.0  0.07696  0.15609  0.61965  1.0000
  C   C85       1.0  0.11293  0.48902  0.96597  1.0000
  N   N10       1.0  0.19530  0.11589  0.91297  1.0000
  C   C86       1.0  0.20337  0.09226  0.90034  1.0000
  C   C87       1.0  0.18206  0.11249  0.93331  1.0000
  C   C88       1.0  0.19839  0.06435  0.90852  1.0000
  C   C89       1.0  0.17668  0.08486  0.94174  1.0000
  C   C90       1.0  0.18491  0.06073  0.92916  1.0000
  C   C91       1.0  0.20031  0.14508  0.90340  1.0000
  H   H87       1.0  0.21399  0.09484  0.88462  1.0000
  H   H88       1.0  0.17564  0.13120  0.94325  1.0000
  H   H89       1.0  0.16623  0.08198  0.95798  1.0000
  H   H90       1.0  0.18084  0.03925  0.93558  1.0000
  H   H91       1.0  0.21324  0.14530  0.89562  1.0000
  H   H92       1.0  0.19214  0.15380  0.88029  1.0000
  H   H93       1.0  0.19984  0.15978  0.92713  1.0000
  H   H94       1.0  0.03711  0.08952  0.84907  1.0000
  H   H95       1.0  0.25040  0.08155  0.92763  1.0000
  S   S38       1.0  0.23115  0.15712  0.53052  1.0000
  H   H96       1.0  0.02352  0.31933  0.52058  1.0000
  C   C92       1.0  0.02278  0.07603  0.89318  1.0000
  C   C93       1.0  0.01319  0.31222  0.53506  1.0000
  H   H97       1.0  0.26601  0.16808  0.50969  1.0000
  C   C94       1.0  0.00168  0.41993  0.85421  1.0000
  C   C95       1.0  0.24413  0.10845  0.49945  1.0000
  H   H98       1.0  0.25305  0.10865  0.52277  1.0000
  C   C96       1.0  0.01323  0.07437  0.82959  1.0000
  H   H99       1.0  0.23826  0.30576  0.98407  1.0000
  H   H100      1.0  0.28182  0.10417  0.95463  1.0000
  C   C97       1.0  0.15855  0.42603  0.92235  1.0000
  H   H101      1.0  0.13645  0.41907  0.94977  1.0000
  H   H102      1.0  0.20518  0.04561  0.89968  1.0000
  H   H103      1.0  0.14401  0.24715  0.67848  1.0000
  H   H104      1.0  0.11585  0.26655  0.66324  1.0000
  C   C98       1.0  0.99177  0.43440  0.82696  1.0000
  C   C99       1.0  0.99137  0.42452  0.79118  1.0000
  H   H105      1.0  0.01605  0.36040  0.88128  1.0000
  C   C100      1.0  0.13029  0.49028  0.97069  1.0000
  C   C101      1.0  0.05588  0.11481  0.63437  1.0000
  C   C102      1.0  0.00059  0.40003  0.78317  1.0000
  H   H106      1.0  0.17355  0.24214  0.62222  1.0000
  S   S39       1.0  0.26511  0.23927  0.96800  1.0000
  C   C103      1.0  0.13134  0.49016  0.90532  1.0000
  H   H107      1.0  0.17251  0.24653  0.67056  1.0000
  H   H108      1.0  0.00055  0.39223  0.75541  1.0000
  S   S40       1.0  0.23212  0.17816  0.96550  1.0000
  C   C104      1.0  0.02546  0.08114  0.85661  1.0000
  C   C105      1.0  0.99616  0.05821  0.87617  1.0000
  H   H109      1.0  0.98908  0.05671  0.81847  1.0000
  H   H110      1.0  0.13370  0.31481  0.57475  1.0000
  H   H111      1.0  0.11060  0.30075  0.61141  1.0000
  N   N11       1.0  0.25453  0.29376  0.74173  1.0000
  C   C106      1.0  0.26826  0.28052  0.75840  1.0000
  C   C107      1.0  0.24399  0.30919  0.76179  1.0000
  C   C108      1.0  0.27162  0.28228  0.79614  1.0000
  H   H112      1.0  0.25758  0.31098  0.68915  1.0000
  C   C109      1.0  0.26091  0.29781  0.81680  1.0000
  C   C110      1.0  0.25154  0.29263  0.70196  1.0000
  H   H113      1.0  0.27645  0.26773  0.74275  1.0000
  H   H114      1.0  0.28221  0.27089  0.80939  1.0000
  H   H115      1.0  0.02313  0.39451  0.89967  1.0000
  H   H116      1.0  0.25632  0.27204  0.69111  1.0000
  H   H117      1.0  0.23813  0.29345  0.69359  1.0000
  C   C111      1.0  0.17106  0.25793  0.64383  1.0000
  C   C112      1.0  0.14195  0.26283  0.65657  1.0000
  H   H118      1.0  0.26330  0.29921  0.84612  1.0000
  C   C113      1.0  0.98711  0.29167  0.57125  1.0000
  H   H119      1.0  0.19678  0.40490  0.95293  1.0000
  C   C114      1.0  0.23658  0.32843  0.97728  1.0000
  S   S41       1.0  0.16156  0.49338  0.94413  1.0000
  C   C115      1.0  0.00133  0.30076  0.59133  1.0000
  H   H120      1.0  0.23062  0.41014  0.95360  1.0000
  C   C116      1.0  0.04842  0.08835  0.64013  1.0000
  C   C117      1.0  0.05546  0.06940  0.66676  1.0000
  H   H121      1.0  0.04992  0.12998  0.61480  1.0000
  H   H122      1.0  0.01118  0.46876  0.96586  1.0000
  C   C118      1.0  0.12303  0.29297  0.61898  1.0000
  H   H123      1.0  0.18059  0.27484  0.64433  1.0000
  C   C119      1.0  0.99821  0.47412  0.96598  1.0000
  C   C120      1.0  0.18432  0.43590  0.89509  1.0000
  H   H124      1.0  0.00208  0.42808  0.88185  1.0000
  C   C121      1.0  0.99871  0.30327  0.51583  1.0000
  S   S42       1.0  0.06597  0.47736  0.82010  1.0000
  S   S43       1.0  0.31067  0.20577  0.96701  1.0000
  H   H125      1.0  0.00928  0.07758  0.95818  1.0000
  C   C122      1.0  0.25513  0.49373  0.52263  1.0000
  C   C123      1.0  0.23150  0.12972  0.49639  1.0000
  C   C124      1.0  0.14964  0.41514  0.95026  1.0000
  C   C125      1.0  0.00611  0.05855  0.94101  1.0000
  H   H126      1.0  0.26115  0.20014  0.53317  1.0000
  Fe  Fe23      1.0  0.06270  0.48415  0.87945  1.0000
  S   S44       1.0  0.20634  0.47615  0.96713  1.0000
  H   H127      1.0  0.18296  0.45983  0.89645  1.0000
  S   S45       1.0  0.23503  0.29843  0.50806  1.0000
  S   S46       1.0  0.23229  0.04055  0.96619  1.0000
  H   H128      1.0  0.10793  0.48734  0.87351  1.0000
  S   S47       1.0  0.02559  0.47767  0.80642  1.0000
  H   H129      1.0  0.03397  0.37747  0.86498  1.0000
  N   N12       1.0  0.01095  0.39629  0.84596  1.0000
  Fe  Fe24      1.0  0.02467  0.48439  0.86757  1.0000
  H   H130      1.0  0.12272  0.04120  0.93591  1.0000
  C   C126      1.0  0.02148  0.38139  0.87449  1.0000
  C   C127      1.0  0.10465  0.48816  0.93096  1.0000
  H   H131      1.0  0.00233  0.29950  0.62090  1.0000
  C   C128      1.0  0.13482  0.00077  0.95159  1.0000
  H   H132      1.0  0.17940  0.42858  0.86779  1.0000
  C   C129      1.0  0.18351  0.40764  0.95175  1.0000
  H   H133      1.0  0.26287  0.44930  0.53157  1.0000
  C   C130      1.0  0.26511  0.19200  0.50678  1.0000
  S   S48       1.0  0.08265  0.48806  0.92690  1.0000
  H   H134      1.0  0.01415  0.03987  0.95027  1.0000
  C   C131      1.0  0.25368  0.46393  0.51846  1.0000
  H   H135      1.0  0.98764  0.20735  0.52651  1.0000
  H   H136      1.0  0.13839  0.49086  0.88158  1.0000
  C   C132      1.0  0.17498  0.39604  0.97986  1.0000
  C   C133      1.0  0.98662  0.21640  0.49925  1.0000
  H   H137      1.0  0.23943  0.42991  0.49260  1.0000
  C   C134      1.0  0.15794  0.40006  0.97921  1.0000
  H   H138      1.0  0.29491  0.15211  0.98404  1.0000
  C   C135      1.0  0.28244  0.09946  0.98438  1.0000
  C   C136      1.0  0.22194  0.12506  0.98754  1.0000
  C   C137      1.0  0.15777  0.99029  0.10061  1.0000
  S   S49       1.0  0.26600  0.94456  0.35686  1.0000
  S   S50       1.0  0.22242  0.97450  0.03154  1.0000
  Fe  Fe25      1.0  0.25693  0.51542  0.40022  1.0000
  Fe  Fe26      1.0  0.27983  0.97969  0.38742  1.0000
  S   S51       1.0  0.25626  0.55395  0.43990  1.0000
  Fe  Fe27      1.0  0.24686  0.94979  0.39740  1.0000
  S   S52       1.0  0.23118  0.91291  0.41865  1.0000
  C   C138      1.0  0.22167  0.98999  0.22924  1.0000
  H   H139      1.0  0.14889  0.92154  0.07949  1.0000
  H   H140      1.0  0.22176  0.71451  0.44262  1.0000
  S   S53       1.0  0.27339  0.51330  0.35334  1.0000
  H   H141      1.0  0.21566  0.77907  0.45432  1.0000
  H   H142      1.0  0.13074  0.94620  0.03134  1.0000
  C   C139      1.0  0.24847  0.87194  0.46405  1.0000
  H   H143      1.0  0.22330  0.52559  0.43571  1.0000
  H   H144      1.0  0.01636  0.68270  0.47393  1.0000
  C   C140      1.0  0.13812  0.95871  0.05114  1.0000
  S   S54       1.0  0.25303  0.97633  0.26198  1.0000
  H   H145      1.0  0.24722  0.54946  0.06718  1.0000
  S   S55       1.0  0.18274  0.96067  0.03270  1.0000
  S   S56       1.0  0.19439  0.52735  0.02220  1.0000
  H   H146      1.0  0.21768  0.54195  0.47733  1.0000
  H   H147      1.0  0.21610  0.49711  0.25852  1.0000
  C   C141      1.0  0.21810  0.61563  0.07156  1.0000
  H   H148      1.0  0.00491  0.75955  0.45127  1.0000
  C   C142      1.0  0.21885  0.52104  0.46295  1.0000
  H   H149      1.0  0.25589  0.59762  0.04760  1.0000
  C   C143      1.0  0.20393  0.98520  0.44186  1.0000
  Fe  Fe28      1.0  0.20350  0.94880  0.99805  1.0000
  H   H150      1.0  0.30611  0.53955  0.28213  1.0000
  C   C144      1.0  0.24246  0.97625  0.18895  1.0000
  C   C145      1.0  0.31318  0.93257  0.32073  1.0000
  H   H151      1.0  0.20075  0.58607  0.09270  1.0000
  C   C146      1.0  0.24665  0.70585  0.46355  1.0000
  N   N13       1.0  0.23340  0.61872  0.05919  1.0000
  H   H152      1.0  0.23862  0.90624  0.00097  1.0000
  N   N14       1.0  0.30983  0.95068  0.29153  1.0000
  H   H153      1.0  0.24924  0.64619  0.03104  1.0000
  C   C147      1.0  0.16904  0.94582  0.13031  1.0000
  H   H154      1.0  0.29019  0.97872  0.30369  1.0000
  C   C148      1.0  0.24389  0.59540  0.05815  1.0000
  C   C149      1.0  0.21020  0.96093  0.46138  1.0000
  C   C150      1.0  0.25116  0.76444  0.45367  1.0000
  C   C151      1.0  0.29301  0.96185  0.28364  1.0000
  C   C152      1.0  0.31073  0.51757  0.28002  1.0000
  C   C153      1.0  0.22355  0.56476  0.08214  1.0000
  C   C154      1.0  0.23337  0.88116  0.44683  1.0000
  H   H155      1.0  0.25947  0.88390  0.45983  1.0000
  C   C155      1.0  0.21293  0.58862  0.08316  1.0000
  H   H156      1.0  0.01535  0.64555  0.48700  1.0000
  C   C156      1.0  0.22904  0.59212  0.43088  1.0000
  H   H157      1.0  0.24466  0.68300  0.46760  1.0000
  C   C157      1.0  0.99234  0.98234  0.00944  1.0000
  C   C158      1.0  0.24365  0.58422  0.45126  1.0000
  N   N15       1.0  0.23617  0.75268  0.44412  1.0000
  S   S57       1.0  0.19974  0.99363  0.12551  1.0000
  C   C159      1.0  0.99538  0.74525  0.45898  1.0000
  C   C160      1.0  0.23874  0.64747  0.04863  1.0000
  H   H158      1.0  0.20977  0.63410  0.07229  1.0000
  H   H159      1.0  0.25291  0.78751  0.45100  1.0000
  H   H160      1.0  0.28687  0.49890  0.28159  1.0000
  H   H161      1.0  0.21359  0.75984  0.41165  1.0000
  H   H162      1.0  0.21964  0.54367  0.09085  1.0000
  H   H163      1.0  0.27593  0.75681  0.47719  1.0000
  S   S58       1.0  0.30745  0.97130  0.40194  1.0000
  H   H164      1.0  0.99958  0.97856  0.03495  1.0000
  C   C161      1.0  0.29990  0.49443  0.27992  1.0000
  H   H165      1.0  0.23477  0.97593  0.13123  1.0000
  C   C162      1.0  0.26194  0.71766  0.47353  1.0000
  C   C163      1.0  0.23376  0.72381  0.44919  1.0000
  S   S59       1.0  0.21209  0.66350  0.48303  1.0000
  H   H166      1.0  0.20911  0.82871  0.48041  1.0000
  H   H167      1.0  0.20838  0.62214  0.42500  1.0000
  H   H168      1.0  0.20745  0.87207  0.44003  1.0000
  S   S60       1.0  0.23281  0.98390  0.36263  1.0000
  Fe  Fe29      1.0  0.25296  0.98072  0.32422  1.0000
  H   H169      1.0  0.22867  0.65931  0.03237  1.0000
  H   H170      1.0  0.22512  0.57995  0.40687  1.0000
  C   C164      1.0  0.21924  0.86519  0.45300  1.0000
  C   C165      1.0  0.22231  0.77146  0.43083  1.0000
  C   C166      1.0  0.22014  0.84046  0.47589  1.0000
  H   H171      1.0  0.25495  0.96946  0.18492  1.0000
  H   H172      1.0  0.20640  0.51161  0.45927  1.0000
  H   H173      1.0  0.27188  0.70401  0.48552  1.0000
  C   C167      1.0  0.21955  0.61616  0.44127  1.0000
  C   C168      1.0  0.22440  0.63267  0.47222  1.0000
  Fe  Fe30      1.0  0.21817  0.51101  0.00213  1.0000
  H   H174      1.0  0.18061  0.93955  0.11792  1.0000
  C   C169      1.0  0.23791  0.98127  0.22460  1.0000
  C   C170      1.0  0.23910  0.56808  0.06939  1.0000
  C   C171      1.0  0.14834  0.94495  0.07848  1.0000
  S   S61       1.0  0.26131  0.98301  0.43064  1.0000
  H   H175      1.0  0.19444  0.98292  0.41981  1.0000
  N   N16       1.0  0.23050  0.50133  0.48327  1.0000
  H   H176      1.0  0.20535  0.93987  0.45417  1.0000
  H   H177      1.0  0.22660  0.79075  0.41634  1.0000
  C   C172      1.0  0.24921  0.86430  0.98981  1.0000
  C   C173      1.0  0.23102  0.97991  0.15836  1.0000
  C   C174      1.0  0.26424  0.74717  0.46867  1.0000
  C   C175      1.0  0.23624  0.88475  0.99071  1.0000
  C   C176      1.0  0.23657  0.49489  0.22492  1.0000
  H   H178      1.0  0.24253  0.66020  0.07322  1.0000
  H   H179      1.0  0.16334  0.92621  0.14099  1.0000
  H   H180      1.0  0.29103  0.97140  0.25583  1.0000
  H   H181      1.0  0.26155  0.87024  0.99955  1.0000
  H   H182      1.0  0.28395  0.94427  0.28515  1.0000
  C   C177      1.0  0.21481  0.98868  0.16300  1.0000
  H   H183      1.0  0.30350  0.92669  0.33796  1.0000
  C   C178      1.0  0.24847  0.60064  0.48230  1.0000
  H   H184      1.0  0.23294  0.49726  0.13140  1.0000
  Fe  Fe31      1.0  0.20128  0.98881  0.06377  1.0000
  H   H185      1.0  0.17247  0.95998  0.15393  1.0000
  Fe  Fe32      1.0  0.19981  0.49460  0.06773  1.0000
  N   N17       1.0  0.15785  0.96077  0.10304  1.0000
  C   C179      1.0  0.20790  0.49985  0.20110  1.0000
  S   S62       1.0  0.19684  0.50228  0.12828  1.0000
  C   C180      1.0  0.24112  0.49523  0.18874  1.0000
  C   C181      1.0  0.21245  0.49969  0.16492  1.0000
  C   C182      1.0  0.24938  0.84714  0.48686  1.0000
  C   C183      1.0  0.22917  0.49735  0.15894  1.0000
  H   H186      1.0  0.19502  0.50181  0.20614  1.0000
  C   C184      1.0  0.13783  0.98878  0.04880  1.0000
  C   C185      1.0  0.21985  0.49728  0.23093  1.0000
  C   C186      1.0  0.21023  0.99365  0.19864  1.0000
  H   H187      1.0  0.21796  0.99398  0.25638  1.0000
  H   H188      1.0  0.04089  0.70986  0.48814  1.0000
  Fe  Fe33      1.0  0.22119  0.76297  0.54121  1.0000
  S   S63       1.0  0.23403  0.72014  0.55616  1.0000
  S   S64       1.0  0.02264  0.98891  0.81161  1.0000
  Fe  Fe34      1.0  0.18759  0.74050  0.56206  1.0000
  S   S65       1.0  0.19807  0.69658  0.57758  1.0000
  S   S66       1.0  0.16148  0.75834  0.56890  1.0000
  Fe  Fe35      1.0  0.21938  0.72044  0.60601  1.0000
  S   S67       1.0  0.22768  0.70241  0.66306  1.0000
  Fe  Fe36      1.0  0.21212  0.69904  0.52700  1.0000
  H   H189      1.0  0.20502  0.84330  0.95540  1.0000
  S   S68       1.0  0.20813  0.76435  0.59322  1.0000
  H   H190      1.0  0.25972  0.59485  0.49838  1.0000
  Fe  Fe37      1.0  0.06707  0.71887  0.60857  1.0000
  S   S69       1.0  0.06209  0.72801  0.66684  1.0000
  S   S70       1.0  0.09201  0.70081  0.59282  1.0000
  Fe  Fe38      1.0  0.03047  0.73079  0.57964  1.0000
  S   S71       1.0  0.02340  0.74089  0.63662  1.0000
  S   S72       1.0  0.01505  0.73837  0.52402  1.0000
  Fe  Fe39      1.0  0.04684  0.76629  0.64464  1.0000
  S   S73       1.0  0.05101  0.81352  0.66327  1.0000
  Fe  Fe40      1.0  0.03923  0.70165  0.65536  1.0000
  S   S74       1.0  0.02977  0.66999  0.69762  1.0000
  S   S75       1.0  0.05320  0.75828  0.58665  1.0000
  S   S76       1.0  0.04488  0.69039  0.59799  1.0000
  H   H191      1.0  0.24288  0.63688  0.51669  1.0000
  H   H192      1.0  0.10295  0.55402  0.81526  1.0000
  Fe  Fe41      1.0  0.26317  0.74012  0.86992  1.0000
  S   S77       1.0  0.24369  0.74807  0.90900  1.0000
  S   S78       1.0  0.26039  0.75667  0.81084  1.0000
  Fe  Fe42      1.0  0.28902  0.72087  0.93226  1.0000
  Fe  Fe43      1.0  0.02527  0.98632  0.87335  1.0000
  Fe  Fe44      1.0  0.25271  0.70578  0.93548  1.0000
  H   H193      1.0  0.07858  0.55204  0.92931  1.0000
  Fe  Fe45      1.0  0.26350  0.76843  0.94547  1.0000
  Fe  Fe46      1.0  0.06306  0.97484  0.87320  1.0000
  S   S79       1.0  0.27101  0.69670  0.89394  1.0000
  S   S80       1.0  0.28262  0.76333  0.90489  1.0000
  Fe  Fe47      1.0  0.03950  0.94940  0.81200  1.0000
  H   H194      1.0  0.01040  0.79947  0.54128  1.0000
  S   S81       1.0  0.03286  0.90552  0.78525  1.0000
  C   C187      1.0  0.30816  0.72808  0.83922  1.0000
  S   S82       1.0  0.04353  0.51975  0.86897  1.0000
  C   C188      1.0  0.22026  0.87736  0.97810  1.0000
  H   H195      1.0  0.24541  0.88601  0.91044  1.0000
  H   H196      1.0  0.27842  0.62810  0.81132  1.0000
  Fe  Fe48      1.0  0.04565  0.51114  0.80917  1.0000
  S   S83       1.0  0.05151  0.54494  0.76545  1.0000
  S   S84       1.0  0.04096  0.94599  0.87333  1.0000
  S   S85       1.0  0.19718  0.98484  0.95780  1.0000
  H   H197      1.0  0.06575  0.59527  0.80713  1.0000
  C   C189      1.0  0.99126  0.98833  0.94322  1.0000
  H   H198      1.0  0.21107  0.83027  0.85293  1.0000
  H   H199      1.0  0.08451  0.66506  0.53215  1.0000
  C   C190      1.0  0.13308  0.97075  0.95213  1.0000
  C   C191      1.0  0.11822  0.95825  0.93813  1.0000
  H   H200      1.0  0.16332  0.67780  0.65846  1.0000
  C   C192      1.0  0.99293  0.78411  0.57736  1.0000
  C   C193      1.0  0.23526  0.83116  0.49300  1.0000
  H   H201      1.0  0.07091  0.70939  0.50535  1.0000
  H   H202      1.0  0.02602  0.84493  0.55759  1.0000
  C   C194      1.0  0.22083  0.62145  0.96736  1.0000
  S   S86       1.0  0.20366  0.90272  0.97621  1.0000
  H   H203      1.0  0.14943  0.78816  0.63491  1.0000
  H   H204      1.0  0.27989  0.83427  0.90754  1.0000
  H   H205      1.0  0.24169  0.93190  0.49541  1.0000
  C   C195      1.0  0.22920  0.98998  0.49619  1.0000
  C   C196      1.0  0.07590  0.56217  0.90277  1.0000
  C   C197      1.0  0.10498  0.97545  0.92290  1.0000
  C   C198      1.0  0.28473  0.64828  0.81652  1.0000
  C   C199      1.0  0.22361  0.83549  0.86219  1.0000
  H   H206      1.0  0.23221  0.94178  0.53668  1.0000
  C   C200      1.0  0.02851  0.83430  0.58462  1.0000
  C   C201      1.0  0.08429  0.55298  0.87301  1.0000
  C   C202      1.0  0.03615  0.63521  0.71614  1.0000
  C   C203      1.0  0.02730  0.62283  0.74369  1.0000
  C   C204      1.0  0.03170  0.59536  0.75900  1.0000
  C   C205      1.0  0.04501  0.57960  0.74681  1.0000
  C   C206      1.0  0.05394  0.59205  0.71948  1.0000
  C   C207      1.0  0.04959  0.61957  0.70429  1.0000
  H   H207      1.0  0.01687  0.63456  0.75314  1.0000
  H   H208      1.0  0.02467  0.58632  0.77996  1.0000
  H   H209      1.0  0.06429  0.58026  0.70978  1.0000
  H   H210      1.0  0.05657  0.62859  0.68324  1.0000
  C   C208      1.0  0.04587  0.83853  0.69783  1.0000
  C   C209      1.0  0.05313  0.86599  0.69877  1.0000
  C   C210      1.0  0.04925  0.88683  0.72492  1.0000
  C   C211      1.0  0.03788  0.88065  0.75046  1.0000
  C   C212      1.0  0.03057  0.85323  0.74942  1.0000
  C   C213      1.0  0.03457  0.83229  0.72350  1.0000
  H   H211      1.0  0.06183  0.87122  0.67903  1.0000
  H   H212      1.0  0.05502  0.90770  0.72524  1.0000
  H   H213      1.0  0.02176  0.84809  0.76896  1.0000
  H   H214      1.0  0.02884  0.81138  0.72329  1.0000
  C   C214      1.0  0.00629  0.80072  0.56863  1.0000
  C   C215      1.0  0.14211  0.74166  0.57314  1.0000
  C   C216      1.0  0.14039  0.71167  0.57430  1.0000
  C   C217      1.0  0.12497  0.69964  0.58020  1.0000
  C   C218      1.0  0.11110  0.71734  0.58525  1.0000
  C   C219      1.0  0.11280  0.74732  0.58383  1.0000
  C   C220      1.0  0.12816  0.75933  0.57748  1.0000
  H   H215      1.0  0.15094  0.69774  0.57088  1.0000
  H   H216      1.0  0.12381  0.67641  0.58102  1.0000
  H   H217      1.0  0.10226  0.76126  0.58733  1.0000
  H   H218      1.0  0.12926  0.78256  0.57626  1.0000
  C   C221      1.0  0.23670  0.57646  0.97288  1.0000
  S   S87       1.0  0.23743  0.79954  0.52145  1.0000
  C   C222      1.0  0.08944  0.55424  0.80846  1.0000
  C   C223      1.0  0.06368  0.58356  0.89768  1.0000
  H   H219      1.0  0.05680  0.59035  0.92036  1.0000
  C   C224      1.0  0.23608  0.71863  0.70412  1.0000
  C   C225      1.0  0.23685  0.70247  0.73681  1.0000
  C   C226      1.0  0.24380  0.71399  0.76987  1.0000
  C   C227      1.0  0.25036  0.74173  0.77056  1.0000
  C   C228      1.0  0.24951  0.75795  0.73794  1.0000
  C   C229      1.0  0.24231  0.74661  0.70500  1.0000
  H   H220      1.0  0.23203  0.68084  0.73656  1.0000
  H   H221      1.0  0.24421  0.70128  0.79470  1.0000
  H   H222      1.0  0.25457  0.77940  0.73802  1.0000
  H   H223      1.0  0.24192  0.75930  0.68016  1.0000
  C   C230      1.0  0.25063  0.59164  0.96362  1.0000
  C   C231      1.0  0.28040  0.67265  0.79520  1.0000
  N   N18       1.0  0.06548  0.87466  0.83529  1.0000
  C   C232      1.0  0.07432  0.89730  0.84966  1.0000
  C   C233      1.0  0.06966  0.86196  0.80373  1.0000
  C   C234      1.0  0.08726  0.90865  0.83146  1.0000
  C   C235      1.0  0.08246  0.87285  0.78469  1.0000
  C   C236      1.0  0.09123  0.89648  0.79861  1.0000
  C   C237      1.0  0.05186  0.86326  0.85458  1.0000
  H   H224      1.0  0.07130  0.90696  0.87515  1.0000
  H   H225      1.0  0.06275  0.84386  0.79244  1.0000
  S   S88       1.0  0.27109  0.72704  0.97528  1.0000
  H   H226      1.0  0.08530  0.86330  0.75899  1.0000
  H   H227      1.0  0.03172  0.85136  0.60497  1.0000
  H   H228      1.0  0.04531  0.88095  0.86814  1.0000
  H   H229      1.0  0.04247  0.85332  0.83521  1.0000
  H   H230      1.0  0.05656  0.84700  0.87523  1.0000
  N   N19       1.0  0.25563  0.84786  0.88815  1.0000
  C   C238      1.0  0.25260  0.82343  0.86818  1.0000
  C   C239      1.0  0.24307  0.86674  0.89436  1.0000
  C   C240      1.0  0.23657  0.81676  0.85511  1.0000
  H   H231      1.0  0.09346  0.53583  0.87704  1.0000
  C   C241      1.0  0.06375  0.69018  0.50904  1.0000
  C   C242      1.0  0.28836  0.69869  0.80287  1.0000
  H   H232      1.0  0.05035  0.61183  0.85850  1.0000
  N   N20       1.0  0.30016  0.70048  0.83126  1.0000
  C   C243      1.0  0.04679  0.69030  0.49954  1.0000
  H   H233      1.0  0.99256  0.80234  0.66663  1.0000
  C   C244      1.0  0.24970  0.62161  0.95642  1.0000
  N   N21       1.0  0.01426  0.81778  0.59430  1.0000
  S   S89       1.0  0.20006  0.74189  0.50924  1.0000
  H   H234      1.0  0.28483  0.71760  0.78633  1.0000
  H   H235      1.0  0.14836  0.78715  0.68395  1.0000
  C   C245      1.0  0.27252  0.85445  0.90178  1.0000
  C   C246      1.0  0.06006  0.59560  0.86307  1.0000
  S   S90       1.0  0.08636  0.95833  0.90670  1.0000
  H   H236      1.0  0.08537  0.53200  0.80162  1.0000
  H   H237      1.0  0.08670  0.56774  0.78355  1.0000
  H   H238      1.0  0.26117  0.84034  0.49993  1.0000
  H   H239      1.0  0.27848  0.86783  0.88162  1.0000
  C   C247      1.0  0.23478  0.63669  0.95838  1.0000
  S   S91       1.0  0.31542  0.70301  0.94292  1.0000
  H   H240      1.0  0.30056  0.63135  0.86162  1.0000
  C   C248      1.0  0.00945  0.81843  0.62913  1.0000
  H   H241      1.0  0.22165  0.91897  0.50367  1.0000
  H   H242      1.0  0.29945  0.74651  0.83280  1.0000
  H   H243      1.0  0.22801  0.80743  0.95339  1.0000
  H   H244      1.0  0.09402  0.92697  0.84270  1.0000
  H   H245      1.0  0.23426  0.79699  0.83994  1.0000
  S   S92       1.0  0.23318  0.67479  0.95302  1.0000
  S   S93       1.0  0.26339  0.81245  0.97274  1.0000
  C   C249      1.0  0.99697  0.73186  0.49368  1.0000
  C   C250      1.0  0.06199  0.64118  0.53078  1.0000
  H   H246      1.0  0.03940  0.81962  0.58385  1.0000
  N   N22       1.0  0.08074  0.56499  0.83923  1.0000
  H   H247      1.0  0.10107  0.90540  0.78398  1.0000
  H   H248      1.0  0.26257  0.80870  0.86257  1.0000
  H   H249      1.0  0.20924  0.63294  0.96903  1.0000
  H   H250      1.0  0.26055  0.63309  0.94983  1.0000
  H   H251      1.0  0.11699  0.93504  0.93909  1.0000
  S   S94       1.0  0.06246  0.97606  0.81191  1.0000
  C   C251      1.0  0.21737  0.84924  0.96505  1.0000
  H   H252      1.0  0.23943  0.99200  0.51660  1.0000
  H   H253      1.0  0.27081  0.67156  0.77313  1.0000
  H   H254      1.0  0.27263  0.86600  0.92823  1.0000
  C   C252      1.0  0.06880  0.58607  0.83402  1.0000
  C   C253      1.0  0.22687  0.86080  0.88164  1.0000
  N   N23       1.0  0.15981  0.75067  0.66125  1.0000
  C   C254      1.0  0.17610  0.75747  0.66573  1.0000
  C   C255      1.0  0.15516  0.72242  0.65897  1.0000
  C   C256      1.0  0.18823  0.73571  0.66872  1.0000
  C   C257      1.0  0.16701  0.70012  0.66116  1.0000
  C   C258      1.0  0.18364  0.70688  0.66628  1.0000
  C   C259      1.0  0.14744  0.77408  0.65873  1.0000
  H   H255      1.0  0.17981  0.77984  0.66654  1.0000
  H   H256      1.0  0.14226  0.71700  0.65454  1.0000
  H   H257      1.0  0.20114  0.74121  0.67231  1.0000
  C   C260      1.0  0.23036  0.82885  0.96391  1.0000
  H   H258      1.0  0.19301  0.68986  0.66783  1.0000
  H   H259      1.0  0.13471  0.76574  0.65477  1.0000
  H   H260      1.0  0.26549  0.50256  0.53888  1.0000
  S   S95       1.0  0.23880  0.53919  0.98420  1.0000
  H   H261      1.0  0.01601  0.83137  0.64977  1.0000
  H   H262      1.0  0.21688  0.87528  0.88808  1.0000
  H   H263      1.0  0.21096  0.58016  0.98172  1.0000
  C   C261      1.0  0.24638  0.83638  0.97608  1.0000
  H   H264      1.0  0.06778  0.62216  0.54387  1.0000
  C   C262      1.0  0.30490  0.67644  0.85145  1.0000
  C   C263      1.0  0.07138  0.66532  0.52436  1.0000
  C   C264      1.0  0.29714  0.65007  0.84468  1.0000
  H   H265      1.0  0.31227  0.72968  0.86870  1.0000
  C   C265      1.0  0.01989  0.66697  0.49625  1.0000
  C   C266      1.0  0.98786  0.78481  0.61271  1.0000
  C   C267      1.0  0.22176  0.59152  0.97460  1.0000
  H   H266      1.0  0.14311  0.95717  0.96363  1.0000
  H   H267      1.0  0.26225  0.58019  0.96234  1.0000
  C   C268      1.0  0.00034  0.98324  0.97658  1.0000
  H   H268      1.0  0.01354  0.98016  0.97715  1.0000
  C   C269      1.0  0.22989  0.93782  0.50703  1.0000
  C   C270      1.0  0.23893  0.62459  0.49278  1.0000
  H   H269      1.0  0.31444  0.67770  0.87358  1.0000
  S   S96       1.0  0.00068  0.99144  0.90078  1.0000
  C   C271      1.0  0.99616  0.80205  0.63884  1.0000
  H   H270      1.0  0.24472  0.53537  0.50766  1.0000
  C   C272      1.0  0.24332  0.51221  0.50485  1.0000
  H   H271      1.0  0.98684  0.77027  0.55696  1.0000
  C   C273      1.0  0.04505  0.64208  0.52114  1.0000
  H   H272      1.0  0.03776  0.62346  0.52695  1.0000
  N   N24       1.0  0.03773  0.66626  0.50513  1.0000
  H   H273      1.0  0.01355  0.67354  0.52068  1.0000
  N   N25       1.0  0.22269  0.96353  0.48816  1.0000
  Fe  Fe49      1.0  0.40084  0.24538  0.06681  1.0000
  S   S97       1.0  0.42394  0.27227  0.06725  1.0000
  S   S98       1.0  0.37814  0.26242  0.03173  1.0000
  Fe  Fe50      1.0  0.41729  0.19988  0.11969  1.0000
  S   S99       1.0  0.44120  0.22366  0.12354  1.0000
  S   S100      1.0  0.41086  0.15535  0.14284  1.0000
  Fe  Fe51      1.0  0.42588  0.26471  0.12816  1.0000
  S   S101      1.0  0.43640  0.29718  0.17113  1.0000
  Fe  Fe52      1.0  0.43776  0.23010  0.06244  1.0000
  S   S102      1.0  0.45987  0.21876  0.02855  1.0000
  S   S103      1.0  0.40208  0.24034  0.12806  1.0000
  S   S104      1.0  0.41461  0.20379  0.05819  1.0000
  H   H274      1.0  0.38320  0.05221  0.26671  1.0000
  H   H275      1.0  0.38151  0.07021  0.30961  1.0000
  H   H276      1.0  0.41152  0.15851  0.27572  1.0000
  H   H277      1.0  0.44212  0.49311  0.47151  1.0000
  C   C274      1.0  0.34711  0.26355  0.99580  1.0000
  S   S105      1.0  0.45742  0.46378  0.40226  1.0000
  S   S106      1.0  0.40812  0.99750  0.26691  1.0000
  S   S107      1.0  0.43619  0.06925  0.27336  1.0000
  Fe  Fe53      1.0  0.42188  0.45401  0.28138  1.0000
  S   S108      1.0  0.41528  0.41999  0.23703  1.0000
  S   S109      1.0  0.41926  0.02109  0.34938  1.0000
  S   S110      1.0  0.41592  0.45223  0.34048  1.0000
  N   N26       1.0  0.38987  0.09686  0.26776  1.0000
  H   H278      1.0  0.47779  0.43310  0.45803  1.0000
  H   H279      1.0  0.32680  0.43890  0.27706  1.0000
  C   C275      1.0  0.53529  0.47108  0.48037  1.0000
  C   C276      1.0  0.47889  0.26103  0.09532  1.0000
  C   C277      1.0  0.32839  0.46995  0.36826  1.0000
  H   H280      1.0  0.40923  0.11083  0.30549  1.0000
  C   C278      1.0  0.43010  0.33120  0.18924  1.0000
  C   C279      1.0  0.41582  0.34619  0.17581  1.0000
  C   C280      1.0  0.41156  0.37315  0.19082  1.0000
  C   C281      1.0  0.42139  0.38561  0.21960  1.0000
  C   C282      1.0  0.43569  0.37065  0.23299  1.0000
  C   C283      1.0  0.44000  0.34376  0.21786  1.0000
  H   H281      1.0  0.40803  0.33702  0.15388  1.0000
  H   H282      1.0  0.40046  0.38435  0.18012  1.0000
  H   H283      1.0  0.44342  0.37973  0.25508  1.0000
  H   H284      1.0  0.45105  0.33249  0.22866  1.0000
  C   C284      1.0  0.41945  0.13071  0.17710  1.0000
  C   C285      1.0  0.43201  0.13837  0.20315  1.0000
  C   C286      1.0  0.43729  0.11894  0.23165  1.0000
  C   C287      1.0  0.43013  0.09158  0.23464  1.0000
  C   C288      1.0  0.41785  0.08366  0.20810  1.0000
  C   C289      1.0  0.41257  0.10308  0.17961  1.0000
  H   H285      1.0  0.43742  0.15947  0.20179  1.0000
  H   H286      1.0  0.44681  0.12535  0.25194  1.0000
  H   H287      1.0  0.41225  0.06273  0.20978  1.0000
  H   H288      1.0  0.40289  0.09681  0.15963  1.0000
  C   C290      1.0  0.47479  0.26880  0.15775  1.0000
  H   H289      1.0  0.49097  0.20165  0.14579  1.0000
  H   H290      1.0  0.53952  0.45369  0.46247  1.0000
  C   C291      1.0  0.47999  0.45585  0.46231  1.0000
  H   H291      1.0  0.52514  0.48319  0.46477  1.0000
  C   C292      1.0  0.35627  0.21681  0.01945  1.0000
  C   C293      1.0  0.35925  0.24628  0.01515  1.0000
  S   S111      1.0  0.44576  0.47721  0.29441  1.0000
  C   C294      1.0  0.47180  0.47624  0.43835  1.0000
  H   H292      1.0  0.36543  0.20318  0.03420  1.0000
  H   H293      1.0  0.48903  0.21947  0.08166  1.0000
  C   C295      1.0  0.40224  0.14352  0.26535  1.0000
  H   H294      1.0  0.46766  0.02131  0.43253  1.0000
  C   C296      1.0  0.34215  0.45252  0.36147  1.0000
  C   C297      1.0  0.35741  0.46485  0.35494  1.0000
  C   C298      1.0  0.39940  0.47760  0.42403  1.0000
  C   C299      1.0  0.34137  0.20493  0.00457  1.0000
  H   H295      1.0  0.47349  0.31792  0.09216  1.0000
  H   H296      1.0  0.34096  0.42929  0.36095  1.0000
  H   H297      1.0  0.36779  0.45112  0.34936  1.0000
  C   C300      1.0  0.48637  0.22335  0.13935  1.0000
  Fe  Fe54      1.0  0.42820  0.02459  0.29285  1.0000
  C   C301      1.0  0.47324  0.00406  0.44941  1.0000
  C   C302      1.0  0.48534  0.23335  0.10342  1.0000
  N   N27       1.0  0.47386  0.27846  0.12240  1.0000
  C   C303      1.0  0.37968  0.10366  0.23753  1.0000
  N   N28       1.0  0.42471  0.46077  0.45546  1.0000
  C   C304      1.0  0.43002  0.48860  0.45871  1.0000
  H   H298      1.0  0.45356  0.30448  0.10224  1.0000
  C   C305      1.0  0.38888  0.06858  0.28549  1.0000
  H   H299      1.0  0.43841  0.45719  0.20643  1.0000
  Fe  Fe55      1.0  0.43919  0.47815  0.35324  1.0000
  C   C306      1.0  0.47190  0.22937  0.99180  1.0000
  H   H300      1.0  0.40139  0.06022  0.29444  1.0000
  H   H301      1.0  0.33815  0.02244  0.31049  1.0000
  C   C307      1.0  0.32215  0.46099  0.27688  1.0000
  H   H302      1.0  0.34642  0.47911  0.27630  1.0000
  C   C308      1.0  0.46657  0.30694  0.11296  1.0000
  H   H303      1.0  0.37323  0.13537  0.19514  1.0000
  C   C309      1.0  0.41842  0.48025  0.17746  1.0000
  C   C310      1.0  0.32457  0.00116  0.35080  1.0000
  H   H304      1.0  0.40997  0.46246  0.17895  1.0000
  H   H305      1.0  0.47036  0.28223  0.17912  1.0000
  C   C311      1.0  0.38075  0.13044  0.22007  1.0000
  H   H306      1.0  0.37098  0.08806  0.22616  1.0000
  C   C312      1.0  0.39217  0.15039  0.23403  1.0000
  C   C313      1.0  0.48107  0.24115  0.16676  1.0000
  H   H307      1.0  0.39363  0.17069  0.21976  1.0000
  H   H308      1.0  0.46656  0.32119  0.13720  1.0000
  C   C314      1.0  0.33331  0.48362  0.27646  1.0000
  C   C315      1.0  0.33900  0.00795  0.33373  1.0000
  H   H309      1.0  0.47763  0.26820  0.06709  1.0000
  C   C316      1.0  0.40089  0.11651  0.28202  1.0000
  H   H310      1.0  0.33925  0.18213  0.00808  1.0000
  C   C317      1.0  0.48529  0.01044  0.47815  1.0000
  C   C318      1.0  0.43528  0.43662  0.46944  1.0000
  S   S112      1.0  0.37189  0.00374  0.32142  1.0000
  H   H311      1.0  0.48146  0.23341  0.19470  1.0000
  H   H312      1.0  0.43676  0.17103  0.00421  1.0000
  C   C319      1.0  0.40968  0.45508  0.43811  1.0000
  H   H313      1.0  0.48896  0.19344  0.00073  1.0000
  H   H314      1.0  0.44641  0.44422  0.48575  1.0000
  H   H315      1.0  0.40565  0.43299  0.43468  1.0000
  H   H316      1.0  0.43960  0.42403  0.44623  1.0000
  C   C320      1.0  0.43457  0.47739  0.19303  1.0000
  H   H317      1.0  0.38752  0.47307  0.41002  1.0000
  H   H318      1.0  0.42847  0.42226  0.48705  1.0000
  H   H319      1.0  0.46514  0.47449  0.21779  1.0000
  C   C321      1.0  0.35442  0.99583  0.34604  1.0000
  H   H320      1.0  0.34925  0.28635  0.99218  1.0000
  H   H321      1.0  0.48879  0.03262  0.48271  1.0000
  C   C322      1.0  0.59322  0.18123  0.78003  1.0000
  Fe  Fe56      1.0  0.56498  0.23092  0.87690  1.0000
  S   S113      1.0  0.54865  0.27016  0.88168  1.0000
  S   S114      1.0  0.58602  0.21497  0.91790  1.0000
  Fe  Fe57      1.0  0.54518  0.21030  0.80739  1.0000
  S   S115      1.0  0.52747  0.24866  0.80747  1.0000
  S   S116      1.0  0.54780  0.17867  0.75946  1.0000
  Fe  Fe58      1.0  0.54969  0.27592  0.82077  1.0000
  S   S117      1.0  0.55373  0.32278  0.80207  1.0000
  Fe  Fe59      1.0  0.52709  0.24111  0.86854  1.0000
  S   S118      1.0  0.50273  0.25302  0.89437  1.0000
  S   S119      1.0  0.56755  0.23844  0.81721  1.0000
  S   S120      1.0  0.54335  0.20089  0.86728  1.0000
  H   H322      1.0  0.49776  0.32573  0.73211  1.0000
  H   H323      1.0  0.47429  0.27922  0.92359  1.0000
  S   S121      1.0  0.53146  0.04925  0.70631  1.0000
  Fe  Fe60      1.0  0.54092  0.45059  0.64391  1.0000
  S   S122      1.0  0.54761  0.46031  0.58614  1.0000
  S   S123      1.0  0.53700  0.40303  0.66035  1.0000
  H   H324      1.0  0.63039  0.99948  0.65857  1.0000
  C   C323      1.0  0.64200  0.47379  0.65674  1.0000
  H   H325      1.0  0.37805  0.19349  0.96155  1.0000
  H   H326      1.0  0.51966  0.40328  0.77502  1.0000
  C   C324      1.0  0.57071  0.12583  0.85319  1.0000
  H   H327      1.0  0.50740  0.06175  0.54934  1.0000
  H   H328      1.0  0.64768  0.01737  0.56139  1.0000
  H   H329      1.0  0.57878  0.13136  0.76444  1.0000
  C   C325      1.0  0.63963  0.47461  0.56488  1.0000
  C   C326      1.0  0.55013  0.34395  0.76125  1.0000
  C   C327      1.0  0.55445  0.37333  0.76191  1.0000
  C   C328      1.0  0.55084  0.39160  0.73127  1.0000
  C   C329      1.0  0.54288  0.38074  0.69929  1.0000
  C   C330      1.0  0.53885  0.35122  0.69840  1.0000
  C   C331      1.0  0.54244  0.33295  0.72906  1.0000
  H   H330      1.0  0.56047  0.38214  0.78650  1.0000
  H   H331      1.0  0.55410  0.41414  0.73251  1.0000
  H   H332      1.0  0.53278  0.34246  0.67383  1.0000
  H   H333      1.0  0.53909  0.31046  0.72788  1.0000
  C   C332      1.0  0.54303  0.14254  0.74549  1.0000
  C   C333      1.0  0.53322  0.12437  0.76491  1.0000
  C   C334      1.0  0.52999  0.09594  0.75270  1.0000
  C   C335      1.0  0.53671  0.08494  0.72128  1.0000
  C   C336      1.0  0.54675  0.10295  0.70219  1.0000
  C   C337      1.0  0.54973  0.13155  0.71402  1.0000
  H   H334      1.0  0.52796  0.13232  0.78914  1.0000
  H   H335      1.0  0.52217  0.08235  0.76775  1.0000
  H   H336      1.0  0.55209  0.09496  0.67808  1.0000
  H   H337      1.0  0.55738  0.14527  0.69872  1.0000
  C   C338      1.0  0.49141  0.24346  0.93271  1.0000
  H   H338      1.0  0.41029  0.26578  0.96167  1.0000
  H   H339      1.0  0.49710  0.07362  0.67911  1.0000
  C   C339      1.0  0.39264  0.23166  0.95951  1.0000
  H   H340      1.0  0.45759  0.26735  0.97531  1.0000
  S   S124      1.0  0.54364  0.02965  0.60400  1.0000
  H   H341      1.0  0.53111  0.32766  0.86216  1.0000
  C   C340      1.0  0.63862  0.24634  0.95343  1.0000
  H   H342      1.0  0.64812  0.42510  0.62406  1.0000
  C   C341      1.0  0.61648  0.21174  0.95647  1.0000
  C   C342      1.0  0.60625  0.22773  0.93078  1.0000
  C   C343      1.0  0.61238  0.25303  0.91630  1.0000
  C   C344      1.0  0.43404  0.17477  0.97447  1.0000
  H   H343      1.0  0.60115  0.19760  0.79429  1.0000
  C   C345      1.0  0.56436  0.47900  0.49896  1.0000
  H   H344      1.0  0.60472  0.26566  0.89661  1.0000
  H   H345      1.0  0.48530  0.03418  0.57497  1.0000
  H   H346      1.0  0.51864  0.10159  0.65214  1.0000
  H   H347      1.0  0.63932  0.04973  0.64917  1.0000
  C   C346      1.0  0.62613  0.45618  0.56694  1.0000
  C   C347      1.0  0.61094  0.46651  0.57831  1.0000
  H   H348      1.0  0.51538  0.30182  0.85207  1.0000
  C   C348      1.0  0.57825  0.15102  0.86597  1.0000
  H   H349      1.0  0.50595  0.20593  0.94966  1.0000
  H   H350      1.0  0.62748  0.43365  0.55991  1.0000
  H   H351      1.0  0.60077  0.45197  0.58006  1.0000
  C   C349      1.0  0.62841  0.26225  0.92762  1.0000
  Fe  Fe61      1.0  0.53937  0.01793  0.66183  1.0000
  H   H352      1.0  0.48016  0.03965  0.64050  1.0000
  C   C350      1.0  0.40420  0.18350  0.96679  1.0000
  C   C351      1.0  0.63254  0.22091  0.96770  1.0000
  H   H353      1.0  0.60084  0.16910  0.76133  1.0000
  C   C352      1.0  0.48956  0.05224  0.62875  1.0000
  C   C353      1.0  0.64340  0.00444  0.66053  1.0000
  C   C354      1.0  0.49246  0.04913  0.59209  1.0000
  H   H354      1.0  0.63291  0.28196  0.91632  1.0000
  C   C355      1.0  0.64844  0.03267  0.65513  1.0000
  N   N29       1.0  0.51439  0.08317  0.59930  1.0000
  C   C356      1.0  0.52751  0.09954  0.58393  1.0000
  H   H355      1.0  0.49711  0.44830  0.50974  1.0000
  H   H356      1.0  0.53803  0.10242  0.60463  1.0000
  H   H357      1.0  0.56497  0.09932  0.80602  1.0000
  N   N30       1.0  0.58617  0.16153  0.80577  1.0000
  H   H358      1.0  0.38204  0.24627  0.95664  1.0000
  H   H359      1.0  0.32298  0.26540  0.96654  1.0000
  N   N31       1.0  0.51439  0.33930  0.81725  1.0000
  H   H360      1.0  0.43181  0.15372  0.96082  1.0000
  H   H361      1.0  0.63122  0.46042  0.65254  1.0000
  C   C357      1.0  0.57900  0.13666  0.79313  1.0000
  C   C358      1.0  0.49103  0.46443  0.49182  1.0000
  H   H362      1.0  0.44519  0.18408  0.96356  1.0000
  C   C359      1.0  0.62211  0.01595  0.57399  1.0000
  C   C360      1.0  0.49544  0.21938  0.95506  1.0000
  C   C361      1.0  0.50500  0.06487  0.57770  1.0000
  H   H363      1.0  0.59146  0.18861  0.85174  1.0000
  S   S125      1.0  0.50815  0.99769  0.53709  1.0000
  H   H364      1.0  0.56437  0.11227  0.87156  1.0000
  H   H365      1.0  0.53251  0.08789  0.56070  1.0000
  C   C362      1.0  0.47759  0.26052  0.94048  1.0000
  H   H366      1.0  0.61970  0.03846  0.56722  1.0000
  C   C363      1.0  0.51882  0.36738  0.81267  1.0000
  H   H367      1.0  0.50340  0.30209  0.79240  1.0000
  C   C364      1.0  0.51788  0.32534  0.85294  1.0000
  C   C365      1.0  0.57112  0.11849  0.81655  1.0000
  H   H368      1.0  0.40237  0.16049  0.96972  1.0000
  C   C366      1.0  0.50670  0.32448  0.78893  1.0000
  H   H369      1.0  0.57788  0.15719  0.89434  1.0000
  C   C367      1.0  0.49896  0.07140  0.65033  1.0000
  C   C368      1.0  0.63801  0.00403  0.57055  1.0000
  N   N32       1.0  0.41976  0.19437  0.96832  1.0000
  C   C369      1.0  0.50335  0.33778  0.75485  1.0000
  H   H370      1.0  0.50592  0.37670  0.72330  1.0000
  C   C370      1.0  0.50783  0.36643  0.74995  1.0000
  C   C371      1.0  0.58592  0.16877  0.84171  1.0000
  H   H371      1.0  0.52542  0.37875  0.83476  1.0000
  H   H372      1.0  0.52271  0.12107  0.57440  1.0000
  H   H373      1.0  0.58311  0.19285  0.76366  1.0000
  C   C372      1.0  0.46801  0.25373  0.96986  1.0000
  C   C373      1.0  0.51129  0.08699  0.63498  1.0000
  H   H374      1.0  0.51018  0.33520  0.87331  1.0000
  H   H375      1.0  0.61191  0.19218  0.96800  1.0000
  C   C374      1.0  0.51555  0.38140  0.77904  1.0000
  C   C375      1.0  0.40852  0.24262  0.96219  1.0000
  S   S126      1.0  0.58966  0.01565  0.59079  1.0000
  S   S127      1.0  0.51958  0.48266  0.64055  1.0000
  S   S128      1.0  0.55878  0.48253  0.66959  1.0000
  C   C376      1.0  0.42202  0.22355  0.96665  1.0000
  H   H376      1.0  0.64014  0.20843  0.98762  1.0000
  Fe  Fe62      1.0  0.56545  0.99860  0.61036  1.0000
  N   N33       1.0  0.54878  0.49022  0.49223  1.0000
  H   H377      1.0  0.43432  0.23223  0.96933  1.0000
  C   C377      1.0  0.60933  0.99906  0.58607  1.0000
  C   C378      1.0  0.33215  0.25172  0.98118  1.0000
  C   C379      1.0  0.39041  0.20197  0.96219  1.0000
  H   H378      1.0  0.58963  0.48778  0.51708  1.0000
  Fe  Fe63      1.0  0.56423  0.49429  0.61223  1.0000
  H   H379      1.0  0.53019  0.46117  0.50462  1.0000
  C   C380      1.0  0.32917  0.22226  0.98540  1.0000
  H   H380      1.0  0.56681  0.45616  0.49530  1.0000
  C   C381      1.0  0.49418  0.49374  0.49807  1.0000
  Fe  Fe64      1.0  0.52693  0.49373  0.58412  1.0000
  C   C382      1.0  0.48572  0.21235  0.98414  1.0000
  Fe  Fe65      1.0  0.40074  0.74295  0.06745  1.0000
  S   S129      1.0  0.42122  0.77518  0.07623  1.0000
  S   S130      1.0  0.37702  0.75878  0.03498  1.0000
  Fe  Fe66      1.0  0.41904  0.69819  0.11898  1.0000
  S   S131      1.0  0.44067  0.72743  0.13093  1.0000
  S   S132      1.0  0.41189  0.65533  0.14575  1.0000
  Fe  Fe67      1.0  0.42214  0.76393  0.13589  1.0000
  S   S133      1.0  0.42231  0.79246  0.18750  1.0000
  Fe  Fe68      1.0  0.43863  0.73716  0.07000  1.0000
  S   S134      1.0  0.46150  0.74686  0.03818  1.0000
  S   S135      1.0  0.40066  0.73402  0.12736  1.0000
  S   S136      1.0  0.41799  0.70565  0.05763  1.0000
  C   C383      1.0  0.40469  0.50601  0.42727  1.0000
  H   H381      1.0  0.45434  0.87981  0.35143  1.0000
  H   H382      1.0  0.35458  0.92479  0.31688  1.0000
  H   H383      1.0  0.48826  0.53687  0.47830  1.0000
  C   C384      1.0  0.47598  0.95361  0.46529  1.0000
  Fe  Fe69      1.0  0.40288  0.49505  0.32959  1.0000
  C   C385      1.0  0.47665  0.93759  0.33868  1.0000
  S   S137      1.0  0.44185  0.55700  0.25687  1.0000
  Fe  Fe70      1.0  0.42459  0.95852  0.27954  1.0000
  S   S138      1.0  0.42856  0.92647  0.23282  1.0000
  H   H384      1.0  0.38083  0.71949  0.20289  1.0000
  S   S139      1.0  0.41501  0.95136  0.33477  1.0000
  Fe  Fe71      1.0  0.43084  0.51887  0.28685  1.0000
  H   H385      1.0  0.64083  0.69677  0.03514  1.0000
  C   C386      1.0  0.34086  0.97068  0.39359  1.0000
  H   H386      1.0  0.31976  0.51365  0.37446  1.0000
  C   C387      1.0  0.42785  0.81994  0.99752  1.0000
  N   N34       1.0  0.46521  0.91703  0.32950  1.0000
  H   H387      1.0  0.43296  0.65381  0.26228  1.0000
  C   C388      1.0  0.42360  0.83007  0.19895  1.0000
  C   C389      1.0  0.42765  0.85133  0.17408  1.0000
  C   C390      1.0  0.42899  0.88055  0.18494  1.0000
  C   C391      1.0  0.42611  0.88920  0.22063  1.0000
  C   C392      1.0  0.42195  0.86798  0.24546  1.0000
  C   C393      1.0  0.42081  0.83870  0.23473  1.0000
  H   H388      1.0  0.42990  0.84525  0.14654  1.0000
  H   H389      1.0  0.43224  0.89663  0.16540  1.0000
  H   H390      1.0  0.41964  0.87407  0.27295  1.0000
  H   H391      1.0  0.41766  0.82259  0.25431  1.0000
  C   C394      1.0  0.42070  0.62796  0.17606  1.0000
  C   C395      1.0  0.43740  0.62701  0.18813  1.0000
  C   C396      1.0  0.44357  0.60531  0.21299  1.0000
  C   C397      1.0  0.43317  0.58438  0.22641  1.0000
  C   C398      1.0  0.41646  0.58537  0.21439  1.0000
  C   C399      1.0  0.41032  0.60687  0.18925  1.0000
  H   H392      1.0  0.44557  0.64299  0.17832  1.0000
  H   H393      1.0  0.45654  0.60478  0.22190  1.0000
  H   H394      1.0  0.40828  0.56943  0.22426  1.0000
  H   H395      1.0  0.39738  0.60731  0.18016  1.0000
  H   H396      1.0  0.33616  0.52970  0.27920  1.0000
  H   H397      1.0  0.40656  0.74228  0.20769  1.0000
  C   C400      1.0  0.38627  0.69742  0.20707  1.0000
  H   H398      1.0  0.60852  0.77027  0.99205  1.0000
  C   C401      1.0  0.41061  0.67378  0.23790  1.0000
  H   H399      1.0  0.34168  0.95617  0.41682  1.0000
  C   C402      1.0  0.35971  0.74202  0.01146  1.0000
  C   C403      1.0  0.35528  0.97728  0.37631  1.0000
  H   H400      1.0  0.37850  0.68540  0.22530  1.0000
  C   C404      1.0  0.47492  0.50555  0.44463  1.0000
  C   C405      1.0  0.48454  0.95211  0.31164  1.0000
  H   H401      1.0  0.34672  0.53546  0.36404  1.0000
  C   C406      1.0  0.42719  0.67352  0.25097  1.0000
  C   C407      1.0  0.42013  0.51161  0.44456  1.0000
  S   S140      1.0  0.40752  0.49583  0.27009  1.0000
  S   S141      1.0  0.37806  0.51183  0.34762  1.0000
  S   S142      1.0  0.44559  0.98627  0.30182  1.0000
  H   H402      1.0  0.40371  0.65401  0.23901  1.0000
  Fe  Fe72      1.0  0.39960  0.99215  0.32352  1.0000
  C   C408      1.0  0.63215  0.68917  0.01360  1.0000
  C   C409      1.0  0.32538  0.98228  0.38074  1.0000
  S   S143      1.0  0.42559  0.52088  0.34619  1.0000
  H   H403      1.0  0.42453  0.53356  0.44642  1.0000
  H   H404      1.0  0.44936  0.69836  0.25707  1.0000
  H   H405      1.0  0.45166  0.89523  0.28626  1.0000
  C   C410      1.0  0.43639  0.69844  0.24791  1.0000
  H   H406      1.0  0.47246  0.93144  0.46074  1.0000
  H   H407      1.0  0.40289  0.83558  0.00040  1.0000
  N   N35       1.0  0.40336  0.69826  0.22261  1.0000
  C   C411      1.0  0.42888  0.72335  0.23245  1.0000
  H   H408      1.0  0.49333  0.96882  0.31903  1.0000
  C   C412      1.0  0.41225  0.72289  0.21996  1.0000
  H   H409      1.0  0.43342  0.83983  0.00729  1.0000
  C   C413      1.0  0.44024  0.52540  0.17542  1.0000
  H   H410      1.0  0.44438  0.91403  0.36015  1.0000
  H   H411      1.0  0.43590  0.74285  0.22951  1.0000
  H   H412      1.0  0.38584  0.68655  0.18014  1.0000
  H   H413      1.0  0.46516  0.92024  0.23762  1.0000
  C   C414      1.0  0.33016  0.49994  0.36906  1.0000
  C   C415      1.0  0.34550  0.51224  0.36312  1.0000
  C   C416      1.0  0.48600  0.51414  0.47408  1.0000
  Fe  Fe73      1.0  0.43554  0.98104  0.35699  1.0000
  C   C417      1.0  0.46116  0.91073  0.29370  1.0000
  C   C418      1.0  0.48055  0.94566  0.27506  1.0000
  C   C419      1.0  0.46881  0.92482  0.26599  1.0000
  C   C420      1.0  0.32926  0.92252  0.32988  1.0000
  C   C421      1.0  0.42416  0.52903  0.15964  1.0000
  S   S144      1.0  0.45312  0.96554  0.40684  1.0000
  H   H414      1.0  0.46343  0.90403  0.38496  1.0000
  H   H415      1.0  0.34836  0.95802  0.26442  1.0000
  H   H416      1.0  0.42018  0.54961  0.14739  1.0000
  H   H417      1.0  0.39694  0.52360  0.41575  1.0000
  H   H418      1.0  0.46883  0.52168  0.42673  1.0000
  H   H419      1.0  0.44854  0.54349  0.17551  1.0000
  H   H420      1.0  0.36701  0.96787  0.38629  1.0000
  C   C422      1.0  0.35998  0.71310  0.00058  1.0000
  H   H421      1.0  0.47111  0.50401  0.18998  1.0000
  S   S145      1.0  0.64335  0.75955  0.00212  1.0000
  C   C423      1.0  0.45644  0.90292  0.35787  1.0000
  C   C424      1.0  0.46839  0.97550  0.44270  1.0000
  H   H422      1.0  0.33193  0.90903  0.35385  1.0000
  C   C425      1.0  0.33844  0.95010  0.27968  1.0000
  H   H423      1.0  0.48954  0.77214  0.00758  1.0000
  H   H424      1.0  0.47946  0.94337  0.36699  1.0000
  C   C426      1.0  0.34195  0.93142  0.30921  1.0000
  C   C427      1.0  0.32220  0.95965  0.27120  1.0000
  C   C428      1.0  0.61540  0.69561  0.01531  1.0000
  H   H425      1.0  0.48623  0.95727  0.25373  1.0000
  N   N36       1.0  0.44525  0.49983  0.19182  1.0000
  C   C429      1.0  0.32754  0.51206  0.27818  1.0000
  H   H426      1.0  0.61122  0.70791  0.03795  1.0000
  C   C430      1.0  0.48622  0.75361  0.99102  1.0000
  H   H427      1.0  0.40063  0.50892  0.14916  1.0000
  C   C431      1.0  0.47280  0.73675  0.99988  1.0000
  H   H428      1.0  0.45109  0.79776  0.99264  1.0000
  C   C432      1.0  0.41320  0.50629  0.16079  1.0000
  C   C433      1.0  0.34549  0.75893  0.00177  1.0000
  H   H429      1.0  0.34509  0.78132  0.00993  1.0000
  C   C434      1.0  0.43776  0.79640  0.98929  1.0000
  H   H430      1.0  0.46322  0.51095  0.23374  1.0000
  H   H431      1.0  0.37079  0.69976  0.00764  1.0000
  C   C435      1.0  0.46201  0.49708  0.20914  1.0000
  H   H432      1.0  0.31964  0.97480  0.24885  1.0000
  C   C436      1.0  0.41076  0.81756  0.99369  1.0000
  C   C437      1.0  0.35918  0.49485  0.35571  1.0000
  H   H433      1.0  0.50387  0.60890  0.82884  1.0000
  Fe  Fe74      1.0  0.56188  0.73314  0.85831  1.0000
  S   S146      1.0  0.54283  0.76494  0.87655  1.0000
  S   S147      1.0  0.58955  0.72617  0.87424  1.0000
  Fe  Fe75      1.0  0.53829  0.70903  0.79683  1.0000
  S   S148      1.0  0.51783  0.73974  0.81022  1.0000
  S   S149      1.0  0.53499  0.68018  0.74608  1.0000
  Fe  Fe76      1.0  0.53701  0.77429  0.81622  1.0000
  S   S150      1.0  0.53202  0.82172  0.79817  1.0000
  Fe  Fe77      1.0  0.52461  0.72845  0.86935  1.0000
  S   S151      1.0  0.50315  0.71209  0.90163  1.0000
  S   S152      1.0  0.55692  0.74458  0.79868  1.0000
  S   S153      1.0  0.54425  0.69585  0.85523  1.0000
  S   S154      1.0  0.52238  0.98131  0.64405  1.0000
  C   C438      1.0  0.40383  0.79144  0.98202  1.0000
  S   S155      1.0  0.53370  0.54475  0.71179  1.0000
  Fe  Fe78      1.0  0.54536  0.95303  0.64777  1.0000
  S   S156      1.0  0.55024  0.96139  0.58862  1.0000
  S   S157      1.0  0.54852  0.90520  0.66559  1.0000
  C   C439      1.0  0.40626  0.74080  0.96339  1.0000
  H   H434      1.0  0.63090  0.93544  0.59757  1.0000
  H   H435      1.0  0.50031  0.88116  0.65978  1.0000
  H   H436      1.0  0.34677  0.67921  0.97139  1.0000
  H   H437      1.0  0.54832  0.89384  0.58820  1.0000
  C   C440      1.0  0.50250  0.66506  0.81200  1.0000
  H   H438      1.0  0.60300  0.95662  0.60379  1.0000
  H   H439      1.0  0.53778  0.89495  0.54331  1.0000
  C   C441      1.0  0.49811  0.59481  0.73849  1.0000
  C   C442      1.0  0.53673  0.84442  0.76085  1.0000
  C   C443      1.0  0.54523  0.83427  0.73166  1.0000
  C   C444      1.0  0.54873  0.85321  0.70303  1.0000
  C   C445      1.0  0.54389  0.88260  0.70306  1.0000
  C   C446      1.0  0.53536  0.89273  0.73218  1.0000
  C   C447      1.0  0.53183  0.87378  0.76078  1.0000
  H   H440      1.0  0.54902  0.81179  0.73101  1.0000
  H   H441      1.0  0.55532  0.84501  0.68072  1.0000
  H   H442      1.0  0.53152  0.91518  0.73278  1.0000
  H   H443      1.0  0.52526  0.88198  0.78313  1.0000
  C   C448      1.0  0.53729  0.64242  0.73718  1.0000
  C   C449      1.0  0.53939  0.62167  0.76506  1.0000
  C   C450      1.0  0.53911  0.59190  0.75663  1.0000
  C   C451      1.0  0.53693  0.58233  0.72028  1.0000
  C   C452      1.0  0.53548  0.60309  0.69237  1.0000
  C   C453      1.0  0.53557  0.63286  0.70081  1.0000
  H   H444      1.0  0.54076  0.62853  0.79315  1.0000
  H   H445      1.0  0.54022  0.57611  0.77850  1.0000
  H   H446      1.0  0.53368  0.59623  0.66432  1.0000
  H   H447      1.0  0.53394  0.64861  0.67896  1.0000
  C   C454      1.0  0.49163  0.72260  0.93946  1.0000
  S   S158      1.0  0.50845  0.50614  0.53443  1.0000
  H   H448      1.0  0.31900  0.73026  0.82298  1.0000
  H   H449      1.0  0.50581  0.75989  0.95503  1.0000
  H   H450      1.0  0.49589  0.62742  0.69635  1.0000
  H   H451      1.0  0.55705  0.84038  0.85151  1.0000
  C   C455      1.0  0.62852  0.95799  0.59094  1.0000
  H   H452      1.0  0.39391  0.73829  0.97392  1.0000
  C   C456      1.0  0.63314  0.73699  0.93414  1.0000
  C   C457      1.0  0.62096  0.72970  0.90656  1.0000
  C   C458      1.0  0.60425  0.73671  0.90970  1.0000
  C   C459      1.0  0.59986  0.75162  0.94055  1.0000
  C   C460      1.0  0.60894  0.49566  0.58703  1.0000
  H   H453      1.0  0.45860  0.69948  0.98429  1.0000
  H   H454      1.0  0.62451  0.71833  0.88269  1.0000
  H   H455      1.0  0.58708  0.75720  0.94337  1.0000
  S   S159      1.0  0.54413  0.52870  0.60618  1.0000
  H   H456      1.0  0.55554  0.55941  0.51760  1.0000
  C   C461      1.0  0.56879  0.82883  0.85469  1.0000
  C   C462      1.0  0.57449  0.81335  0.82550  1.0000
  S   S160      1.0  0.59001  0.51034  0.60068  1.0000
  H   H457      1.0  0.43827  0.75219  0.97238  1.0000
  C   C463      1.0  0.33206  0.71839  0.97045  1.0000
  H   H458      1.0  0.56701  0.81322  0.79984  1.0000
  H   H459      1.0  0.50210  0.56768  0.78608  1.0000
  C   C464      1.0  0.61206  0.75903  0.96808  1.0000
  H   H460      1.0  0.62094  0.53680  0.59089  1.0000
  C   C465      1.0  0.63992  0.50260  0.66696  1.0000
  H   H461      1.0  0.58404  0.53952  0.52868  1.0000
  H   H462      1.0  0.32091  0.76055  0.97475  1.0000
  C   C466      1.0  0.57731  0.49671  0.51131  1.0000
  C   C467      1.0  0.61266  0.96994  0.59453  1.0000
  C   C468      1.0  0.62235  0.51418  0.58441  1.0000
  H   H463      1.0  0.52431  0.86340  0.62894  1.0000
  N   N37       1.0  0.50010  0.64080  0.78686  1.0000
  H   H464      1.0  0.60049  0.81333  0.91757  1.0000
  C   C469      1.0  0.62874  0.75149  0.96528  1.0000
  H   H465      1.0  0.49792  0.66803  0.73973  1.0000
  C   C470      1.0  0.49683  0.62317  0.72546  1.0000
  C   C471      1.0  0.63764  0.50372  0.57379  1.0000
  C   C472      1.0  0.46877  0.71285  0.97799  1.0000
  N   N38       1.0  0.52236  0.89632  0.58796  1.0000
  C   C473      1.0  0.51416  0.92079  0.57513  1.0000
  C   C474      1.0  0.51733  0.88197  0.61766  1.0000
  H   H466      1.0  0.41393  0.72212  0.97415  1.0000
  C   C475      1.0  0.50380  0.89205  0.63539  1.0000
  C   C476      1.0  0.49524  0.91676  0.62221  1.0000
  C   C477      1.0  0.50146  0.61304  0.79988  1.0000
  H   H467      1.0  0.49818  0.57689  0.71955  1.0000
  H   H468      1.0  0.49364  0.94258  0.51030  1.0000
  H   H469      1.0  0.53780  0.86245  0.57021  1.0000
  C   C478      1.0  0.57417  0.52587  0.51770  1.0000
  H   H470      1.0  0.62767  0.51130  0.67038  1.0000
  H   H471      1.0  0.57374  0.84045  0.91099  1.0000
  C   C479      1.0  0.49794  0.64604  0.75016  1.0000
  C   C480      1.0  0.59314  0.81373  0.89169  1.0000
  H   H472      1.0  0.59514  0.75803  0.80651  1.0000
  H   H473      1.0  0.49908  0.65960  0.83990  1.0000
  C   C481      1.0  0.64133  0.97492  0.57908  1.0000
  H   H474      1.0  0.49403  0.95075  0.58162  1.0000
  C   C482      1.0  0.57816  0.82887  0.88802  1.0000
  H   H475      1.0  0.60143  0.66762  0.93383  1.0000
  H   H476      1.0  0.49487  0.68416  0.80252  1.0000
  H   H477      1.0  0.51562  0.67126  0.81366  1.0000
  H   H478      1.0  0.40497  0.73995  0.93319  1.0000
  N   N39       1.0  0.58913  0.79833  0.82944  1.0000
  C   C483      1.0  0.59846  0.79848  0.86192  1.0000
  C   C484      1.0  0.59486  0.78140  0.79917  1.0000
  H   H479      1.0  0.60994  0.78620  0.86518  1.0000
  H   H480      1.0  0.60741  0.78800  0.79320  1.0000
  H   H481      1.0  0.58663  0.78425  0.77384  1.0000
  C   C485      1.0  0.50039  0.58965  0.77593  1.0000
  C   C486      1.0  0.49553  0.74670  0.96110  1.0000
  Fe  Fe79      1.0  0.53804  0.51560  0.66243  1.0000
  C   C487      1.0  0.50038  0.93118  0.59176  1.0000
  C   C488      1.0  0.54558  0.51879  0.49859  1.0000
  H   H482      1.0  0.63115  0.65635  0.93230  1.0000
  H   H483      1.0  0.64591  0.73126  0.93141  1.0000
  H   H484      1.0  0.64784  0.51823  0.57217  1.0000
  Fe  Fe80      1.0  0.52804  0.99146  0.58608  1.0000
  C   C489      1.0  0.53727  0.88641  0.57147  1.0000
  N   N40       1.0  0.41367  0.76814  0.97524  1.0000
  C   C490      1.0  0.47814  0.70583  0.94822  1.0000
  C   C491      1.0  0.55820  0.53700  0.51155  1.0000
  H   H485      1.0  0.51841  0.93278  0.55230  1.0000
  C   C492      1.0  0.43042  0.77053  0.97802  1.0000
  H   H486      1.0  0.39053  0.78975  0.97924  1.0000
  C   C493      1.0  0.60994  0.67298  0.95687  1.0000
  H   H487      1.0  0.47497  0.68709  0.93193  1.0000
  H   H488      1.0  0.48485  0.92503  0.63597  1.0000
  C   C494      1.0  0.62678  0.66681  0.95610  1.0000
  C   C495      1.0  0.49289  0.98850  0.50072  1.0000
  S   S161      1.0  0.56189  0.98875  0.66928  1.0000
  C   C496      1.0  0.33172  0.74718  0.98176  1.0000
  H   H489      1.0  0.53317  0.52759  0.49421  1.0000
  C   C497      1.0  0.34631  0.70149  0.97995  1.0000
  H   H490      1.0  0.65125  0.96024  0.66852  1.0000
  C   C498      1.0  0.48808  0.95995  0.49379  1.0000
  N   N41       1.0  0.63762  0.67472  0.98440  1.0000
  H   H491      1.0  0.65219  0.54271  0.67889  1.0000
  C   C499      1.0  0.60424  0.68744  0.98672  1.0000
  H   H492      1.0  0.59129  0.69319  0.98705  1.0000
  Fe  Fe81      1.0  0.75372  0.22982  0.33416  1.0000
  S   S162      1.0  0.77318  0.20260  0.36628  1.0000
  S   S163      1.0  0.75208  0.22111  0.27251  1.0000
  Fe  Fe82      1.0  0.74762  0.26760  0.40100  1.0000
  S   S164      1.0  0.76680  0.24324  0.43668  1.0000
  S   S165      1.0  0.73066  0.30486  0.41781  1.0000
  Fe  Fe83      1.0  0.78260  0.24459  0.38878  1.0000
  S   S166      1.0  0.80925  0.26023  0.39342  1.0000
  Fe  Fe84      1.0  0.75594  0.20249  0.41163  1.0000
  S   S167      1.0  0.75444  0.16387  0.45150  1.0000
  S   S168      1.0  0.76408  0.27188  0.35477  1.0000
  S   S169      1.0  0.73576  0.22680  0.37806  1.0000
  Fe  Fe85      1.0  0.92909  0.20289  0.27800  1.0000
  S   S170      1.0  0.92041  0.19152  0.33270  1.0000
  S   S171      1.0  0.93754  0.17146  0.23433  1.0000
  Fe  Fe86      1.0  0.92565  0.26847  0.29222  1.0000
  S   S172      1.0  0.91629  0.26080  0.34801  1.0000
  S   S173      1.0  0.93095  0.31506  0.27398  1.0000
  Fe  Fe87      1.0  0.93673  0.22706  0.35655  1.0000
  S   S174      1.0  0.95137  0.21831  0.41277  1.0000
  Fe  Fe88      1.0  0.90074  0.22602  0.32068  1.0000
  S   S175      1.0  0.87387  0.21217  0.32377  1.0000
  S   S176      1.0  0.94677  0.23623  0.30222  1.0000
  S   S177      1.0  0.90883  0.23586  0.26452  1.0000
  Fe  Fe89      1.0  0.91691  0.44416  0.11710  1.0000
  S   S178      1.0  0.93986  0.47001  0.12762  1.0000
  S   S179      1.0  0.91301  0.39694  0.13456  1.0000
  C   C500      1.0  0.88006  0.05300  0.10693  1.0000
  S   S180      1.0  0.92248  0.02390  0.07843  1.0000
  H   H493      1.0  0.74232  0.05991  0.00014  1.0000
  C   C501      1.0  0.95266  0.14894  0.37650  1.0000
  N   N42       1.0  0.96476  0.15723  0.31988  1.0000
  Fe  Fe90      1.0  0.92111  0.01196  0.13751  1.0000
  S   S181      1.0  0.91810  0.04236  0.18625  1.0000
  S   S182      1.0  0.91625  0.45145  0.05603  1.0000
  C   C502      1.0  0.73394  0.47503  0.44960  1.0000
  Fe  Fe91      1.0  0.70124  0.24627  0.07983  1.0000
  S   S183      1.0  0.72467  0.23205  0.05676  1.0000
  S   S184      1.0  0.69936  0.25471  0.14062  1.0000
  H   H494      1.0  0.95187  0.41663  0.08491  1.0000
  Fe  Fe92      1.0  0.70906  0.19963  0.02527  1.0000
  C   C503      1.0  0.71658  0.17279  0.20516  1.0000
  C   C504      1.0  0.73901  0.08164  0.99107  1.0000
  C   C505      1.0  0.72005  0.37586  0.47820  1.0000
  S   S185      1.0  0.68561  0.21260  0.05051  1.0000
  S   S186      1.0  0.69484  0.27967  0.03579  1.0000
  H   H495      1.0  0.75373  0.22069  0.19495  1.0000
  H   H496      1.0  0.69892  0.26096  0.21825  1.0000
  C   C506      1.0  0.75490  0.42791  0.46378  1.0000
  C   C507      1.0  0.84028  0.45279  0.00906  1.0000
  H   H497      1.0  0.83806  0.43004  0.01278  1.0000
  H   H498      1.0  0.88647  0.08902  0.18549  1.0000
  C   C508      1.0  0.94628  0.34947  0.11826  1.0000
  H   H499      1.0  0.88789  0.06629  0.05475  1.0000
  S   S187      1.0  0.71606  0.15165  0.03229  1.0000
  H   H500      1.0  0.75614  0.44595  0.04695  1.0000
  H   H501      1.0  0.72321  0.14133  0.41735  1.0000
  H   H502      1.0  0.70986  0.39108  0.47903  1.0000
  C   C509      1.0  0.75167  0.40075  0.05542  1.0000
  H   H503      1.0  0.70865  0.35161  0.43334  1.0000
  C   C510      1.0  0.77507  0.41871  0.02639  1.0000
  C   C511      1.0  0.98340  0.23960  0.42825  1.0000
  H   H504      1.0  0.95791  0.12837  0.27660  1.0000
  C   C512      1.0  0.70662  0.24192  0.44964  1.0000
  H   H505      1.0  0.70639  0.26114  0.43127  1.0000
  H   H506      1.0  0.87495  0.03303  0.09623  1.0000
  C   C513      1.0  0.93133  0.13601  0.22054  1.0000
  C   C514      1.0  0.92103  0.11926  0.24058  1.0000
  C   C515      1.0  0.91737  0.09064  0.22991  1.0000
  C   C516      1.0  0.92364  0.07844  0.19865  1.0000
  C   C517      1.0  0.93371  0.09537  0.17825  1.0000
  C   C518      1.0  0.93763  0.12380  0.18934  1.0000
  H   H507      1.0  0.91603  0.12824  0.26456  1.0000
  H   H508      1.0  0.90954  0.07787  0.24595  1.0000
  H   H509      1.0  0.93865  0.08644  0.15417  1.0000
  H   H510      1.0  0.94567  0.13642  0.17363  1.0000
  C   C519      1.0  0.92439  0.33803  0.23616  1.0000
  C   C520      1.0  0.92892  0.36730  0.23702  1.0000
  C   C521      1.0  0.92505  0.38595  0.20686  1.0000
  C   C522      1.0  0.91668  0.37552  0.17512  1.0000
  C   C523      1.0  0.91184  0.34641  0.17454  1.0000
  C   C524      1.0  0.91565  0.32780  0.20476  1.0000
  H   H511      1.0  0.93561  0.37557  0.26116  1.0000
  H   H512      1.0  0.92880  0.40824  0.20798  1.0000
  H   H513      1.0  0.90529  0.33805  0.15029  1.0000
  H   H514      1.0  0.91203  0.30543  0.20354  1.0000
  C   C525      1.0  0.97027  0.22395  0.44044  1.0000
  C   C526      1.0  0.75724  0.37259  0.04981  1.0000
  H   H515      1.0  0.75010  0.35435  0.05787  1.0000
  H   H516      1.0  0.70710  0.22258  0.43198  1.0000
  H   H517      1.0  0.73359  0.23335  0.14290  1.0000
  C   C527      1.0  0.82752  0.24491  0.37713  1.0000
  C   C528      1.0  0.82753  0.21878  0.35825  1.0000
  C   C529      1.0  0.84201  0.20870  0.34329  1.0000
  C   C530      1.0  0.85665  0.22453  0.34691  1.0000
  C   C531      1.0  0.85677  0.25026  0.36668  1.0000
  C   C532      1.0  0.84229  0.26032  0.38170  1.0000
  H   H518      1.0  0.81637  0.20647  0.35484  1.0000
  H   H519      1.0  0.84179  0.18867  0.32830  1.0000
  H   H520      1.0  0.86791  0.26266  0.36983  1.0000
  H   H521      1.0  0.84247  0.28048  0.39643  1.0000
  C   C533      1.0  0.73255  0.33340  0.45038  1.0000
  C   C534      1.0  0.84868  0.01190  0.99468  1.0000
  H   H522      1.0  0.93529  0.11437  0.37665  1.0000
  H   H523      1.0  0.78194  0.43685  0.01710  1.0000
  C   C535      1.0  0.74634  0.33609  0.47513  1.0000
  N   N43       1.0  0.73235  0.99617  0.44684  1.0000
  C   C536      1.0  0.74173  0.13398  0.46139  1.0000
  C   C537      1.0  0.94798  0.39378  0.08237  1.0000
  C   C538      1.0  0.76062  0.42399  0.04367  1.0000
  C   C539      1.0  0.72712  0.12781  0.44059  1.0000
  N   N44       1.0  0.87960  0.05944  0.14307  1.0000
  C   C540      1.0  0.70097  0.18183  0.19093  1.0000
  C   C541      1.0  0.73782  0.23351  0.23644  1.0000
  C   C542      1.0  0.72236  0.24523  0.24269  1.0000
  C   C543      1.0  0.71093  0.25231  0.21305  1.0000
  C   C544      1.0  0.71477  0.24783  0.17681  1.0000
  C   C545      1.0  0.73039  0.23678  0.17054  1.0000
  C   C546      1.0  0.74180  0.22965  0.20017  1.0000
  H   H524      1.0  0.71907  0.24835  0.27036  1.0000
  H   H525      1.0  0.73376  0.04097  0.43394  1.0000
  S   S188      1.0  0.96356  0.47286  0.04176  1.0000
  N   N45       1.0  0.72088  0.24286  0.47637  1.0000
  C   C547      1.0  0.73183  0.45018  0.42864  1.0000
  C   C548      1.0  0.94380  0.12601  0.36091  1.0000
  C   C549      1.0  0.74647  0.47563  0.47771  1.0000
  N   N46       1.0  0.78036  0.39104  0.02067  1.0000
  C   C550      1.0  0.88632  0.08440  0.15661  1.0000
  H   H526      1.0  0.97810  0.19544  0.30949  1.0000
  C   C551      1.0  0.69731  0.18227  0.15328  1.0000
  C   C552      1.0  0.88739  0.07179  0.08331  1.0000
  H   H527      1.0  0.70780  0.01060  0.43286  1.0000
  N   N47       1.0  0.72481  0.16576  0.14441  1.0000
  C   C553      1.0  0.95909  0.39017  0.14641  1.0000
  N   N48       1.0  0.81078  0.25790  0.28763  1.0000
  C   C554      1.0  0.81514  0.28342  0.30390  1.0000
  C   C555      1.0  0.82213  0.24175  0.27069  1.0000
  C   C556      1.0  0.83116  0.29367  0.30287  1.0000
  C   C557      1.0  0.83829  0.25129  0.26931  1.0000
  C   C558      1.0  0.84279  0.27742  0.28551  1.0000
  C   C559      1.0  0.79420  0.24691  0.29105  1.0000
  H   H528      1.0  0.80639  0.29534  0.31917  1.0000
  H   H529      1.0  0.81893  0.22088  0.25933  1.0000
  H   H530      1.0  0.83471  0.31337  0.31692  1.0000
  H   H531      1.0  0.84751  0.23785  0.25745  1.0000
  H   H532      1.0  0.85547  0.28437  0.28597  1.0000
  H   H533      1.0  0.79103  0.22942  0.27132  1.0000
  H   H534      1.0  0.79334  0.23826  0.31902  1.0000
  H   H535      1.0  0.78475  0.26435  0.28595  1.0000
  H   H536      1.0  0.76261  0.40896  0.47005  1.0000
  C   C560      1.0  0.87294  0.03862  0.16801  1.0000
  H   H537      1.0  0.96793  0.38494  0.20302  1.0000
  C   C561      1.0  0.71943  0.35345  0.45220  1.0000
  H   H538      1.0  0.77551  0.34610  0.02668  1.0000
  H   H539      1.0  0.94475  0.31143  0.15216  1.0000
  H   H540      1.0  0.68541  0.19026  0.14187  1.0000
  H   H541      1.0  0.93455  0.39407  0.07424  1.0000
  H   H542      1.0  0.71107  0.38872  0.00620  1.0000
  H   H543      1.0  0.90053  0.11152  0.07913  1.0000
  C   C562      1.0  0.95726  0.34598  0.18093  1.0000
  C   C563      1.0  0.73007  0.21838  0.48464  1.0000
  H   H544      1.0  0.71975  0.17335  0.23435  1.0000
  C   C564      1.0  0.72842  0.16468  0.18135  1.0000
  H   H545      1.0  0.74066  0.15858  0.19271  1.0000
  Fe  Fe93      1.0  0.90088  0.49122  0.06587  1.0000
  C   C565      1.0  0.96321  0.16432  0.35551  1.0000
  H   H546      1.0  0.96989  0.18232  0.36779  1.0000
  Fe  Fe94      1.0  0.71735  0.26326  0.01073  1.0000
  C   C566      1.0  0.97311  0.47746  0.99952  1.0000
  H   H547      1.0  0.71294  0.33530  0.01312  1.0000
  H   H548      1.0  0.69508  0.24165  0.46385  1.0000
  H   H549      1.0  0.74980  0.15580  0.13360  1.0000
  C   C567      1.0  0.97210  0.21233  0.47613  1.0000
  N   N49       1.0  0.75679  0.45230  0.48440  1.0000
  C   C568      1.0  0.77164  0.36808  0.03203  1.0000
  H   H550      1.0  0.93895  0.10074  0.31229  1.0000
  H   H551      1.0  0.86511  0.45007  0.03482  1.0000
  H   H552      1.0  0.72900  0.09387  0.04155  1.0000
  Fe  Fe95      1.0  0.68132  0.24447  0.00403  1.0000
  H   H553      1.0  0.69192  0.18948  0.20894  1.0000
  N   N50       1.0  0.95125  0.37749  0.11654  1.0000
  C   C569      1.0  0.74240  0.42645  0.43564  1.0000
  H   H554      1.0  0.73784  0.17474  0.09788  1.0000
  H   H555      1.0  0.73411  0.13714  0.10583  1.0000
  H   H556      1.0  0.72186  0.44913  0.40746  1.0000
  C   C570      1.0  0.85568  0.46408  0.02161  1.0000
  C   C571      1.0  0.72172  0.34649  0.99777  1.0000
  C   C572      1.0  0.94926  0.33327  0.15039  1.0000
  H   H557      1.0  0.93950  0.33983  0.09505  1.0000
  C   C573      1.0  0.94582  0.11842  0.32486  1.0000
  C   C574      1.0  0.89444  0.09714  0.09698  1.0000
  H   H558      1.0  0.70635  0.09940  0.43320  1.0000
  H   H559      1.0  0.74017  0.40457  0.06781  1.0000
  H   H560      1.0  0.70660  0.17487  0.10106  1.0000
  H   H561      1.0  0.96262  0.41260  0.14542  1.0000
  C   C575      1.0  0.73149  0.10098  0.01449  1.0000
  C   C576      1.0  0.71757  0.10392  0.44967  1.0000
  H   H562      1.0  0.74060  0.40666  0.42028  1.0000
  C   C577      1.0  0.73731  0.15789  0.11942  1.0000
  C   C578      1.0  0.70943  0.17401  0.13030  1.0000
  C   C579      1.0  0.89388  0.10358  0.13386  1.0000
  C   C580      1.0  0.72689  0.12921  0.00292  1.0000
  H   H563      1.0  0.95108  0.15532  0.40440  1.0000
  C   C581      1.0  0.96222  0.37461  0.17901  1.0000
  H   H564      1.0  0.95896  0.33403  0.20649  1.0000
  Fe  Fe96      1.0  0.93846  0.47940  0.06695  1.0000
  H   H565      1.0  0.95466  0.38374  0.06037  1.0000
  C   C582      1.0  0.95653  0.13421  0.30473  1.0000
  H   H566      1.0  0.89971  0.12283  0.14509  1.0000
  S   S189      1.0  0.88016  0.00842  0.02836  1.0000
  H   H567      1.0  0.71720  0.28756  0.48746  1.0000
  C   C583      1.0  0.73971  0.02251  0.44805  1.0000
  H   H568      1.0  0.75655  0.32093  0.47422  1.0000
  H   H569      1.0  0.96214  0.20012  0.48610  1.0000
  H   H570      1.0  0.69930  0.04578  0.01168  1.0000
  H   H571      1.0  0.86613  0.04986  0.18895  1.0000
  C   C584      1.0  0.97582  0.17355  0.29813  1.0000
  H   H572      1.0  0.76009  0.04760  0.47050  1.0000
  H   H573      1.0  0.72702  0.19811  0.47131  1.0000
  H   H574      1.0  0.88323  0.02570  0.18191  1.0000
  S   S190      1.0  0.90008  0.48231  0.12603  1.0000
  H   H575      1.0  0.98236  0.24874  0.40104  1.0000
  H   H576      1.0  0.72567  0.49353  0.44485  1.0000
  H   H577      1.0  0.86432  0.02356  0.15328  1.0000
  C   C585      1.0  0.72068  0.37678  0.99376  1.0000
  H   H578      1.0  0.97248  0.28027  0.48447  1.0000
  C   C586      1.0  0.72235  0.08585  0.47976  1.0000
  C   C587      1.0  0.85896  0.49335  0.01649  1.0000
  H   H579      1.0  0.80562  0.39863  0.01446  1.0000
  H   H580      1.0  0.97022  0.17678  0.26983  1.0000
  C   C588      1.0  0.79520  0.38639  0.00117  1.0000
  H   H581      1.0  0.79896  0.36325  0.00064  1.0000
  C   C589      1.0  0.82782  0.47057  0.99169  1.0000
  C   C590      1.0  0.75464  0.02637  0.46865  1.0000
  H   H582      1.0  0.69055  0.09613  0.99628  1.0000
  H   H583      1.0  0.70779  0.99896  0.99281  1.0000
  H   H584      1.0  0.85176  0.03393  0.98851  1.0000
  C   C591      1.0  0.76222  0.00288  0.48742  1.0000
  Fe  Fe97      1.0  0.71059  0.01828  0.53142  1.0000
  N   N51       1.0  0.70753  0.03701  0.95909  1.0000
  H   H585      1.0  0.98488  0.04826  0.88343  1.0000
  Fe  Fe98      1.0  0.68538  0.47518  0.55574  1.0000
  S   S191      1.0  0.70193  0.44697  0.59333  1.0000
  C   C592      1.0  0.73775  0.11882  0.94454  1.0000
  H   H586      1.0  0.75500  0.33380  0.94957  1.0000
  S   S192      1.0  0.65856  0.45999  0.55114  1.0000
  Fe  Fe99      1.0  0.71954  0.44639  0.54902  1.0000
  S   S193      1.0  0.73565  0.40683  0.53590  1.0000
  S   S194      1.0  0.69634  0.01997  0.58170  1.0000
  S   S195      1.0  0.72433  0.01180  0.66855  1.0000
  H   H587      1.0  0.68292  0.37885  0.93643  1.0000
  C   C593      1.0  0.74438  0.37606  0.95804  1.0000
  H   H588      1.0  0.66171  0.41891  0.66491  1.0000
  N   N52       1.0  0.68350  0.33290  0.94224  1.0000
  H   H589      1.0  0.74086  0.07850  0.52381  1.0000
  H   H590      1.0  0.74310  0.01059  0.79898  1.0000
  Fe  Fe100     1.0  0.74835  0.45973  0.94480  1.0000
  C   C594      1.0  0.73827  0.26984  0.51901  1.0000
  Fe  Fe101     1.0  0.75741  0.01859  0.92753  1.0000
  S   S196      1.0  0.70384  0.22936  0.97681  1.0000
  S   S197      1.0  0.76915  0.44414  0.91325  1.0000
  H   H591      1.0  0.71609  0.03505  0.90575  1.0000
  C   C595      1.0  0.74275  0.99852  0.77387  1.0000
  C   C596      1.0  0.67085  0.47989  0.65618  1.0000
  S   S198      1.0  0.73260  0.48601  0.57148  1.0000
  C   C597      1.0  0.66521  0.03861  0.65641  1.0000
  H   H592      1.0  0.74006  0.12583  0.91732  1.0000
  H   H593      1.0  0.79726  0.45756  0.83338  1.0000
  C   C598      1.0  0.70321  0.35974  0.91093  1.0000
  S   S199      1.0  0.74994  0.06634  0.92371  1.0000
  C   C599      1.0  0.73023  0.13815  0.96794  1.0000
  H   H594      1.0  0.75313  0.38726  0.94262  1.0000
  H   H595      1.0  0.75763  0.36008  0.52036  1.0000
  C   C600      1.0  0.74690  0.35835  0.50135  1.0000
  H   H596      1.0  0.81351  0.43070  0.88246  1.0000
  H   H597      1.0  0.68709  0.28718  0.94438  1.0000
  C   C601      1.0  0.73198  0.39174  0.97388  1.0000
  H   H598      1.0  0.70796  0.38035  0.90265  1.0000
  S   S200      1.0  0.77937  0.00451  0.89743  1.0000
  C   C602      1.0  0.74542  0.34576  0.96208  1.0000
  C   C603      1.0  0.74652  0.11589  0.49145  1.0000
  C   C604      1.0  0.74377  0.21917  0.50990  1.0000
  C   C605      1.0  0.74200  0.09039  0.95576  1.0000
  C   C606      1.0  0.69549  0.08236  0.97581  1.0000
  H   H599      1.0  0.96684  0.99633  0.91801  1.0000
  H   H600      1.0  0.68304  0.47118  0.65245  1.0000
  C   C607      1.0  0.96456  0.48798  0.96756  1.0000
  C   C608      1.0  0.69776  0.09352  0.94130  1.0000
  H   H601      1.0  0.76329  0.44596  0.54062  1.0000
  H   H602      1.0  0.70747  0.08502  0.88944  1.0000
  H   H603      1.0  0.65847  0.32189  0.94512  1.0000
  C   C609      1.0  0.67673  0.01608  0.66293  1.0000
  C   C610      1.0  0.74367  0.47790  0.70954  1.0000
  H   H604      1.0  0.68973  0.02090  0.66377  1.0000
  H   H605      1.0  0.77408  0.47477  0.51985  1.0000
  S   S201      1.0  0.70241  0.47198  0.50989  1.0000
  C   C611      1.0  0.97068  0.28416  0.51371  1.0000
  S   S202      1.0  0.65870  0.25953  0.96684  1.0000
  H   H606      1.0  0.82417  0.01550  0.96740  1.0000
  H   H607      1.0  0.75878  0.24617  0.54592  1.0000
  H   H608      1.0  0.71232  0.28785  0.91119  1.0000
  C   C612      1.0  0.73430  0.99524  0.70845  1.0000
  C   C613      1.0  0.70983  0.04786  0.92522  1.0000
  C   C614      1.0  0.71152  0.33409  0.90361  1.0000
  C   C615      1.0  0.73694  0.09205  0.50061  1.0000
  C   C616      1.0  0.70494  0.07619  0.91577  1.0000
  C   C617      1.0  0.73484  0.01044  0.74157  1.0000
  H   H609      1.0  0.75776  0.12036  0.50787  1.0000
  H   H610      1.0  0.81643  0.01026  0.85432  1.0000
  H   H611      1.0  0.69456  0.11592  0.93489  1.0000
  C   C618      1.0  0.68912  0.35875  0.93037  1.0000
  H   H612      1.0  0.98475  0.45357  0.83355  1.0000
  H   H613      1.0  0.77959  0.43781  0.51154  1.0000
  S   S203      1.0  0.80903  0.45457  0.97428  1.0000
  H   H614      1.0  0.79296  0.39433  0.97261  1.0000
  H   H615      1.0  0.77366  0.00562  0.50401  1.0000
  C   C619      1.0  0.72838  0.49155  0.71252  1.0000
  H   H616      1.0  0.72917  0.03170  0.74223  1.0000
  H   H617      1.0  0.76629  0.46246  0.73815  1.0000
  C   C620      1.0  0.75449  0.47293  0.74094  1.0000
  H   H618      1.0  0.72722  0.00834  0.97591  1.0000
  H   H619      1.0  0.95160  0.49338  0.96764  1.0000
  C   C621      1.0  0.66864  0.33189  0.96230  1.0000
  C   C622      1.0  0.73379  0.37845  0.50311  1.0000
  H   H620      1.0  0.97704  0.28340  0.58567  1.0000
  C   C623      1.0  0.82839  0.46714  0.89840  1.0000
  H   H621      1.0  0.74721  0.47132  0.68304  1.0000
  H   H622      1.0  0.67096  0.31848  0.98740  1.0000
  Fe  Fe102     1.0  0.78505  0.47463  0.94751  1.0000
  H   H623      1.0  0.74143  0.29026  0.53184  1.0000
  H   H624      1.0  0.72276  0.33460  0.88964  1.0000
  H   H625      1.0  0.96102  0.30119  0.51541  1.0000
  C   C624      1.0  0.80690  0.46855  0.84958  1.0000
  C   C625      1.0  0.69151  0.30765  0.93491  1.0000
  H   H626      1.0  0.83550  0.45551  0.92013  1.0000
  C   C626      1.0  0.70565  0.30785  0.91565  1.0000
  H   H627      1.0  0.78578  0.00299  0.80989  1.0000
  H   H628      1.0  0.75127  0.19982  0.51556  1.0000
  C   C627      1.0  0.72459  0.26821  0.49379  1.0000
  C   C628      1.0  0.83299  0.00148  0.98257  1.0000
  C   C629      1.0  0.70056  0.05392  0.98438  1.0000
  H   H629      1.0  0.66958  0.43010  0.62239  1.0000
  N   N53       1.0  0.65729  0.46297  0.65082  1.0000
  H   H630      1.0  0.66930  0.06040  0.65182  1.0000
  S   S204      1.0  0.73013  0.42989  0.96991  1.0000
  C   C630      1.0  0.74797  0.24515  0.52690  1.0000
  H   H631      1.0  0.80502  0.00623  0.78856  1.0000
  H   H632      1.0  0.66454  0.35365  0.97076  1.0000
  C   C631      1.0  0.81610  0.45316  0.87713  1.0000
  C   C632      1.0  0.65926  0.43271  0.64029  1.0000
  Fe  Fe103     1.0  0.76250  0.48190  0.87555  1.0000
  H   H633      1.0  0.72680  0.15979  0.95867  1.0000
  H   H634      1.0  0.98405  0.43599  0.76968  1.0000
  C   C633      1.0  0.73409  0.33079  0.98187  1.0000
  S   S205      1.0  0.73285  0.99694  0.56099  1.0000
  S   S206      1.0  0.76455  0.47498  0.81428  1.0000
  C   C634      1.0  0.76909  0.45275  0.51559  1.0000
  Fe  Fe104     1.0  0.71355  0.48834  0.61283  1.0000
  S   S207      1.0  0.71001  0.05525  0.48874  1.0000
  S   S208      1.0  0.76447  0.48809  0.98144  1.0000
  S   S209      1.0  0.73576  0.29260  0.98543  1.0000
  C   C635      1.0  0.71371  0.00788  0.96906  1.0000
  H   H635      1.0  0.96627  0.26356  0.52484  1.0000
  C   C636      1.0  0.75018  0.48132  0.77578  1.0000
  C   C637      1.0  0.97275  0.49141  0.93518  1.0000
  Fe  Fe105     1.0  0.71792  0.99564  0.61038  1.0000
  Fe  Fe106     1.0  0.75290  0.73112  0.33394  1.0000
  S   S210      1.0  0.76723  0.69848  0.37051  1.0000
  S   S211      1.0  0.75055  0.71860  0.27351  1.0000
  Fe  Fe107     1.0  0.74842  0.77305  0.39785  1.0000
  S   S212      1.0  0.76268  0.74338  0.43769  1.0000
  S   S213      1.0  0.73300  0.81326  0.41180  1.0000
  Fe  Fe108     1.0  0.78055  0.73730  0.39381  1.0000
  S   S214      1.0  0.80828  0.73826  0.41089  1.0000
  Fe  Fe109     1.0  0.74840  0.70664  0.41129  1.0000
  S   S215      1.0  0.73340  0.67654  0.44630  1.0000
  S   S216      1.0  0.76716  0.76954  0.35556  1.0000
  S   S217      1.0  0.73321  0.73665  0.37309  1.0000
  Fe  Fe110     1.0  0.92687  0.70202  0.27742  1.0000
  S   S218      1.0  0.91816  0.69100  0.33243  1.0000
  S   S219      1.0  0.92757  0.67271  0.22667  1.0000
  Fe  Fe111     1.0  0.92655  0.76796  0.29382  1.0000
  S   S220      1.0  0.91772  0.76051  0.34993  1.0000
  S   S221      1.0  0.92989  0.81571  0.27757  1.0000
  Fe  Fe112     1.0  0.93664  0.72397  0.35585  1.0000
  S   S222      1.0  0.95131  0.71409  0.41189  1.0000
  Fe  Fe113     1.0  0.90016  0.72841  0.32344  1.0000
  S   S223      1.0  0.87189  0.72588  0.31894  1.0000
  S   S224      1.0  0.94636  0.73291  0.30071  1.0000
  S   S225      1.0  0.90806  0.73806  0.26742  1.0000
  Fe  Fe114     1.0  0.91856  0.94650  0.12028  1.0000
  H   H636      1.0  0.72356  0.78305  0.08840  1.0000
  S   S226      1.0  0.91513  0.89901  0.13760  1.0000
  C   C638      1.0  0.74004  0.58827  0.45710  1.0000
  S   S227      1.0  0.92322  0.52016  0.07325  1.0000
  C   C639      1.0  0.71245  0.67094  0.35685  1.0000
  C   C640      1.0  0.74870  0.84575  0.46799  1.0000
  Fe  Fe115     1.0  0.90199  0.99187  0.06677  1.0000
  C   C641      1.0  0.95905  0.89780  0.14743  1.0000
  S   S228      1.0  0.92817  0.53818  0.18340  1.0000
  S   S229      1.0  0.91965  0.95455  0.05961  1.0000
  C   C642      1.0  0.95963  0.59034  0.12586  1.0000
  Fe  Fe116     1.0  0.69772  0.74290  0.07677  1.0000
  S   S230      1.0  0.71732  0.72928  0.03993  1.0000
  S   S231      1.0  0.70000  0.75347  0.13778  1.0000
  H   H637      1.0  0.95420  0.53589  0.03142  1.0000
  H   H638      1.0  0.83760  0.93300  0.01555  1.0000
  C   C643      1.0  0.74915  0.64339  0.31110  1.0000
  Fe  Fe117     1.0  0.67095  0.74892  0.01216  1.0000
  C   C644      1.0  0.72751  0.65747  0.35106  1.0000
  S   S232      1.0  0.67887  0.71271  0.05090  1.0000
  S   S233      1.0  0.68838  0.78031  0.04086  1.0000
  H   H639      1.0  0.74906  0.70335  0.19791  1.0000
  H   H640      1.0  0.70168  0.76917  0.21326  1.0000
  H   H641      1.0  0.70815  0.67152  0.38407  1.0000
  C   C645      1.0  0.95665  0.91160  0.04683  1.0000
  Fe  Fe118     1.0  0.69781  0.70176  0.01124  1.0000
  C   C646      1.0  0.70914  0.68351  0.29297  1.0000
  H   H642      1.0  0.89353  0.81932  0.25345  1.0000
  H   H643      1.0  0.88353  0.77432  0.37392  1.0000
  N   N54       1.0  0.73322  0.65708  0.31703  1.0000
  H   H644      1.0  0.75103  0.62271  0.42751  1.0000
  H   H645      1.0  0.96104  0.57425  0.18115  1.0000
  C   C647      1.0  0.85983  0.79625  0.31523  1.0000
  Fe  Fe119     1.0  0.70687  0.76519  0.00276  1.0000
  C   C648      1.0  0.85599  0.79883  0.27764  1.0000
  H   H646      1.0  0.73468  0.64776  0.37414  1.0000
  N   N55       1.0  0.71860  0.77443  0.48400  1.0000
  C   C649      1.0  0.96566  0.54071  0.14278  1.0000
  C   C650      1.0  0.87941  0.79711  0.36913  1.0000
  H   H647      1.0  0.86541  0.80921  0.22598  1.0000
  C   C651      1.0  0.73988  0.97286  0.46448  1.0000
  C   C652      1.0  0.92760  0.63509  0.21561  1.0000
  C   C653      1.0  0.93036  0.61325  0.24194  1.0000
  C   C654      1.0  0.93021  0.58386  0.23157  1.0000
  C   C655      1.0  0.92709  0.57569  0.19487  1.0000
  C   C656      1.0  0.92408  0.59752  0.16859  1.0000
  C   C657      1.0  0.92454  0.62692  0.17886  1.0000
  H   H648      1.0  0.93278  0.61900  0.27027  1.0000
  H   H649      1.0  0.93267  0.56728  0.25221  1.0000
  H   H650      1.0  0.92168  0.59175  0.14027  1.0000
  H   H651      1.0  0.92244  0.64352  0.15814  1.0000
  C   C658      1.0  0.92596  0.83826  0.23796  1.0000
  C   C659      1.0  0.91902  0.82783  0.20470  1.0000
  C   C660      1.0  0.91574  0.84678  0.17459  1.0000
  C   C661      1.0  0.91938  0.87641  0.17704  1.0000
  C   C662      1.0  0.92643  0.88680  0.21019  1.0000
  C   C663      1.0  0.92965  0.86787  0.24034  1.0000
  H   H652      1.0  0.91612  0.80519  0.20219  1.0000
  H   H653      1.0  0.91029  0.83838  0.14918  1.0000
  H   H654      1.0  0.92927  0.90946  0.21279  1.0000
  H   H655      1.0  0.93499  0.87630  0.26585  1.0000
  C   C664      1.0  0.96907  0.72173  0.44273  1.0000
  C   C665      1.0  0.74193  0.61736  0.44626  1.0000
  H   H656      1.0  0.84374  0.79381  0.26606  1.0000
  Fe  Fe120     1.0  0.93999  0.98572  0.07487  1.0000
  H   H657      1.0  0.72967  0.71599  0.14452  1.0000
  C   C666      1.0  0.82579  0.73435  0.38481  1.0000
  C   C667      1.0  0.82436  0.73034  0.34704  1.0000
  C   C668      1.0  0.83861  0.72742  0.32763  1.0000
  C   C669      1.0  0.85449  0.72849  0.34555  1.0000
  C   C670      1.0  0.85594  0.73250  0.38331  1.0000
  C   C671      1.0  0.84169  0.73545  0.40272  1.0000
  H   H658      1.0  0.81227  0.72944  0.33282  1.0000
  H   H659      1.0  0.83727  0.72437  0.29844  1.0000
  H   H660      1.0  0.86799  0.73307  0.39771  1.0000
  H   H661      1.0  0.84296  0.73841  0.43194  1.0000
  C   C672      1.0  0.73489  0.84246  0.44343  1.0000
  C   C673      1.0  0.72057  0.63161  0.48473  1.0000
  H   H662      1.0  0.74731  0.62414  0.29353  1.0000
  H   H663      1.0  0.94025  0.85742  0.11470  1.0000
  N   N56       1.0  0.96451  0.55525  0.07982  1.0000
  C   C674      1.0  0.98161  0.74034  0.43384  1.0000
  C   C675      1.0  0.73213  0.63933  0.45985  1.0000
  H   H664      1.0  0.75703  0.65896  0.29756  1.0000
  H   H665      1.0  0.95029  0.91373  0.15807  1.0000
  C   C676      1.0  0.96068  0.58298  0.08926  1.0000
  C   C677      1.0  0.86814  0.80728  0.25522  1.0000
  H   H666      1.0  0.86500  0.95165  0.03747  1.0000
  C   C678      1.0  0.73649  0.72914  0.23613  1.0000
  C   C679      1.0  0.72302  0.74766  0.24018  1.0000
  C   C680      1.0  0.71202  0.75476  0.20979  1.0000
  C   C681      1.0  0.71430  0.74349  0.17500  1.0000
  C   C682      1.0  0.72774  0.72492  0.17098  1.0000
  C   C683      1.0  0.73872  0.71777  0.20139  1.0000
  H   H667      1.0  0.72111  0.75659  0.26666  1.0000
  N   N57       1.0  0.88653  0.65079  0.23272  1.0000
  C   C684      1.0  0.88345  0.66564  0.26354  1.0000
  C   C685      1.0  0.88975  0.62168  0.23434  1.0000
  C   C686      1.0  0.88388  0.65149  0.29729  1.0000
  C   C687      1.0  0.89051  0.60690  0.26771  1.0000
  C   C688      1.0  0.88758  0.62198  0.29938  1.0000
  C   C689      1.0  0.88584  0.66627  0.19776  1.0000
  H   H668      1.0  0.88076  0.68865  0.26217  1.0000
  H   H669      1.0  0.89220  0.60981  0.20994  1.0000
  H   H670      1.0  0.88152  0.66352  0.32167  1.0000
  H   H671      1.0  0.89356  0.58399  0.26895  1.0000
  H   H672      1.0  0.88824  0.61089  0.32552  1.0000
  H   H673      1.0  0.87286  0.67139  0.18831  1.0000
  H   H674      1.0  0.89286  0.68664  0.20075  1.0000
  H   H675      1.0  0.89161  0.65343  0.17656  1.0000
  N   N58       1.0  0.73298  0.82551  0.08155  1.0000
  C   C690      1.0  0.74449  0.81615  0.05887  1.0000
  C   C691      1.0  0.73046  0.85443  0.08682  1.0000
  C   C692      1.0  0.75374  0.83597  0.04054  1.0000
  C   C693      1.0  0.73941  0.87485  0.06868  1.0000
  C   C694      1.0  0.75112  0.86549  0.04544  1.0000
  C   C695      1.0  0.97068  0.70838  0.47749  1.0000
  H   H676      1.0  0.74628  0.79326  0.05405  1.0000
  C   C696      1.0  0.96682  0.53416  0.10600  1.0000
  H   H677      1.0  0.96942  0.51205  0.09852  1.0000
  H   H678      1.0  0.73702  0.89779  0.07180  1.0000
  H   H679      1.0  0.75900  0.83075  0.46734  1.0000
  H   H680      1.0  0.72132  0.86182  0.10476  1.0000
  S   S234      1.0  0.89967  0.98204  0.12602  1.0000
  H   H681      1.0  0.74768  0.57159  0.44622  1.0000
  H   H682      1.0  0.95788  0.87715  0.16255  1.0000
  S   S235      1.0  0.87851  0.50862  0.02979  1.0000
  C   C697      1.0  0.71648  0.99303  0.42580  1.0000
  H   H683      1.0  0.76240  0.82850  0.02153  1.0000
  C   C698      1.0  0.94060  0.86976  0.05847  1.0000
  H   H684      1.0  0.71070  0.81163  0.10274  1.0000
  H   H685      1.0  0.85042  0.78902  0.33239  1.0000
  H   H686      1.0  0.95834  0.59956  0.06850  1.0000
  H   H687      1.0  0.75598  0.63661  0.33713  1.0000
  S   S236      1.0  0.93988  0.97552  0.13536  1.0000
  N   N59       1.0  0.87536  0.80183  0.33003  1.0000
  C   C699      1.0  0.88392  0.81296  0.27056  1.0000
  H   H688      1.0  0.88939  0.81157  0.37974  1.0000
  C   C700      1.0  0.88737  0.80998  0.30819  1.0000
  H   H689      1.0  0.89978  0.81403  0.31968  1.0000
  C   C701      1.0  0.85618  0.96568  0.02230  1.0000
  H   H690      1.0  0.86854  0.80128  0.38497  1.0000
  C   C702      1.0  0.86040  0.99413  0.01463  1.0000
  C   C703      1.0  0.72164  0.86231  0.44494  1.0000
  C   C704      1.0  0.94639  0.88953  0.03393  1.0000
  C   C705      1.0  0.70330  0.68426  0.32763  1.0000
  C   C706      1.0  0.72411  0.66938  0.28807  1.0000
  H   H691      1.0  0.72872  0.66932  0.26114  1.0000
  C   C707      1.0  0.94522  0.87235  0.09568  1.0000
  H   H692      1.0  0.97630  0.53327  0.03803  1.0000
  C   C708      1.0  0.84059  0.95515  0.00976  1.0000
  H   H693      1.0  0.96697  0.52382  0.16343  1.0000
  Fe  Fe121     1.0  0.92308  0.50904  0.13298  1.0000
  H   H694      1.0  0.95646  0.61225  0.13344  1.0000
  C   C709      1.0  0.84649  0.51111  0.99904  1.0000
  C   C710      1.0  0.97514  0.98630  0.00970  1.0000
  H   H695      1.0  0.71086  0.86005  0.42620  1.0000
  C   C711      1.0  0.72376  0.80456  0.10161  1.0000
  N   N60       1.0  0.95521  0.89420  0.10815  1.0000
  S   S237      1.0  0.96586  0.98498  0.05245  1.0000
  H   H696      1.0  0.73357  0.65832  0.00740  1.0000
  H   H697      1.0  0.94273  0.88810  0.00504  1.0000
  H   H698      1.0  0.75776  0.88114  0.03030  1.0000
  C   C712      1.0  0.96223  0.56904  0.15272  1.0000
  H   H699      1.0  0.96116  0.69396  0.48500  1.0000
  C   C713      1.0  0.96081  0.91385  0.08430  1.0000
  H   H700      1.0  0.70234  0.69425  0.27007  1.0000
  H   H701      1.0  0.72938  0.80182  0.12992  1.0000
  H   H702      1.0  0.69180  0.69540  0.33192  1.0000
  C   C714      1.0  0.96544  0.54762  0.04140  1.0000
  H   H703      1.0  0.96834  0.93170  0.09417  1.0000
  H   H704      1.0  0.98073  0.75087  0.40743  1.0000
  H   H705      1.0  0.96103  0.92735  0.02802  1.0000
  H   H706      1.0  0.93226  0.85294  0.04894  1.0000
  H   H707      1.0  0.70490  0.83797  0.00526  1.0000
  H   H708      1.0  0.66120  0.66242  0.00935  1.0000
  C   C715      1.0  0.72421  0.74641  0.48476  1.0000
  C   C716      1.0  0.70406  0.78245  0.45993  1.0000
  H   H709      1.0  0.96665  0.56691  0.02380  1.0000
  C   C717      1.0  0.72213  0.88503  0.47053  1.0000
  H   H710      1.0  0.73419  0.95184  0.46325  1.0000
  H   H711      1.0  0.97180  0.90550  0.15330  1.0000
  H   H712      1.0  0.71059  0.97226  0.43195  1.0000
  H   H713      1.0  0.71814  0.73037  0.46735  1.0000
  H   H714      1.0  0.69279  0.77397  0.47100  1.0000
  H   H715      1.0  0.70533  0.77373  0.43215  1.0000
  H   H716      1.0  0.70276  0.80629  0.45657  1.0000
  C   C718      1.0  0.82887  0.97290  0.98982  1.0000
  H   H717      1.0  0.71180  0.89992  0.47129  1.0000
  H   H718      1.0  0.70714  0.89148  0.00479  1.0000
  C   C719      1.0  0.72852  0.58054  0.48208  1.0000
  H   H719      1.0  0.84884  0.53379  0.99498  1.0000
  C   C720      1.0  0.73082  0.63787  0.99449  1.0000
  C   C721      1.0  0.75489  0.97586  0.48508  1.0000
  C   C722      1.0  0.71435  0.84808  0.99072  1.0000
  C   C723      1.0  0.71566  0.87846  0.99042  1.0000
  H   H720      1.0  0.75631  0.62428  0.99458  1.0000
  H   H721      1.0  0.71819  0.99410  0.39620  1.0000
  C   C724      1.0  0.73804  0.73809  0.50747  1.0000
  H   H722      1.0  0.80599  0.90590  0.86493  1.0000
  H   H723      1.0  0.76058  0.95741  0.49977  1.0000
  H   H724      1.0  0.97772  0.77158  0.61997  1.0000
  S   S238      1.0  0.70760  0.95213  0.59668  1.0000
  C   C725      1.0  0.75159  0.64326  0.90690  1.0000
  S   S239      1.0  0.68883  0.73657  0.97116  1.0000
  C   C726      1.0  0.74921  0.86852  0.49351  1.0000
  Fe  Fe122     1.0  0.72084  0.95442  0.54511  1.0000
  H   H725      1.0  0.74618  0.83156  0.93966  1.0000
  S   S240      1.0  0.69622  0.51691  0.57672  1.0000
  H   H726      1.0  0.69659  0.97216  0.67216  1.0000
  N   N61       1.0  0.73179  0.67994  0.92057  1.0000
  C   C727      1.0  0.71931  0.66331  0.90573  1.0000
  H   H727      1.0  0.79146  0.97691  0.77714  1.0000
  C   C728      1.0  0.65533  0.66961  0.98247  1.0000
  H   H728      1.0  0.65800  0.65247  0.96264  1.0000
  H   H729      1.0  0.74171  0.60479  0.88167  1.0000
  Fe  Fe123     1.0  0.74878  0.95607  0.94563  1.0000
  S   S241      1.0  0.71426  0.49911  0.67392  1.0000
  Fe  Fe124     1.0  0.75855  0.52312  0.93948  1.0000
  H   H730      1.0  0.75760  0.68273  0.93468  1.0000
  S   S242      1.0  0.76991  0.93829  0.91672  1.0000
  C   C729      1.0  0.79982  0.51312  0.81508  1.0000
  C   C730      1.0  0.83099  0.49991  0.98699  1.0000
  C   C731      1.0  0.82155  0.51122  0.86501  1.0000
  N   N62       1.0  0.80463  0.97368  0.82975  1.0000
  C   C732      1.0  0.79640  0.99082  0.79984  1.0000
  C   C733      1.0  0.75036  0.97122  0.77343  1.0000
  H   H731      1.0  0.68267  0.95433  0.70010  1.0000
  Fe  Fe125     1.0  0.71466  0.51202  0.53383  1.0000
  Fe  Fe126     1.0  0.76241  0.97086  0.87228  1.0000
  H   H732      1.0  0.74847  0.88498  0.93937  1.0000
  C   C734      1.0  0.74029  0.78717  0.52864  1.0000
  H   H733      1.0  0.75566  0.93490  0.73955  1.0000
  C   C735      1.0  0.82190  0.97161  0.88566  1.0000
  C   C736      1.0  0.73896  0.62629  0.89145  1.0000
  C   C737      1.0  0.72408  0.49992  0.74737  1.0000
  H   H734      1.0  0.80680  0.53090  0.80346  1.0000
  H   H735      1.0  0.74661  0.80353  0.54512  1.0000
  S   S243      1.0  0.66132  0.95882  0.57728  1.0000
  H   H736      1.0  0.68007  0.52213  0.66995  1.0000
  H   H737      1.0  0.76416  0.63490  0.90910  1.0000
  H   H738      1.0  0.82349  0.53410  0.86113  1.0000
  H   H739      1.0  0.72372  0.70272  0.96571  1.0000
  C   C738      1.0  0.73758  0.84456  0.95382  1.0000
  H   H740      1.0  0.78865  0.52222  0.82664  1.0000
  C   C739      1.0  0.72624  0.79460  0.50611  1.0000
  S   S244      1.0  0.75723  0.57072  0.95612  1.0000
  H   H741      1.0  0.68158  0.94823  0.65133  1.0000
  H   H742      1.0  0.70659  0.67033  0.90681  1.0000
  Fe  Fe127     1.0  0.68665  0.97642  0.56574  1.0000
  H   H743      1.0  0.84027  0.50758  0.90992  1.0000
  H   H744      1.0  0.66125  0.68984  0.97431  1.0000
  C   C740      1.0  0.68373  0.96462  0.67309  1.0000
  S   S245      1.0  0.76405  0.98972  0.97609  1.0000
  C   C741      1.0  0.72271  0.63634  0.89075  1.0000
  H   H745      1.0  0.69860  0.59848  0.95979  1.0000
  C   C742      1.0  0.66923  0.50879  0.66631  1.0000
  Fe  Fe128     1.0  0.78504  0.97352  0.94453  1.0000
  H   H746      1.0  0.71276  0.62275  0.88022  1.0000
  C   C743      1.0  0.73595  0.88834  0.49506  1.0000
  C   C744      1.0  0.72803  0.89206  0.97216  1.0000
  H   H747      1.0  0.75725  0.75269  0.54615  1.0000
  C   C745      1.0  0.74777  0.67017  0.92154  1.0000
  C   C746      1.0  0.80875  0.92860  0.86220  1.0000
  C   C747      1.0  0.73891  0.87490  0.95360  1.0000
  H   H748      1.0  0.79355  0.93410  0.81241  1.0000
  H   H749      1.0  0.95286  0.99434  0.97578  1.0000
  H   H750      1.0  0.71120  0.99257  0.94620  1.0000
  C   C748      1.0  0.72405  0.58460  0.96083  1.0000
  C   C749      1.0  0.80169  0.94476  0.83262  1.0000
  C   C750      1.0  0.72779  0.70724  0.93814  1.0000
  H   H751      1.0  0.72175  0.81681  0.50576  1.0000
  S   S246      1.0  0.78025  0.51110  0.90729  1.0000
  C   C751      1.0  0.81452  0.98718  0.85590  1.0000
  C   C752      1.0  0.74982  0.95601  0.74031  1.0000
  H   H752      1.0  0.96591  0.49949  0.91078  1.0000
  H   H753      1.0  0.73131  0.50141  0.80527  1.0000
  C   C753      1.0  0.72540  0.83093  0.97259  1.0000
  S   S247      1.0  0.80967  0.95773  0.97348  1.0000
  S   S248      1.0  0.76121  0.95563  0.81293  1.0000
  N   N63       1.0  0.80987  0.49711  0.84345  1.0000
  C   C754      1.0  0.74042  0.59193  0.96994  1.0000
  C   C755      1.0  0.71118  0.60409  0.96781  1.0000
  C   C756      1.0  0.81896  0.94215  0.88877  1.0000
  C   C757      1.0  0.74623  0.75872  0.52920  1.0000
  H   H754      1.0  0.73850  0.72184  0.94089  1.0000
  S   S249      1.0  0.73748  0.91677  0.52786  1.0000
  H   H755      1.0  0.82158  0.51395  0.97379  1.0000
  H   H756      1.0  0.74151  0.95584  0.68290  1.0000
  S   S250      1.0  0.69929  0.97573  0.51299  1.0000
  S   S251      1.0  0.72663  0.54312  0.49413  1.0000
  C   C758      1.0  0.71449  0.63101  0.98411  1.0000
  H   H757      1.0  0.70988  0.59717  0.51504  1.0000
  H   H758      1.0  0.82422  0.93008  0.91236  1.0000
  H   H759      1.0  0.72134  0.56434  0.94736  1.0000
  H   H760      1.0  0.74261  0.71591  0.50739  1.0000
  C   C759      1.0  0.74176  0.96782  0.70808  1.0000
  H   H761      1.0  0.71231  0.51051  0.75011  1.0000
  H   H762      1.0  0.76001  0.87083  0.51219  1.0000
  S   S252      1.0  0.73001  0.93024  0.97504  1.0000
  H   H763      1.0  0.71774  0.71915  0.92198  1.0000
  H   H764      1.0  0.71287  0.64823  0.49555  1.0000
  C   C760      1.0  0.98439  0.71342  0.50271  1.0000
  C   C761      1.0  0.65526  0.98235  0.66624  1.0000
  S   S253      1.0  0.72524  0.79250  0.97456  1.0000
  C   C762      1.0  0.71883  0.60255  0.49592  1.0000
  N   N64       1.0  0.67167  0.98833  0.66734  1.0000
  C   C763      1.0  0.97407  0.99236  0.94348  1.0000
  C   C764      1.0  0.96606  0.99120  0.97631  1.0000
  H   H765      1.0  0.82943  0.98239  0.90688  1.0000
  C   C765      1.0  0.65364  0.52023  0.67149  1.0000
  S   S254      1.0  0.74033  0.98645  0.89963  1.0000
  S   S255      1.0  0.74057  0.49603  0.90523  1.0000
  S   S256      1.0  0.69795  0.65609  0.98796  1.0000
  H   H766      1.0  0.79568  0.49873  0.79217  1.0000
  H   H767      1.0  0.98520  0.70285  0.52908  1.0000
  C   C766      1.0  0.83107  0.49641  0.89260  1.0000
  C   C767      1.0  0.74369  0.61846  0.98731  1.0000
  H   H768      1.0  0.74774  0.49471  0.49457  1.0000
  C   C768      1.0  0.73485  0.49479  0.77879  1.0000
