data_image0
_chemical_formula_structural       HS2FeSH3SFeS2FeSFeS3FeS2FeS2FeSFeS3C6H4CNSHCFeH2C6H4C6H4C6H3NC6H8CHCHC2H4FeCH2C2HCHCH2NH3C3HC2H2C3SNHC3NH4C2HFeHCHCH2CHCSHSHSNFeSHFeS2FeS2FeSFeS3FeS2FeS2FeS2C3HCH2C2NCH2C6H4C6H4C6H4C6H5CH4Fe2NHCSH2CNC7H2CH3CHCSH2C2H2CHC3HSH4CH2CHCSHC3H4CNCHFe2S2FeS3FeS2FeSCFeSFeHS2CSC3SCH3C9HNHCH2C2HCSC6H4C2HCHCHCSH3C2HCFeH3CH3CH6C2HNH2CH2NC6H3CH2SNHCH4NCH3FeS2FeS3FeS2FeS2FeHFeS3HCSC4HC2HFeH4CSC9HCH2FeC3H2C6H4NC6H9CSCH2S2NH2CH2C3NC4H3SC2H7CSH2CH3CHC8HC5H5FeH5CHFeCFeCHFeH2FeCHSHCH2CHNCSC6H4C2HNC2HCHC2SH2C2HSCSCSHCH2C3SH2FeC2HFeCHS2H2C2FeSNFeSC2FeSCSHFeS2H2SNSC6H4C6HNH4CHCHSHCH3CH3CHSFeSH2CHCHCHC2H4C4HNCHC2H3CSHCHC2HC2H3C2NSCH2FeSCSHCHSHFeHSC6H4C2HFeSCFeC2H3CH2NCSCH4NC2H2C3HCH2C2H5FeSCHC2FeSHC2FeS3HSH2FeSCHCSC6H4C8H3FeSH3SH2C2HCFeCNHSH2CNH2CSCHCFeC3H3C2HC2H4CNFeS2FeS2FeS2FeSHFeSFeHS2HC5H2SH2SC8HC4SNC2H4C6H5CHNSFeH5C2H4CSH5SC2H3CNFeCHCSHC2H2CH2FeHC3H4CFeHSFeS2FeSHFeS2FeSFeS4CH3C3NC3HNH2C6H3C3H2C7H4C3SHCHCH2CNFeCHFeSCHCNC6H8SC2H2NHSCSCSHCSHFeH2C5HC2NH2CH2C4HCH3CH3C3H4CHC2HFeSHFeS2HFeSFeSHSFeS2FeS2FeSFeS3FeS2FeS2C6H4C6H3C7H4NC4H3C7H3CHCHNCHCHSH2CH2NH2C2H2NC2H4CHCH2CH2CH2CHCHCH3C2SHCH2C3HCHFeHSFeS2FeSFeS2HFeS2FeS2FeSFeS3NC3SC7H4C3H2C6H4C2HCH2C6H4C6H5SNC2H6CHCHC2H2NH3CH2CHCNHCHCHCH2CHCSC4HCH3C2HCSH2NSH2C2HCHCH6S
_chemical_formula_sum              "H576 S192 Fe96 C576 N48"
_cell_length_a       59.802
_cell_length_b       59.498
_cell_length_c       29.5956
_cell_angle_alpha    89.7842
_cell_angle_beta     89.8128
_cell_angle_gamma    89.2564

_space_group_name_H-M_alt    "P 1"
_space_group_IT_number       1

loop_
  _space_group_symop_operation_xyz
  'x, y, z'

loop_
  _atom_site_type_symbol
  _atom_site_label
  _atom_site_symmetry_multiplicity
  _atom_site_fract_x
  _atom_site_fract_y
  _atom_site_fract_z
  _atom_site_occupancy
  H   H1        1.0  0.11456  0.21627  0.06535  1.0000
  S   S1        1.0  0.25776  0.01811  0.84151  1.0000
  S   S2        1.0  0.23699  0.01677  0.71537  1.0000
  Fe  Fe1       1.0  0.22744  0.01998  0.88704  1.0000
  S   S3        1.0  0.21590  0.05335  0.91859  1.0000
  H   H2        1.0  0.02279  0.22111  0.28376  1.0000
  H   H3        1.0  0.23382  0.13453  0.93369  1.0000
  H   H4        1.0  0.22980  0.03639  0.00794  1.0000
  S   S4        1.0  0.04721  0.20614  0.06414  1.0000
  Fe  Fe2       1.0  0.28543  0.14340  0.49875  1.0000
  S   S5        1.0  0.25907  0.14842  0.55259  1.0000
  S   S6        1.0  0.27775  0.12818  0.43009  1.0000
  Fe  Fe3       1.0  0.27748  0.18039  0.56580  1.0000
  S   S7        1.0  0.25853  0.21158  0.58651  1.0000
  Fe  Fe4       1.0  0.28360  0.13199  0.60044  1.0000
  S   S8        1.0  0.27683  0.11253  0.66563  1.0000
  S   S9        1.0  0.30221  0.17672  0.50874  1.0000
  S   S10       1.0  0.30870  0.12430  0.54571  1.0000
  Fe  Fe5       1.0  0.21014  0.16668  0.20684  1.0000
  S   S11       1.0  0.22571  0.15721  0.13997  1.0000
  S   S12       1.0  0.22793  0.17973  0.26960  1.0000
  Fe  Fe6       1.0  0.16230  0.16487  0.16831  1.0000
  S   S13       1.0  0.17397  0.15435  0.09920  1.0000
  S   S14       1.0  0.12748  0.17571  0.19102  1.0000
  Fe  Fe7       1.0  0.19840  0.13151  0.13535  1.0000
  S   S15       1.0  0.20854  0.09561  0.11599  1.0000
  Fe  Fe8       1.0  0.20026  0.18054  0.10869  1.0000
  S   S16       1.0  0.20544  0.20438  0.05046  1.0000
  S   S17       1.0  0.18431  0.13960  0.20479  1.0000
  S   S18       1.0  0.18712  0.19244  0.17508  1.0000
  C   C1        1.0  0.26562  0.14293  0.38391  1.0000
  C   C2        1.0  0.26314  0.16632  0.38402  1.0000
  C   C3        1.0  0.25232  0.17733  0.34780  1.0000
  C   C4        1.0  0.24370  0.16511  0.31131  1.0000
  C   C5        1.0  0.24671  0.14177  0.31060  1.0000
  C   C6        1.0  0.25769  0.13076  0.34670  1.0000
  H   H5        1.0  0.26928  0.17592  0.41226  1.0000
  H   H6        1.0  0.25019  0.19542  0.34849  1.0000
  H   H7        1.0  0.24036  0.13218  0.28255  1.0000
  H   H8        1.0  0.25972  0.11266  0.34615  1.0000
  C   C7        1.0  0.25198  0.10428  0.95014  1.0000
  N   N1        1.0  0.24119  0.13254  0.00416  1.0000
  S   S19       1.0  0.29991  0.16470  0.61739  1.0000
  H   H9        1.0  0.21287  0.15007  0.03004  1.0000
  C   C8        1.0  0.25033  0.11989  0.03828  1.0000
  Fe  Fe9       1.0  0.32334  0.15817  0.55990  1.0000
  H   H10       1.0  0.22698  0.16452  0.98488  1.0000
  H   H11       1.0  0.23925  0.16363  0.03973  1.0000
  C   C9        1.0  0.07096  0.19961  0.09736  1.0000
  C   C10       1.0  0.07582  0.21148  0.13677  1.0000
  C   C11       1.0  0.09369  0.20445  0.16454  1.0000
  C   C12       1.0  0.10728  0.18598  0.15241  1.0000
  C   C13       1.0  0.10303  0.17474  0.11199  1.0000
  C   C14       1.0  0.08479  0.18139  0.08487  1.0000
  H   H12       1.0  0.06537  0.22555  0.14676  1.0000
  H   H13       1.0  0.09683  0.21316  0.19587  1.0000
  H   H14       1.0  0.11321  0.16032  0.10261  1.0000
  H   H15       1.0  0.08115  0.17212  0.05442  1.0000
  C   C15       1.0  0.24631  0.04412  0.70158  1.0000
  C   C16       1.0  0.24876  0.05041  0.65595  1.0000
  C   C17       1.0  0.25764  0.07149  0.64403  1.0000
  C   C18       1.0  0.26419  0.08642  0.67778  1.0000
  C   C19       1.0  0.26150  0.08018  0.72332  1.0000
  C   C20       1.0  0.25256  0.05921  0.73520  1.0000
  H   H16       1.0  0.24396  0.03883  0.62970  1.0000
  H   H17       1.0  0.25964  0.07608  0.60886  1.0000
  H   H18       1.0  0.26649  0.09164  0.74962  1.0000
  H   H19       1.0  0.25074  0.05464  0.77039  1.0000
  C   C21       1.0  0.21309  0.06395  0.97431  1.0000
  C   C22       1.0  0.20229  0.08488  0.98041  1.0000
  C   C23       1.0  0.20037  0.09461  0.02360  1.0000
  C   C24       1.0  0.20919  0.08344  0.06131  1.0000
  C   C25       1.0  0.21946  0.06221  0.05540  1.0000
  C   C26       1.0  0.22150  0.05252  0.01210  1.0000
  H   H20       1.0  0.19562  0.09379  0.95140  1.0000
  H   H21       1.0  0.19221  0.11081  0.02770  1.0000
  H   H22       1.0  0.22628  0.05342  0.08443  1.0000
  N   N2        1.0  0.19990  0.15346  0.37516  1.0000
  C   C27       1.0  0.20903  0.13863  0.40560  1.0000
  C   C28       1.0  0.19997  0.17607  0.38356  1.0000
  C   C29       1.0  0.21886  0.14634  0.44540  1.0000
  C   C30       1.0  0.20962  0.18436  0.42309  1.0000
  C   C31       1.0  0.21914  0.16936  0.45413  1.0000
  C   C32       1.0  0.18936  0.14494  0.33405  1.0000
  H   H23       1.0  0.20936  0.12075  0.39863  1.0000
  H   H24       1.0  0.19320  0.18786  0.35891  1.0000
  H   H25       1.0  0.29992  0.04955  0.67379  1.0000
  H   H26       1.0  0.21023  0.20232  0.42901  1.0000
  H   H27       1.0  0.32422  0.15941  0.41904  1.0000
  H   H28       1.0  0.19943  0.13090  0.31943  1.0000
  H   H29       1.0  0.17224  0.13903  0.34172  1.0000
  H   H30       1.0  0.18831  0.15813  0.30734  1.0000
  C   C33       1.0  0.22951  0.15366  0.01511  1.0000
  H   H31       1.0  0.24895  0.12537  0.07313  1.0000
  C   C34       1.0  0.26076  0.09922  0.02905  1.0000
  H   H32       1.0  0.26732  0.08894  0.05644  1.0000
  C   C35       1.0  0.24175  0.12493  0.96056  1.0000
  C   C36       1.0  0.26155  0.09140  0.98467  1.0000
  H   H33       1.0  0.22637  0.22325  0.12961  1.0000
  H   H34       1.0  0.25171  0.09786  0.91584  1.0000
  H   H35       1.0  0.22720  0.17557  0.48438  1.0000
  H   H36       1.0  0.01520  0.23900  0.23670  1.0000
  Fe  Fe10      1.0  0.02414  0.23593  0.07826  1.0000
  C   C37       1.0  0.04615  0.17649  0.19422  1.0000
  H   H37       1.0  0.26878  0.07499  0.97724  1.0000
  H   H38       1.0  0.22691  0.13458  0.46855  1.0000
  C   C38       1.0  0.27166  0.24379  0.52603  1.0000
  C   C39       1.0  0.21026  0.23226  0.06698  1.0000
  H   H39       1.0  0.06194  0.16749  0.19837  1.0000
  C   C40       1.0  0.12424  0.23035  0.07700  1.0000
  H   H40       1.0  0.26757  0.23195  0.49974  1.0000
  C   C41       1.0  0.03304  0.17274  0.15615  1.0000
  H   H41       1.0  0.15271  0.02400  0.86097  1.0000
  H   H42       1.0  0.31747  0.06431  0.74317  1.0000
  N   N3        1.0  0.16451  0.02208  0.92929  1.0000
  H   H43       1.0  0.17187  0.04551  0.87750  1.0000
  H   H44       1.0  0.16537  0.05111  0.97126  1.0000
  H   H45       1.0  0.15126  0.20901  0.10110  1.0000
  C   C42       1.0  0.15768  0.03506  0.88933  1.0000
  C   C43       1.0  0.22093  0.23689  0.10780  1.0000
  C   C44       1.0  0.14505  0.22613  0.09700  1.0000
  H   H46       1.0  0.32196  0.03926  0.81050  1.0000
  C   C45       1.0  0.30225  0.03867  0.70299  1.0000
  C   C46       1.0  0.31205  0.04697  0.74209  1.0000
  H   H47       1.0  0.22525  0.23506  0.66154  1.0000
  H   H48       1.0  0.05007  0.19609  0.25423  1.0000
  C   C47       1.0  0.27072  0.23718  0.57136  1.0000
  C   C48       1.0  0.03938  0.19280  0.22555  1.0000
  C   C49       1.0  0.17532  0.02131  0.00746  1.0000
  S   S20       1.0  0.20387  0.00895  0.83232  1.0000
  N   N4        1.0  0.29659  0.00310  0.73979  1.0000
  H   H49       1.0  0.14324  0.04626  0.89747  1.0000
  C   C50       1.0  0.01301  0.22206  0.25197  1.0000
  C   C51       1.0  0.16786  0.03304  0.96920  1.0000
  C   C52       1.0  0.15780  0.24413  0.11171  1.0000
  N   N5        1.0  0.01983  0.20467  0.21956  1.0000
  H   H50       1.0  0.27482  0.24767  0.64035  1.0000
  H   H51       1.0  0.21924  0.24577  0.58155  1.0000
  H   H52       1.0  0.08495  0.24042  0.04575  1.0000
  H   H53       1.0  0.19475  0.24657  0.00770  1.0000
  C   C53       1.0  0.31443  0.03300  0.77982  1.0000
  C   C54       1.0  0.00688  0.20106  0.18233  1.0000
  H   H54       1.0  0.17838  0.03021  0.03876  1.0000
  Fe  Fe11      1.0  0.23448  0.00547  0.78866  1.0000
  H   H55       1.0  0.17392  0.24108  0.12746  1.0000
  C   C55       1.0  0.29445  0.01660  0.70250  1.0000
  H   H56       1.0  0.28596  0.01058  0.67263  1.0000
  C   C56       1.0  0.30673  0.01090  0.77795  1.0000
  H   H57       1.0  0.32667  0.13412  0.45129  1.0000
  H   H58       1.0  0.03861  0.16095  0.13045  1.0000
  C   C57       1.0  0.01332  0.18513  0.15001  1.0000
  H   H59       1.0  0.00348  0.18291  0.11963  1.0000
  C   C58       1.0  0.20327  0.25008  0.03904  1.0000
  S   S21       1.0  0.32093  0.35660  0.58243  1.0000
  H   H60       1.0  0.20122  0.41821  0.32030  1.0000
  S   S22       1.0  0.23377  0.47286  0.44776  1.0000
  H   H61       1.0  0.25153  0.29337  0.02962  1.0000
  S   S23       1.0  0.25218  0.47693  0.22859  1.0000
  N   N6        1.0  0.26332  0.43502  0.31226  1.0000
  Fe  Fe12      1.0  0.02458  0.28600  0.09176  1.0000
  S   S24       1.0  0.04937  0.31373  0.10650  1.0000
  H   H62       1.0  0.12263  0.28671  0.08154  1.0000
  Fe  Fe13      1.0  0.19277  0.38213  0.07957  1.0000
  S   S25       1.0  0.18151  0.38395  0.00674  1.0000
  S   S26       1.0  0.18478  0.40970  0.13133  1.0000
  Fe  Fe14      1.0  0.20923  0.33347  0.06837  1.0000
  S   S27       1.0  0.19988  0.33169  0.99533  1.0000
  S   S28       1.0  0.22527  0.30477  0.10681  1.0000
  Fe  Fe15      1.0  0.21411  0.36628  0.98977  1.0000
  S   S29       1.0  0.24007  0.37638  0.93691  1.0000
  Fe  Fe16      1.0  0.16814  0.34907  0.01819  1.0000
  S   S30       1.0  0.13546  0.33626  0.98996  1.0000
  S   S31       1.0  0.22615  0.36684  0.06212  1.0000
  S   S32       1.0  0.17669  0.34849  0.09171  1.0000
  Fe  Fe17      1.0  0.29862  0.38518  0.60529  1.0000
  S   S33       1.0  0.30576  0.37933  0.67969  1.0000
  S   S34       1.0  0.30474  0.41844  0.56883  1.0000
  Fe  Fe18      1.0  0.29040  0.33546  0.58891  1.0000
  S   S35       1.0  0.29672  0.32595  0.66078  1.0000
  S   S36       1.0  0.28347  0.31039  0.53394  1.0000
  Fe  Fe19      1.0  0.27600  0.35636  0.67874  1.0000
  S   S37       1.0  0.24742  0.34926  0.72823  1.0000
  S   S38       1.0  0.26752  0.36448  0.60587  1.0000
  C   C59       1.0  0.25345  0.42430  0.27686  1.0000
  C   C60       1.0  0.28021  0.28199  0.54880  1.0000
  C   C61       1.0  0.27641  0.26618  0.51480  1.0000
  H   H63       1.0  0.23394  0.26269  0.15106  1.0000
  C   C62       1.0  0.28034  0.27507  0.59398  1.0000
  H   H64       1.0  0.27636  0.27143  0.47973  1.0000
  H   H65       1.0  0.28314  0.28702  0.62045  1.0000
  C   C63       1.0  0.21828  0.27707  0.09200  1.0000
  C   C64       1.0  0.20694  0.27245  0.05188  1.0000
  N   N7        1.0  0.26251  0.31893  0.98428  1.0000
  C   C65       1.0  0.22891  0.43361  0.35430  1.0000
  H   H66       1.0  0.20134  0.28605  0.03031  1.0000
  H   H67       1.0  0.23530  0.30453  0.69420  1.0000
  C   C66       1.0  0.24149  0.36888  0.87879  1.0000
  C   C67       1.0  0.22490  0.35624  0.85790  1.0000
  C   C68       1.0  0.22701  0.35039  0.81187  1.0000
  C   C69       1.0  0.24571  0.35699  0.78622  1.0000
  C   C70       1.0  0.26241  0.36937  0.80730  1.0000
  C   C71       1.0  0.26026  0.37530  0.85325  1.0000
  H   H68       1.0  0.21038  0.35115  0.87708  1.0000
  H   H69       1.0  0.21394  0.34087  0.79592  1.0000
  H   H70       1.0  0.27688  0.37459  0.78810  1.0000
  H   H71       1.0  0.27320  0.38507  0.86905  1.0000
  C   C72       1.0  0.07433  0.31700  0.07516  1.0000
  C   C73       1.0  0.07549  0.31158  0.02929  1.0000
  C   C74       1.0  0.09468  0.31690  0.00395  1.0000
  C   C75       1.0  0.11295  0.32742  0.02430  1.0000
  C   C76       1.0  0.11216  0.33204  0.07059  1.0000
  C   C77       1.0  0.09285  0.32695  0.09582  1.0000
  H   H72       1.0  0.06125  0.30412  0.01291  1.0000
  H   H73       1.0  0.09512  0.31338  0.96809  1.0000
  H   H74       1.0  0.12607  0.34020  0.08663  1.0000
  H   H75       1.0  0.09204  0.33124  0.13130  1.0000
  C   C78       1.0  0.23290  0.45902  0.20094  1.0000
  C   C79       1.0  0.21023  0.45842  0.21277  1.0000
  C   C80       1.0  0.19578  0.44330  0.19104  1.0000
  C   C81       1.0  0.20377  0.42849  0.15746  1.0000
  C   C82       1.0  0.22647  0.42900  0.14586  1.0000
  C   C83       1.0  0.24087  0.44423  0.16731  1.0000
  H   H76       1.0  0.20381  0.46964  0.23852  1.0000
  H   H77       1.0  0.17827  0.44313  0.20024  1.0000
  H   H78       1.0  0.23288  0.41782  0.12000  1.0000
  H   H79       1.0  0.25834  0.44455  0.15774  1.0000
  C   C84       1.0  0.25402  0.45727  0.47936  1.0000
  C   C85       1.0  0.24692  0.43935  0.50682  1.0000
  C   C86       1.0  0.26229  0.42696  0.53346  1.0000
  C   C87       1.0  0.28495  0.43257  0.53351  1.0000
  C   C88       1.0  0.29207  0.45039  0.50572  1.0000
  C   C89       1.0  0.27675  0.46255  0.47848  1.0000
  H   H80       1.0  0.22939  0.43512  0.50788  1.0000
  H   H81       1.0  0.25651  0.41340  0.55478  1.0000
  H   H82       1.0  0.30952  0.45495  0.50559  1.0000
  H   H83       1.0  0.28248  0.47636  0.45778  1.0000
  H   H84       1.0  0.15992  0.28019  0.11604  1.0000
  C   C90       1.0  0.21872  0.42268  0.31832  1.0000
  H   H85       1.0  0.21949  0.43761  0.38472  1.0000
  H   H86       1.0  0.24297  0.32263  0.58483  1.0000
  H   H87       1.0  0.28713  0.45743  0.28541  1.0000
  H   H88       1.0  0.29713  0.42886  0.29291  1.0000
  Fe  Fe20      1.0  0.24090  0.49801  0.39135  1.0000
  Fe  Fe21      1.0  0.32575  0.34917  0.65575  1.0000
  N   N8        1.0  0.22805  0.29742  0.62509  1.0000
  H   H89       1.0  0.06003  0.36495  0.01300  1.0000
  C   C91       1.0  0.28652  0.44240  0.30782  1.0000
  S   S39       1.0  0.02670  0.25694  0.14043  1.0000
  H   H90       1.0  0.23329  0.26472  0.71836  1.0000
  H   H91       1.0  0.09374  0.38982  0.12993  1.0000
  C   C92       1.0  0.07444  0.37767  0.07428  1.0000
  N   N9        1.0  0.11199  0.39139  0.06796  1.0000
  C   C93       1.0  0.09355  0.38685  0.09380  1.0000
  C   C94       1.0  0.11212  0.38664  0.02276  1.0000
  C   C95       1.0  0.27156  0.33299  0.02023  1.0000
  C   C96       1.0  0.09328  0.37755  0.00211  1.0000
  C   C97       1.0  0.07438  0.37297  0.02814  1.0000
  C   C98       1.0  0.13222  0.39982  0.08963  1.0000
  C   C99       1.0  0.24368  0.28553  0.96079  1.0000
  H   H92       1.0  0.12711  0.38909  0.00261  1.0000
  H   H93       1.0  0.09384  0.37298  0.96665  1.0000
  C   C100      1.0  0.22201  0.25869  0.60665  1.0000
  H   H94       1.0  0.12807  0.41230  0.11631  1.0000
  H   H95       1.0  0.14177  0.38569  0.10526  1.0000
  H   H96       1.0  0.14341  0.40838  0.06507  1.0000
  C   C101      1.0  0.22357  0.28126  0.59377  1.0000
  H   H97       1.0  0.28972  0.32951  0.02431  1.0000
  C   C102      1.0  0.24512  0.29256  0.91584  1.0000
  S   S40       1.0  0.27071  0.49920  0.34527  1.0000
  H   H98       1.0  0.26895  0.35113  0.01210  1.0000
  H   H99       1.0  0.06012  0.37328  0.09505  1.0000
  C   C103      1.0  0.23106  0.41788  0.27940  1.0000
  C   C104      1.0  0.25592  0.31256  0.90534  1.0000
  H   H100      1.0  0.18927  0.49566  0.42184  1.0000
  H   H101      1.0  0.23312  0.33234  0.63899  1.0000
  C   C105      1.0  0.26477  0.32550  0.94018  1.0000
  H   H102      1.0  0.26296  0.32982  0.05304  1.0000
  C   C106      1.0  0.25268  0.29894  0.99477  1.0000
  C   C107      1.0  0.23021  0.26926  0.68339  1.0000
  C   C108      1.0  0.23141  0.29172  0.66944  1.0000
  H   H103      1.0  0.27299  0.34114  0.93180  1.0000
  S   S41       1.0  0.02346  0.26490  0.02906  1.0000
  H   H104      1.0  0.26267  0.42137  0.24575  1.0000
  H   H105      1.0  0.22317  0.40993  0.25067  1.0000
  H   H106      1.0  0.21336  0.32652  0.59525  1.0000
  H   H107      1.0  0.25715  0.31830  0.87053  1.0000
  C   C109      1.0  0.25135  0.43975  0.35063  1.0000
  H   H108      1.0  0.29380  0.44689  0.34105  1.0000
  H   H109      1.0  0.25902  0.44850  0.37855  1.0000
  C   C110      1.0  0.22944  0.32089  0.61040  1.0000
  H   H110      1.0  0.22177  0.28572  0.55837  1.0000
  C   C111      1.0  0.14983  0.26607  0.10564  1.0000
  S   S42       1.0  0.21598  0.49741  0.33447  1.0000
  H   H111      1.0  0.23790  0.28254  0.88919  1.0000
  C   C112      1.0  0.12881  0.26965  0.08598  1.0000
  C   C113      1.0  0.09407  0.25621  0.05278  1.0000
  C   C114      1.0  0.22518  0.25923  0.11995  1.0000
  H   H112      1.0  0.08353  0.26628  0.07647  1.0000
  H   H113      1.0  0.09579  0.26562  0.02048  1.0000
  H   H114      1.0  0.32460  0.25663  0.58739  1.0000
  H   H115      1.0  0.23548  0.26992  0.96947  1.0000
  C   C115      1.0  0.27567  0.25271  0.60521  1.0000
  N   N10       1.0  0.11620  0.25188  0.07251  1.0000
  C   C116      1.0  0.22547  0.25267  0.65170  1.0000
  H   H116      1.0  0.32981  0.29313  0.55406  1.0000
  Fe  Fe22      1.0  0.24552  0.50041  0.28841  1.0000
  Fe  Fe23      1.0  0.21637  0.53528  0.33808  1.0000
  S   S43       1.0  0.24404  0.53846  0.28686  1.0000
  S   S44       1.0  0.18453  0.55637  0.33424  1.0000
  Fe  Fe24      1.0  0.26642  0.53700  0.34762  1.0000
  S   S45       1.0  0.29364  0.56198  0.36434  1.0000
  S   S46       1.0  0.23852  0.53556  0.39878  1.0000
  S   S47       1.0  0.28833  0.72808  0.38168  1.0000
  Fe  Fe25      1.0  0.15094  0.67804  0.41689  1.0000
  S   S48       1.0  0.14613  0.68458  0.34304  1.0000
  S   S49       1.0  0.16999  0.64734  0.44303  1.0000
  Fe  Fe26      1.0  0.13519  0.72564  0.44368  1.0000
  S   S50       1.0  0.12996  0.73587  0.37076  1.0000
  C   C117      1.0  0.17559  0.50849  0.42020  1.0000
  Fe  Fe27      1.0  0.11401  0.70228  0.36248  1.0000
  S   S51       1.0  0.08180  0.69627  0.32332  1.0000
  Fe  Fe28      1.0  0.16230  0.71753  0.35728  1.0000
  H   H117      1.0  0.05207  0.70475  0.10467  1.0000
  S   S52       1.0  0.11719  0.69280  0.43641  1.0000
  S   S53       1.0  0.16907  0.71030  0.43015  1.0000
  C   C118      1.0  0.05760  0.74805  0.10717  1.0000
  S   S54       1.0  0.31082  0.70945  0.26168  1.0000
  C   C119      1.0  0.06823  0.71556  0.28610  1.0000
  C   C120      1.0  0.04973  0.70833  0.26098  1.0000
  C   C121      1.0  0.03705  0.72357  0.23453  1.0000
  S   S55       1.0  0.32191  0.64604  0.24675  1.0000
  C   C122      1.0  0.31060  0.62455  0.28101  1.0000
  H   H118      1.0  0.24667  0.73975  0.42384  1.0000
  H   H119      1.0  0.04489  0.69088  0.26276  1.0000
  H   H120      1.0  0.02255  0.71783  0.21632  1.0000
  C   C123      1.0  0.20170  0.54569  0.50673  1.0000
  C   C124      1.0  0.31355  0.62435  0.32786  1.0000
  C   C125      1.0  0.30013  0.60628  0.26037  1.0000
  C   C126      1.0  0.30707  0.60553  0.35346  1.0000
  C   C127      1.0  0.13498  0.73381  0.62583  1.0000
  C   C128      1.0  0.26063  0.72576  0.36274  1.0000
  C   C129      1.0  0.25583  0.71717  0.32001  1.0000
  C   C130      1.0  0.23373  0.71701  0.30435  1.0000
  C   C131      1.0  0.21630  0.72519  0.33158  1.0000
  H   H121      1.0  0.28609  0.57322  0.26952  1.0000
  N   N11       1.0  0.18031  0.52801  0.44849  1.0000
  H   H122      1.0  0.26905  0.71096  0.29861  1.0000
  C   C132      1.0  0.17113  0.56576  0.47122  1.0000
  H   H123      1.0  0.02639  0.70628  0.36359  1.0000
  H   H124      1.0  0.16113  0.58099  0.46679  1.0000
  C   C133      1.0  0.29738  0.58687  0.33257  1.0000
  C   C134      1.0  0.27573  0.74768  0.92415  1.0000
  H   H125      1.0  0.08778  0.73506  0.43985  1.0000
  C   C135      1.0  0.07426  0.73818  0.28360  1.0000
  S   S56       1.0  0.18937  0.72790  0.30892  1.0000
  C   C136      1.0  0.18206  0.58288  0.36094  1.0000
  C   C137      1.0  0.19814  0.59037  0.39146  1.0000
  C   C138      1.0  0.19438  0.61033  0.41596  1.0000
  C   C139      1.0  0.17489  0.62335  0.40911  1.0000
  C   C140      1.0  0.15928  0.61636  0.37721  1.0000
  C   C141      1.0  0.16275  0.59609  0.35363  1.0000
  H   H126      1.0  0.21309  0.58040  0.39740  1.0000
  H   H127      1.0  0.20656  0.61565  0.44053  1.0000
  H   H128      1.0  0.14416  0.62619  0.37178  1.0000
  H   H129      1.0  0.15023  0.59044  0.33006  1.0000
  C   C142      1.0  0.05083  0.72654  0.39747  1.0000
  C   C143      1.0  0.13340  0.73335  0.57828  1.0000
  H   H130      1.0  0.05839  0.71213  0.41438  1.0000
  C   C144      1.0  0.24307  0.73322  0.39060  1.0000
  H   H131      1.0  0.15422  0.54788  0.41885  1.0000
  C   C145      1.0  0.18859  0.56516  0.50233  1.0000
  H   H132      1.0  0.28073  0.64941  0.38193  1.0000
  C   C146      1.0  0.07590  0.74299  0.03656  1.0000
  S   S57       1.0  0.02117  0.74410  0.98865  1.0000
  H   H133      1.0  0.06937  0.70000  0.05598  1.0000
  H   H134      1.0  0.27190  0.74236  0.89003  1.0000
  H   H135      1.0  0.19209  0.57989  0.52254  1.0000
  C   C147      1.0  0.04259  0.74633  0.23341  1.0000
  C   C148      1.0  0.31399  0.73328  0.91396  1.0000
  H   H136      1.0  0.19081  0.63586  0.31429  1.0000
  C   C149      1.0  0.05618  0.71120  0.07034  1.0000
  Fe  Fe29      1.0  0.31617  0.71735  0.33449  1.0000
  H   H137      1.0  0.22429  0.61301  0.29289  1.0000
  H   H138      1.0  0.07997  0.73254  0.00764  1.0000
  H   H139      1.0  0.23019  0.71094  0.27072  1.0000
  C   C150      1.0  0.22091  0.73285  0.37513  1.0000
  H   H140      1.0  0.27210  0.67841  0.38005  1.0000
  H   H141      1.0  0.19070  0.72525  0.59076  1.0000
  H   H142      1.0  0.31235  0.71476  0.91639  1.0000
  C   C151      1.0  0.16728  0.54697  0.44423  1.0000
  H   H143      1.0  0.13520  0.71760  0.56039  1.0000
  H   H144      1.0  0.32179  0.63818  0.34413  1.0000
  H   H145      1.0  0.04765  0.74147  0.13478  1.0000
  H   H146      1.0  0.17387  0.51379  0.38424  1.0000
  H   H147      1.0  0.28247  0.66523  0.32959  1.0000
  H   H148      1.0  0.13802  0.71832  0.64422  1.0000
  C   C152      1.0  0.03259  0.72312  0.36893  1.0000
  C   C153      1.0  0.29336  0.58757  0.28607  1.0000
  H   H149      1.0  0.08842  0.74401  0.30271  1.0000
  N   N12       1.0  0.29669  0.74434  0.94150  1.0000
  H   H150      1.0  0.17659  0.74265  0.52185  1.0000
  H   H151      1.0  0.31252  0.73856  0.87794  1.0000
  C   C154      1.0  0.19718  0.52707  0.47963  1.0000
  H   H152      1.0  0.29784  0.60626  0.22410  1.0000
  H   H153      1.0  0.20752  0.73939  0.39614  1.0000
  N   N13       1.0  0.24984  0.65514  0.34855  1.0000
  C   C155      1.0  0.23143  0.66746  0.36150  1.0000
  C   C156      1.0  0.24744  0.63580  0.32424  1.0000
  C   C157      1.0  0.20998  0.66080  0.34910  1.0000
  C   C158      1.0  0.22620  0.62852  0.31165  1.0000
  C   C159      1.0  0.20740  0.64129  0.32378  1.0000
  C   C160      1.0  0.27236  0.66242  0.36069  1.0000
  H   H154      1.0  0.23319  0.68260  0.38139  1.0000
  H   H155      1.0  0.26201  0.62585  0.31452  1.0000
  H   H156      1.0  0.19542  0.67060  0.35950  1.0000
  C   C161      1.0  0.18937  0.74157  0.60682  1.0000
  H   H157      1.0  0.05356  0.73813  0.91787  1.0000
  H   H158      1.0  0.04096  0.71018  0.04897  1.0000
  S   S58       1.0  0.99870  0.72876  0.10841  1.0000
  N   N14       1.0  0.06374  0.73453  0.07184  1.0000
  H   H159      1.0  0.00976  0.73873  0.32166  1.0000
  C   C162      1.0  0.02332  0.74130  0.34534  1.0000
  H   H160      1.0  0.20753  0.51202  0.48312  1.0000
  H   H161      1.0  0.19310  0.72776  0.67413  1.0000
  H   H162      1.0  0.31033  0.60505  0.38940  1.0000
  H   H163      1.0  0.21542  0.54504  0.53063  1.0000
  N   N15       1.0  0.05963  0.74751  0.40225  1.0000
  C   C163      1.0  0.19092  0.74286  0.65390  1.0000
  H   H164      1.0  0.15982  0.50055  0.43144  1.0000
  H   H165      1.0  0.31773  0.74731  0.99909  1.0000
  H   H166      1.0  0.33104  0.73802  0.92520  1.0000
  Fe  Fe30      1.0  0.21128  0.97363  0.85581  1.0000
  S   S59       1.0  0.23276  0.98474  0.91386  1.0000
  S   S60       1.0  0.18518  0.94767  0.87372  1.0000
  Fe  Fe31      1.0  0.26072  0.98175  0.86289  1.0000
  S   S61       1.0  0.29467  0.96473  0.86857  1.0000
  S   S62       1.0  0.23947  0.96892  0.80678  1.0000
  S   S63       1.0  0.28922  0.77174  0.81813  1.0000
  Fe  Fe32      1.0  0.16343  0.79602  0.84354  1.0000
  S   S64       1.0  0.16900  0.80190  0.76989  1.0000
  S   S65       1.0  0.19225  0.79242  0.89173  1.0000
  Fe  Fe33      1.0  0.11333  0.80658  0.83844  1.0000
  S   S66       1.0  0.11520  0.81417  0.76334  1.0000
  S   S67       1.0  0.08302  0.81338  0.88415  1.0000
  Fe  Fe34      1.0  0.13709  0.78303  0.75943  1.0000
  H   H167      1.0  0.05869  0.78125  0.13608  1.0000
  Fe  Fe35      1.0  0.14713  0.83242  0.77976  1.0000
  S   S68       1.0  0.16194  0.86402  0.74943  1.0000
  S   S69       1.0  0.13331  0.77441  0.83379  1.0000
  S   S70       1.0  0.14341  0.82751  0.85415  1.0000
  H   H168      1.0  0.05745  0.78211  0.38348  1.0000
  C   C164      1.0  0.12697  0.77353  0.57813  1.0000
  S   S71       1.0  0.30145  0.86219  0.93021  1.0000
  C   C165      1.0  0.30096  0.77723  0.30130  1.0000
  C   C166      1.0  0.06824  0.79328  0.91648  1.0000
  C   C167      1.0  0.06817  0.77052  0.90494  1.0000
  C   C168      1.0  0.03222  0.76267  0.35083  1.0000
  H   H169      1.0  0.17922  0.96923  0.96095  1.0000
  C   C169      1.0  0.04061  0.78578  0.97580  1.0000
  C   C170      1.0  0.05466  0.80074  0.95249  1.0000
  H   H170      1.0  0.24629  0.75539  0.79099  1.0000
  Fe  Fe36      1.0  0.32449  0.83417  0.90482  1.0000
  H   H171      1.0  0.02999  0.79184  0.00288  1.0000
  H   H172      1.0  0.05463  0.81833  0.96163  1.0000
  H   H173      1.0  0.17323  0.77229  0.51776  1.0000
  H   H174      1.0  0.09178  0.77222  0.00789  1.0000
  C   C171      1.0  0.28838  0.98001  0.73801  1.0000
  S   S72       1.0  0.31187  0.80034  0.92746  1.0000
  C   C172      1.0  0.07638  0.77934  0.07240  1.0000
  C   C173      1.0  0.01677  0.79264  0.86470  1.0000
  C   C174      1.0  0.17588  0.98716  0.96383  1.0000
  C   C175      1.0  0.26185  0.78021  0.83290  1.0000
  C   C176      1.0  0.24356  0.76852  0.81567  1.0000
  C   C177      1.0  0.22183  0.77318  0.83159  1.0000
  C   C178      1.0  0.21845  0.78920  0.86549  1.0000
  C   C179      1.0  0.23661  0.80144  0.88152  1.0000
  C   C180      1.0  0.25820  0.79721  0.86471  1.0000
  H   H175      1.0  0.06590  0.77104  0.25682  1.0000
  C   C181      1.0  0.31707  0.90027  0.88601  1.0000
  H   H176      1.0  0.23408  0.81394  0.90756  1.0000
  H   H177      1.0  0.27207  0.80674  0.87731  1.0000
  Fe  Fe37      1.0  0.31573  0.79107  0.85471  1.0000
  C   C182      1.0  0.29577  0.93567  0.88219  1.0000
  C   C183      1.0  0.27769  0.92509  0.90306  1.0000
  C   C184      1.0  0.27959  0.90244  0.91671  1.0000
  H   H178      1.0  0.26256  0.93459  0.91024  1.0000
  H   H179      1.0  0.26587  0.89465  0.93446  1.0000
  C   C185      1.0  0.17940  0.92439  0.83875  1.0000
  C   C186      1.0  0.16485  0.90780  0.85479  1.0000
  C   C187      1.0  0.15953  0.88918  0.82788  1.0000
  C   C188      1.0  0.16860  0.88704  0.78448  1.0000
  C   C189      1.0  0.18317  0.90363  0.76841  1.0000
  C   C190      1.0  0.18869  0.92217  0.79552  1.0000
  H   H180      1.0  0.15742  0.90949  0.88800  1.0000
  H   H181      1.0  0.14796  0.87679  0.84029  1.0000
  H   H182      1.0  0.19016  0.90217  0.73477  1.0000
  H   H183      1.0  0.19981  0.93489  0.78266  1.0000
  N   N16       1.0  0.20690  0.86345  0.87447  1.0000
  C   C191      1.0  0.20649  0.85026  0.83673  1.0000
  C   C192      1.0  0.21952  0.88248  0.87525  1.0000
  C   C193      1.0  0.21940  0.85568  0.79886  1.0000
  C   C194      1.0  0.23279  0.88830  0.83812  1.0000
  C   C195      1.0  0.23271  0.87476  0.79974  1.0000
  C   C196      1.0  0.19272  0.85780  0.91326  1.0000
  H   H184      1.0  0.19598  0.83555  0.83559  1.0000
  H   H185      1.0  0.21928  0.89341  0.90450  1.0000
  H   H186      1.0  0.21873  0.84532  0.76885  1.0000
  H   H187      1.0  0.24284  0.90336  0.83898  1.0000
  H   H188      1.0  0.24272  0.87923  0.77052  1.0000
  H   H189      1.0  0.17572  0.86509  0.90833  1.0000
  H   H190      1.0  0.19129  0.83927  0.91707  1.0000
  H   H191      1.0  0.19983  0.86426  0.94523  1.0000
  H   H192      1.0  0.25142  0.77486  0.01271  1.0000
  C   C197      1.0  0.06384  0.77061  0.10806  1.0000
  S   S73       1.0  0.02571  0.76668  0.20502  1.0000
  C   C198      1.0  0.31539  0.92312  0.87343  1.0000
  H   H193      1.0  0.29919  0.96970  0.71542  1.0000
  H   H194      1.0  0.28824  0.97193  0.77196  1.0000
  S   S74       1.0  0.00124  0.78350  0.09004  1.0000
  S   S75       1.0  0.13623  0.75375  0.70947  1.0000
  N   N17       1.0  0.18541  0.76050  0.58152  1.0000
  H   H195      1.0  0.07256  0.75795  0.46553  1.0000
  H   H196      1.0  0.16590  0.99066  0.89462  1.0000
  C   C199      1.0  0.18345  0.78105  0.60189  1.0000
  H   H197      1.0  0.20785  0.76361  0.81930  1.0000
  H   H198      1.0  0.02836  0.78805  0.83785  1.0000
  C   C200      1.0  0.17945  0.99823  0.00459  1.0000
  C   C201      1.0  0.12936  0.75324  0.55417  1.0000
  C   C202      1.0  0.00177  0.82013  0.91675  1.0000
  N   N18       1.0  0.27879  0.77219  0.28328  1.0000
  C   C203      1.0  0.05397  0.75558  0.92798  1.0000
  C   C204      1.0  0.26030  0.77675  0.30915  1.0000
  C   C205      1.0  0.18870  0.76370  0.67496  1.0000
  C   C206      1.0  0.25541  0.75847  0.22380  1.0000
  H   H199      1.0  0.07846  0.76459  0.87716  1.0000
  H   H200      1.0  0.18563  0.98896  0.03373  1.0000
  H   H201      1.0  0.22421  0.77561  0.31366  1.0000
  S   S76       1.0  0.12796  0.75385  0.49416  1.0000
  C   C207      1.0  0.27660  0.76311  0.24111  1.0000
  C   C208      1.0  0.12878  0.77402  0.62565  1.0000
  H   H202      1.0  0.12702  0.78975  0.64361  1.0000
  H   H203      1.0  0.02547  0.77676  0.33158  1.0000
  H   H204      1.0  0.27091  0.97995  0.72519  1.0000
  H   H205      1.0  0.09081  0.76274  0.41773  1.0000
  H   H206      1.0  0.26212  0.78324  0.34313  1.0000
  H   H207      1.0  0.02686  0.82723  0.86587  1.0000
  H   H208      1.0  0.00485  0.75893  0.87460  1.0000
  C   C209      1.0  0.29930  0.88995  0.90850  1.0000
  S   S77       1.0  0.32647  0.82508  0.83135  1.0000
  H   H209      1.0  0.24263  0.76158  0.93530  1.0000
  H   H210      1.0  0.12380  0.78902  0.55984  1.0000
  C   C210      1.0  0.18494  0.78295  0.64890  1.0000
  H   H211      1.0  0.08104  0.79691  0.07226  1.0000
  H   H212      1.0  0.00167  0.83717  0.92965  1.0000
  H   H213      1.0  0.18256  0.79914  0.66518  1.0000
  C   C211      1.0  0.23885  0.77256  0.29268  1.0000
  H   H214      1.0  0.18909  0.76477  0.71156  1.0000
  C   C212      1.0  0.06143  0.75347  0.25755  1.0000
  C   C213      1.0  0.00357  0.77633  0.88525  1.0000
  C   C214      1.0  0.03990  0.76319  0.96305  1.0000
  C   C215      1.0  0.28524  0.76175  0.01112  1.0000
  C   C216      1.0  0.05044  0.76551  0.37976  1.0000
  C   C217      1.0  0.23643  0.76332  0.24976  1.0000
  C   C218      1.0  0.13285  0.75413  0.64980  1.0000
  C   C219      1.0  0.01590  0.81470  0.88046  1.0000
  H   H215      1.0  0.18010  0.79604  0.58196  1.0000
  C   C220      1.0  0.18419  0.75882  0.53216  1.0000
  C   C221      1.0  0.08256  0.76546  0.03645  1.0000
  C   C222      1.0  0.26402  0.76590  0.99313  1.0000
  C   C223      1.0  0.30135  0.75058  0.98487  1.0000
  C   C224      1.0  0.25910  0.75853  0.94963  1.0000
  H   H216      1.0  0.29126  0.75923  0.22074  1.0000
  H   H217      1.0  0.28937  0.76737  0.04490  1.0000
  H   H218      1.0  0.20115  0.76003  0.51714  1.0000
  H   H219      1.0  0.32948  0.93117  0.85740  1.0000
  H   H220      1.0  0.30232  0.79550  0.30799  1.0000
  Fe  Fe38      1.0  0.99968  0.76011  0.15022  1.0000
  H   H221      1.0  0.21988  0.75921  0.23746  1.0000
  H   H222      1.0  0.30382  0.76776  0.33325  1.0000
  H   H223      1.0  0.32635  0.79002  0.12961  1.0000
  H   H224      1.0  0.31457  0.77250  0.27733  1.0000
  H   H225      1.0  0.25376  0.75086  0.19075  1.0000
  C   C225      1.0  0.16836  0.99941  0.92629  1.0000
  H   H226      1.0  0.30857  0.00016  0.80750  1.0000
  Fe  Fe39      1.0  0.99860  0.75232  0.04861  1.0000
  C   C226      1.0  0.07852  0.75099  0.43280  1.0000
  Fe  Fe40      1.0  0.64562  0.18488  0.88385  1.0000
  C   C227      1.0  0.40146  0.16149  0.45848  1.0000
  H   H227      1.0  0.63599  0.22793  0.12430  1.0000
  Fe  Fe41      1.0  0.64395  0.23267  0.92137  1.0000
  H   H228      1.0  0.56498  0.22774  0.96662  1.0000
  H   H229      1.0  0.61198  0.22957  0.66551  1.0000
  Fe  Fe42      1.0  0.62157  0.22155  0.82894  1.0000
  C   C228      1.0  0.58509  0.19456  0.67685  1.0000
  H   H230      1.0  0.39814  0.18708  0.40728  1.0000
  S   S78       1.0  0.61678  0.20889  0.90052  1.0000
  H   H231      1.0  0.54933  0.20295  0.62509  1.0000
  C   C229      1.0  0.55843  0.23403  0.59361  1.0000
  H   H232      1.0  0.59529  0.19900  0.70687  1.0000
  H   H233      1.0  0.65427  0.14187  0.81133  1.0000
  C   C230      1.0  0.33489  0.14420  0.42441  1.0000
  H   H234      1.0  0.63780  0.22618  0.04042  1.0000
  N   N19       1.0  0.35773  0.15034  0.43684  1.0000
  C   C231      1.0  0.36880  0.13872  0.47012  1.0000
  S   S79       1.0  0.36029  0.15986  0.57586  1.0000
  C   C232      1.0  0.41095  0.21149  0.52618  1.0000
  C   C233      1.0  0.41643  0.19641  0.56079  1.0000
  C   C234      1.0  0.40047  0.18106  0.57641  1.0000
  C   C235      1.0  0.37877  0.18106  0.55842  1.0000
  C   C236      1.0  0.37294  0.19680  0.52515  1.0000
  C   C237      1.0  0.38911  0.21179  0.50870  1.0000
  H   H235      1.0  0.43327  0.19591  0.57415  1.0000
  H   H236      1.0  0.40509  0.16886  0.60208  1.0000
  H   H237      1.0  0.35629  0.19687  0.51097  1.0000
  H   H238      1.0  0.38483  0.22340  0.48177  1.0000
  C   C238      1.0  0.57206  0.23657  0.75427  1.0000
  C   C239      1.0  0.56982  0.23997  0.94122  1.0000
  H   H239      1.0  0.52687  0.20225  0.75200  1.0000
  N   N20       1.0  0.58114  0.21425  0.64791  1.0000
  C   C240      1.0  0.53734  0.21643  0.74391  1.0000
  C   C241      1.0  0.55826  0.21857  0.76532  1.0000
  H   H240      1.0  0.59398  0.18122  0.65746  1.0000
  C   C242      1.0  0.66311  0.12839  0.82853  1.0000
  H   H241      1.0  0.56384  0.20607  0.78958  1.0000
  C   C243      1.0  0.66392  0.12808  0.87576  1.0000
  C   C244      1.0  0.56977  0.24250  0.34253  1.0000
  S   S80       1.0  0.64983  0.14888  0.90849  1.0000
  H   H242      1.0  0.54576  0.22904  0.89200  1.0000
  H   H243      1.0  0.56906  0.18782  0.68996  1.0000
  C   C245      1.0  0.39081  0.14409  0.48137  1.0000
  C   C246      1.0  0.63888  0.24312  0.10504  1.0000
  H   H244      1.0  0.39911  0.13554  0.50923  1.0000
  S   S81       1.0  0.50438  0.22795  0.68306  1.0000
  C   C247      1.0  0.39011  0.17316  0.42441  1.0000
  S   S82       1.0  0.49546  0.23041  0.55370  1.0000
  C   C248      1.0  0.36815  0.16726  0.41381  1.0000
  S   S83       1.0  0.59915  0.23963  0.77736  1.0000
  H   H245      1.0  0.41817  0.16649  0.46826  1.0000
  C   C249      1.0  0.53008  0.23219  0.71134  1.0000
  H   H246      1.0  0.35937  0.17649  0.38748  1.0000
  H   H247      1.0  0.36045  0.12566  0.48925  1.0000
  C   C250      1.0  0.55908  0.24067  0.89944  1.0000
  C   C251      1.0  0.63990  0.24207  0.05744  1.0000
  C   C252      1.0  0.56210  0.21570  0.62245  1.0000
  S   S84       1.0  0.64814  0.19578  0.81116  1.0000
  H   H248      1.0  0.56698  0.23122  0.37086  1.0000
  H   H249      1.0  0.34131  0.22035  0.61234  1.0000
  Fe  Fe43      1.0  0.46054  0.24304  0.53957  1.0000
  C   C253      1.0  0.35180  0.23492  0.60719  1.0000
  C   C254      1.0  0.58801  0.23917  0.31365  1.0000
  H   H250      1.0  0.54321  0.23530  0.57393  1.0000
  Fe  Fe44      1.0  0.49218  0.24757  0.62109  1.0000
  C   C255      1.0  0.59698  0.23060  0.64497  1.0000
  H   H251      1.0  0.59946  0.22513  0.31895  1.0000
  S   S85       1.0  0.64687  0.24670  0.85121  1.0000
  S   S86       1.0  0.43154  0.22821  0.50044  1.0000
  H   H252      1.0  0.38223  0.21750  0.62587  1.0000
  H   H253      1.0  0.33505  0.13408  0.39294  1.0000
  C   C256      1.0  0.37479  0.23327  0.61464  1.0000
  C   C257      1.0  0.59380  0.24919  0.61644  1.0000
  Fe  Fe45      1.0  0.64649  0.29280  0.23669  1.0000
  S   S87       1.0  0.63869  0.28389  0.30929  1.0000
  N   N21       1.0  0.37628  0.39251  0.65297  1.0000
  Fe  Fe46      1.0  0.50780  0.26394  0.52864  1.0000
  S   S88       1.0  0.65315  0.33530  0.33636  1.0000
  C   C258      1.0  0.58167  0.28854  0.23543  1.0000
  C   C259      1.0  0.64159  0.26361  0.12793  1.0000
  Fe  Fe47      1.0  0.62212  0.31780  0.31287  1.0000
  S   S89       1.0  0.58692  0.32315  0.34118  1.0000
  C   C260      1.0  0.38616  0.39598  0.56135  1.0000
  S   S90       1.0  0.62838  0.32617  0.23930  1.0000
  H   H254      1.0  0.38988  0.39696  0.52549  1.0000
  Fe  Fe48      1.0  0.46945  0.28876  0.57851  1.0000
  S   S91       1.0  0.47318  0.27495  0.50828  1.0000
  S   S92       1.0  0.44960  0.32157  0.58147  1.0000
  H   H255      1.0  0.58110  0.30605  0.24850  1.0000
  H   H256      1.0  0.60748  0.28119  0.92298  1.0000
  S   S93       1.0  0.50548  0.28068  0.59679  1.0000
  N   N22       1.0  0.35578  0.27369  0.58576  1.0000
  S   S94       1.0  0.35814  0.33618  0.68609  1.0000
  C   C261      1.0  0.42296  0.32188  0.60744  1.0000
  C   C262      1.0  0.40495  0.33293  0.58604  1.0000
  C   C263      1.0  0.38445  0.33626  0.60880  1.0000
  C   C264      1.0  0.38209  0.32916  0.65366  1.0000
  C   C265      1.0  0.39979  0.31741  0.67443  1.0000
  C   C266      1.0  0.42005  0.31355  0.65127  1.0000
  H   H257      1.0  0.40710  0.33938  0.55209  1.0000
  H   H258      1.0  0.37093  0.34531  0.59240  1.0000
  H   H259      1.0  0.39808  0.31180  0.70908  1.0000
  H   H260      1.0  0.43387  0.30517  0.66822  1.0000
  C   C267      1.0  0.57523  0.30714  0.38601  1.0000
  C   C268      1.0  0.58688  0.28914  0.40589  1.0000
  C   C269      1.0  0.57635  0.27562  0.43868  1.0000
  C   C270      1.0  0.55413  0.28000  0.45224  1.0000
  C   C271      1.0  0.54263  0.29827  0.43307  1.0000
  C   C272      1.0  0.55313  0.31172  0.40003  1.0000
  H   H261      1.0  0.60387  0.28539  0.39543  1.0000
  N   N23       1.0  0.58305  0.27061  0.87547  1.0000
  H   H262      1.0  0.52554  0.30184  0.44313  1.0000
  H   H263      1.0  0.54397  0.32562  0.38493  1.0000
  H   H264      1.0  0.58992  0.30394  0.85387  1.0000
  H   H265      1.0  0.35347  0.38677  0.70719  1.0000
  C   C273      1.0  0.64340  0.26162  0.03218  1.0000
  H   H266      1.0  0.59838  0.28591  0.21957  1.0000
  C   C274      1.0  0.64535  0.28310  0.10262  1.0000
  H   H267      1.0  0.35702  0.30513  0.55093  1.0000
  S   S95       1.0  0.64430  0.26157  0.97213  1.0000
  H   H268      1.0  0.34197  0.30533  0.60402  1.0000
  C   C275      1.0  0.59164  0.25435  0.27820  1.0000
  H   H269      1.0  0.60591  0.25168  0.25596  1.0000
  H   H270      1.0  0.37474  0.40749  0.71786  1.0000
  H   H271      1.0  0.53817  0.26289  0.67676  1.0000
  C   C276      1.0  0.55973  0.27585  0.30028  1.0000
  H   H272      1.0  0.35221  0.40832  0.55431  1.0000
  H   H273      1.0  0.64742  0.29899  0.11970  1.0000
  H   H274      1.0  0.40971  0.38003  0.66067  1.0000
  C   C277      1.0  0.59367  0.27002  0.91632  1.0000
  H   H275      1.0  0.38895  0.28658  0.58740  1.0000
  S   S96       1.0  0.63947  0.26400  0.18789  1.0000
  Fe  Fe49      1.0  0.66111  0.34051  0.26319  1.0000
  S   S97       1.0  0.45591  0.25722  0.60908  1.0000
  H   H276      1.0  0.60807  0.28218  0.83060  1.0000
  H   H277      1.0  0.64329  0.43358  0.24544  1.0000
  C   C278      1.0  0.37837  0.27215  0.59279  1.0000
  H   H278      1.0  0.57491  0.26685  0.71445  1.0000
  C   C279      1.0  0.34564  0.29537  0.57309  1.0000
  H   H279      1.0  0.65483  0.38923  0.31486  1.0000
  C   C280      1.0  0.38821  0.25190  0.60701  1.0000
  H   H280      1.0  0.56876  0.28665  0.20895  1.0000
  C   C281      1.0  0.39716  0.38665  0.63759  1.0000
  C   C282      1.0  0.40242  0.38828  0.59160  1.0000
  H   H281      1.0  0.54148  0.26385  0.35854  1.0000
  H   H282      1.0  0.58023  0.28572  0.80972  1.0000
  H   H283      1.0  0.41882  0.38296  0.57946  1.0000
  H   H284      1.0  0.57154  0.26518  0.56834  1.0000
  C   C283      1.0  0.37126  0.39118  0.70142  1.0000
  C   C284      1.0  0.55537  0.26079  0.33554  1.0000
  C   C285      1.0  0.36041  0.40060  0.62367  1.0000
  C   C286      1.0  0.65678  0.44376  0.23231  1.0000
  H   H285      1.0  0.54909  0.29065  0.29642  1.0000
  N   N24       1.0  0.57774  0.27258  0.27235  1.0000
  C   C287      1.0  0.36504  0.40227  0.57743  1.0000
  H   H286      1.0  0.64888  0.29734  0.03584  1.0000
  C   C288      1.0  0.59061  0.28648  0.84079  1.0000
  C   C289      1.0  0.57436  0.25086  0.59061  1.0000
  H   H287      1.0  0.38130  0.37761  0.71798  1.0000
  H   H288      1.0  0.59591  0.25419  0.98199  1.0000
  H   H289      1.0  0.65882  0.42474  0.35778  1.0000
  C   C290      1.0  0.58716  0.25479  0.94988  1.0000
  S   S98       1.0  0.54128  0.26122  0.49093  1.0000
  H   H290      1.0  0.34395  0.40568  0.63577  1.0000
  C   C291      1.0  0.64615  0.28210  0.05502  1.0000
  H   H291      1.0  0.58541  0.26153  0.45327  1.0000
  C   C292      1.0  0.56586  0.25628  0.86685  1.0000
  C   C293      1.0  0.34250  0.25543  0.59285  1.0000
  H   H292      1.0  0.60622  0.26229  0.61458  1.0000
  C   C294      1.0  0.56445  0.25274  0.72294  1.0000
  C   C295      1.0  0.66074  0.46508  0.25020  1.0000
  H   H293      1.0  0.65007  0.47129  0.27725  1.0000
  H   H294      1.0  0.55752  0.25659  0.83438  1.0000
  H   H295      1.0  0.40617  0.25063  0.61184  1.0000
  C   C296      1.0  0.54363  0.25053  0.70142  1.0000
  C   C297      1.0  0.36193  0.60565  0.27431  1.0000
  N   N25       1.0  0.63877  0.74919  0.58754  1.0000
  S   S99       1.0  0.34633  0.73859  0.32184  1.0000
  C   C298      1.0  0.48436  0.70253  0.42376  1.0000
  H   H296      1.0  0.35636  0.57651  0.39037  1.0000
  H   H297      1.0  0.44805  0.72216  0.49607  1.0000
  Fe  Fe50      1.0  0.36631  0.70659  0.33016  1.0000
  S   S100      1.0  0.39651  0.69936  0.37563  1.0000
  C   C299      1.0  0.43794  0.72791  0.46798  1.0000
  S   S101      1.0  0.36451  0.69775  0.25574  1.0000
  H   H298      1.0  0.50172  0.66930  0.47023  1.0000
  C   C300      1.0  0.50840  0.68554  0.48222  1.0000
  H   H299      1.0  0.46321  0.71951  0.37487  1.0000
  S   S102      1.0  0.54211  0.70838  0.56512  1.0000
  H   H300      1.0  0.39851  0.73033  0.60758  1.0000
  Fe  Fe51      1.0  0.51790  0.73657  0.58438  1.0000
  H   H301      1.0  0.42432  0.69513  0.45446  1.0000
  S   S103      1.0  0.63009  0.68607  0.67919  1.0000
  C   C301      1.0  0.56672  0.70275  0.59681  1.0000
  C   C302      1.0  0.56926  0.71075  0.64086  1.0000
  C   C303      1.0  0.58864  0.70525  0.66572  1.0000
  C   C304      1.0  0.60589  0.69207  0.64661  1.0000
  C   C305      1.0  0.60354  0.68437  0.60229  1.0000
  C   C306      1.0  0.58396  0.68954  0.57768  1.0000
  H   H302      1.0  0.55608  0.72077  0.65619  1.0000
  H   H303      1.0  0.59028  0.71123  0.70002  1.0000
  H   H304      1.0  0.61660  0.67406  0.58731  1.0000
  H   H305      1.0  0.58212  0.68314  0.54376  1.0000
  C   C307      1.0  0.41148  0.71967  0.40709  1.0000
  C   C308      1.0  0.41191  0.74231  0.39424  1.0000
  H   H306      1.0  0.34322  0.55716  0.32149  1.0000
  Fe  Fe52      1.0  0.34225  0.72860  0.24855  1.0000
  S   S104      1.0  0.48032  0.73338  0.58310  1.0000
  C   C309      1.0  0.50755  0.74248  0.42829  1.0000
  Fe  Fe53      1.0  0.33293  0.67951  0.27495  1.0000
  C   C310      1.0  0.35666  0.74181  0.11654  1.0000
  C   C311      1.0  0.47781  0.72069  0.39643  1.0000
  H   H307      1.0  0.65086  0.71819  0.61370  1.0000
  H   H308      1.0  0.50193  0.68891  0.51686  1.0000
  H   H309      1.0  0.60695  0.73736  0.60900  1.0000
  C   C312      1.0  0.51385  0.72389  0.45464  1.0000
  H   H310      1.0  0.52691  0.68364  0.48445  1.0000
  H   H311      1.0  0.47467  0.68726  0.42273  1.0000
  N   N26       1.0  0.50228  0.70426  0.45215  1.0000
  C   C313      1.0  0.35106  0.57348  0.31879  1.0000
  S   S105      1.0  0.33615  0.68611  0.34886  1.0000
  C   C314      1.0  0.42451  0.71260  0.44423  1.0000
  H   H312      1.0  0.36278  0.72743  0.13549  1.0000
  H   H313      1.0  0.36902  0.64894  0.28180  1.0000
  H   H314      1.0  0.37215  0.73131  0.05391  1.0000
  H   H315      1.0  0.39567  0.63854  0.30224  1.0000
  N   N27       1.0  0.36843  0.61654  0.31265  1.0000
  C   C315      1.0  0.35300  0.58405  0.27683  1.0000
  C   C316      1.0  0.64779  0.72644  0.58045  1.0000
  H   H316      1.0  0.40211  0.74800  0.36562  1.0000
  H   H317      1.0  0.63574  0.71611  0.56129  1.0000
  C   C317      1.0  0.48936  0.74085  0.39917  1.0000
  C   C318      1.0  0.35831  0.58445  0.35755  1.0000
  C   C319      1.0  0.36712  0.60608  0.35384  1.0000
  H   H318      1.0  0.37235  0.61467  0.38421  1.0000
  C   C320      1.0  0.41135  0.73913  0.62763  1.0000
  H   H319      1.0  0.37458  0.64900  0.34096  1.0000
  H   H320      1.0  0.36264  0.61406  0.24172  1.0000
  C   C321      1.0  0.36199  0.74410  0.07025  1.0000
  C   C322      1.0  0.37743  0.63931  0.30931  1.0000
  H   H321      1.0  0.34681  0.57594  0.24666  1.0000
  H   H322      1.0  0.52782  0.72537  0.47776  1.0000
  H   H323      1.0  0.41842  0.74414  0.75966  1.0000
  H   H324      1.0  0.42814  0.73172  0.62019  1.0000
  H   H325      1.0  0.40835  0.73613  0.66426  1.0000
  Fe  Fe54      1.0  0.66234  0.66980  0.65326  1.0000
  S   S106      1.0  0.45544  0.75009  0.69931  1.0000
  C   C323      1.0  0.43895  0.75038  0.45400  1.0000
  H   H326      1.0  0.66384  0.72648  0.56136  1.0000
  C   C324      1.0  0.42128  0.79354  0.56758  1.0000
  C   C325      1.0  0.39945  0.77795  0.64405  1.0000
  Fe  Fe55      1.0  0.65843  0.85309  0.52297  1.0000
  S   S107      1.0  0.33754  0.75710  0.19712  1.0000
  H   H327      1.0  0.39061  0.81267  0.65678  1.0000
  C   C326      1.0  0.45892  0.80764  0.82648  1.0000
  C   C327      1.0  0.44133  0.76878  0.86345  1.0000
  Fe  Fe56      1.0  0.36147  0.81254  0.84638  1.0000
  S   S108      1.0  0.39088  0.82016  0.79939  1.0000
  S   S109      1.0  0.51790  0.76593  0.53637  1.0000
  S   S110      1.0  0.36061  0.82459  0.91889  1.0000
  H   H328      1.0  0.46511  0.82291  0.81098  1.0000
  S   S111      1.0  0.47835  0.78843  0.59875  1.0000
  H   H329      1.0  0.33532  0.79368  0.04785  1.0000
  H   H330      1.0  0.59182  0.77537  0.62601  1.0000
  Fe  Fe57      1.0  0.51615  0.78679  0.59906  1.0000
  S   S112      1.0  0.53865  0.81643  0.61340  1.0000
  C   C328      1.0  0.60882  0.77327  0.61347  1.0000
  H   H331      1.0  0.39254  0.77089  0.79840  1.0000
  C   C329      1.0  0.46821  0.78682  0.81479  1.0000
  S   S113      1.0  0.62567  0.83889  0.49752  1.0000
  C   C330      1.0  0.56328  0.82187  0.58182  1.0000
  C   C331      1.0  0.57777  0.83883  0.59619  1.0000
  C   C332      1.0  0.59724  0.84394  0.57135  1.0000
  C   C333      1.0  0.60224  0.83224  0.53160  1.0000
  C   C334      1.0  0.58778  0.81526  0.51730  1.0000
  C   C335      1.0  0.56853  0.80993  0.54249  1.0000
  H   H332      1.0  0.57380  0.84822  0.62649  1.0000
  H   H333      1.0  0.60810  0.85722  0.58249  1.0000
  H   H334      1.0  0.59143  0.80621  0.48646  1.0000
  H   H335      1.0  0.55752  0.79691  0.53095  1.0000
  C   C336      1.0  0.40741  0.80030  0.76910  1.0000
  C   C337      1.0  0.40524  0.77714  0.77566  1.0000
  C   C338      1.0  0.65190  0.76753  0.58018  1.0000
  C   C339      1.0  0.43682  0.76983  0.72456  1.0000
  C   C340      1.0  0.43863  0.79295  0.71706  1.0000
  C   C341      1.0  0.42403  0.80809  0.73935  1.0000
  C   C342      1.0  0.34122  0.77915  0.06666  1.0000
  C   C343      1.0  0.64397  0.78916  0.59033  1.0000
  H   H336      1.0  0.45152  0.79922  0.69476  1.0000
  H   H337      1.0  0.42587  0.82598  0.73413  1.0000
  H   H338      1.0  0.41144  0.77584  0.92724  1.0000
  Fe  Fe58      1.0  0.48006  0.75745  0.64203  1.0000
  S   S114      1.0  0.35066  0.77765  0.86360  1.0000
  H   H339      1.0  0.42630  0.77483  0.40625  1.0000
  H   H340      1.0  0.65458  0.80365  0.58529  1.0000
  H   H341      1.0  0.63506  0.86103  0.41819  1.0000
  S   S115      1.0  0.45742  0.76986  0.47924  1.0000
  H   H342      1.0  0.61612  0.80857  0.61602  1.0000
  H   H343      1.0  0.42998  0.79936  0.53753  1.0000
  C   C344      1.0  0.33613  0.77700  0.11306  1.0000
  C   C345      1.0  0.35444  0.76282  0.04512  1.0000
  H   H344      1.0  0.39096  0.77207  0.67423  1.0000
  C   C346      1.0  0.62237  0.79195  0.60744  1.0000
  Fe  Fe59      1.0  0.48031  0.76436  0.54007  1.0000
  C   C347      1.0  0.42141  0.77065  0.57862  1.0000
  N   N28       1.0  0.43241  0.78928  0.87493  1.0000
  H   H345      1.0  0.41036  0.82662  0.58808  1.0000
  S   S116      1.0  0.51774  0.75747  0.64733  1.0000
  H   H346      1.0  0.65246  0.82528  0.42395  1.0000
  H   H347      1.0  0.43288  0.82470  0.86354  1.0000
  C   C348      1.0  0.44078  0.80856  0.85648  1.0000
  N   N29       1.0  0.41093  0.76320  0.61689  1.0000
  H   H348      1.0  0.48374  0.75543  0.37994  1.0000
  H   H349      1.0  0.63689  0.90102  0.39667  1.0000
  C   C349      1.0  0.41023  0.80879  0.59585  1.0000
  S   S117      1.0  0.36161  0.76482  0.98682  1.0000
  C   C350      1.0  0.64910  0.88914  0.38322  1.0000
  H   H350      1.0  0.43016  0.75892  0.55665  1.0000
  C   C351      1.0  0.64824  0.86644  0.39558  1.0000
  Fe  Fe60      1.0  0.34774  0.79002  0.93536  1.0000
  C   C352      1.0  0.39911  0.80097  0.63424  1.0000
  C   C353      1.0  0.41995  0.76201  0.75367  1.0000
  C   C354      1.0  0.41257  0.79057  0.90410  1.0000
  H   H351      1.0  0.41277  0.80588  0.92548  1.0000
  H   H352      1.0  0.39735  0.79124  0.88280  1.0000
  H   H353      1.0  0.48169  0.78577  0.79016  1.0000
  C   C355      1.0  0.61741  0.75185  0.60358  1.0000
  C   C356      1.0  0.45939  0.76724  0.83333  1.0000
  H   H354      1.0  0.51630  0.75827  0.43142  1.0000
  C   C357      1.0  0.34389  0.75840  0.13836  1.0000
  C   C358      1.0  0.42569  0.75750  0.41735  1.0000
  H   H355      1.0  0.33238  0.89088  0.87984  1.0000
  H   H356      1.0  0.65762  0.81725  0.36615  1.0000
  H   H357      1.0  0.46601  0.75096  0.82305  1.0000
  H   H358      1.0  0.43413  0.75345  0.87665  1.0000
  C   C359      1.0  0.66359  0.82784  0.39429  1.0000
  N   N30       1.0  0.66406  0.85148  0.38022  1.0000
  Fe  Fe61      1.0  0.72053  0.04364  0.81363  1.0000
  S   S118      1.0  0.75055  0.04146  0.76736  1.0000
  S   S119      1.0  0.69553  0.07072  0.79185  1.0000
  Fe  Fe62      1.0  0.76987  0.03967  0.83191  1.0000
  S   S120      1.0  0.80119  0.05957  0.84602  1.0000
  S   S121      1.0  0.74018  0.04313  0.87822  1.0000
  Fe  Fe63      1.0  0.83997  0.18013  0.76820  1.0000
  S   S122      1.0  0.84713  0.18521  0.84168  1.0000
  S   S123      1.0  0.82553  0.14831  0.73808  1.0000
  Fe  Fe64      1.0  0.84643  0.23016  0.74486  1.0000
  S   S124      1.0  0.85356  0.23908  0.81759  1.0000
  H   H359      1.0  0.67566  0.10967  0.93408  1.0000
  Fe  Fe65      1.0  0.87499  0.20784  0.81887  1.0000
  S   S125      1.0  0.90973  0.20504  0.85083  1.0000
  Fe  Fe66      1.0  0.82535  0.21598  0.83471  1.0000
  H   H360      1.0  0.89647  0.24907  0.88779  1.0000
  S   S126      1.0  0.86978  0.20016  0.74461  1.0000
  S   S127      1.0  0.81640  0.20965  0.76267  1.0000
  H   H361      1.0  0.92250  0.23956  0.14603  1.0000
  C   C360      1.0  0.79401  0.02397  0.69288  1.0000
  C   C361      1.0  0.81796  0.02635  0.75801  1.0000
  C   C362      1.0  0.92183  0.22314  0.89165  1.0000
  C   C363      1.0  0.94224  0.21682  0.91190  1.0000
  C   C364      1.0  0.95300  0.23112  0.94277  1.0000
  H   H362      1.0  0.83304  0.08801  0.71561  1.0000
  H   H363      1.0  0.68774  0.23710  0.98849  1.0000
  S   S128      1.0  0.76973  0.00182  0.83340  1.0000
  H   H364      1.0  0.94987  0.20078  0.90350  1.0000
  H   H365      1.0  0.96876  0.22605  0.95772  1.0000
  S   S129      1.0  0.71554  0.00599  0.81351  1.0000
  C   C365      1.0  0.77190  0.22310  0.86186  1.0000
  C   C366      1.0  0.85707  0.24186  0.61307  1.0000
  C   C367      1.0  0.76929  0.23320  0.81949  1.0000
  C   C368      1.0  0.91968  0.22733  0.69767  1.0000
  C   C369      1.0  0.73195  0.21606  0.86464  1.0000
  C   C370      1.0  0.75322  0.21451  0.88447  1.0000
  C   C371      1.0  0.73523  0.12981  0.82491  1.0000
  C   C372      1.0  0.72277  0.14634  0.80232  1.0000
  H   H366      1.0  0.71767  0.20930  0.88205  1.0000
  C   C373      1.0  0.72935  0.22636  0.82236  1.0000
  C   C374      1.0  0.81701  0.23920  0.40411  1.0000
  C   C375      1.0  0.90796  0.24424  0.67463  1.0000
  C   C376      1.0  0.67282  0.11065  0.80352  1.0000
  S   S130      1.0  0.79834  0.22130  0.88695  1.0000
  N   N31       1.0  0.79771  0.24749  0.43009  1.0000
  C   C377      1.0  0.68400  0.09274  0.82526  1.0000
  C   C378      1.0  0.68540  0.09272  0.87245  1.0000
  H   H367      1.0  0.79795  0.14502  0.85765  1.0000
  H   H368      1.0  0.78169  0.01491  0.67336  1.0000
  H   H369      1.0  0.69382  0.07898  0.88965  1.0000
  H   H370      1.0  0.79413  0.05272  0.64882  1.0000
  C   C379      1.0  0.80599  0.08577  0.81946  1.0000
  C   C380      1.0  0.82489  0.09811  0.83164  1.0000
  C   C381      1.0  0.83039  0.11801  0.80849  1.0000
  C   C382      1.0  0.81716  0.12558  0.77253  1.0000
  C   C383      1.0  0.79789  0.11360  0.76118  1.0000
  C   C384      1.0  0.79224  0.09383  0.78467  1.0000
  H   H371      1.0  0.83562  0.09200  0.85851  1.0000
  H   H372      1.0  0.84536  0.12702  0.81737  1.0000
  H   H373      1.0  0.78753  0.11941  0.73347  1.0000
  H   H374      1.0  0.77760  0.08454  0.77504  1.0000
  H   H375      1.0  0.71185  0.23968  0.02355  1.0000
  C   C385      1.0  0.67512  0.11016  0.89756  1.0000
  H   H376      1.0  0.78803  0.17288  0.87164  1.0000
  N   N32       1.0  0.76642  0.15482  0.82864  1.0000
  S   S131      1.0  0.67213  0.20806  0.90976  1.0000
  Fe  Fe67      1.0  0.73837  0.00523  0.87417  1.0000
  H   H377      1.0  0.76666  0.12154  0.85606  1.0000
  H   H378      1.0  0.86092  0.22647  0.63120  1.0000
  H   H379      1.0  0.72787  0.11359  0.83229  1.0000
  H   H380      1.0  0.83518  0.07679  0.65930  1.0000
  H   H381      1.0  0.77489  0.24209  0.37604  1.0000
  C   C386      1.0  0.82472  0.04760  0.74342  1.0000
  C   C387      1.0  0.73240  0.16703  0.79259  1.0000
  H   H382      1.0  0.92668  0.21311  0.67942  1.0000
  H   H383      1.0  0.76193  0.18697  0.79779  1.0000
  H   H384      1.0  0.75521  0.20660  0.91721  1.0000
  H   H385      1.0  0.74613  0.24277  0.76704  1.0000
  C   C388      1.0  0.91221  0.24399  0.90279  1.0000
  S   S132      1.0  0.98655  0.23384  0.08280  1.0000
  H   H386      1.0  0.72279  0.18010  0.77540  1.0000
  H   H387      1.0  0.80938  0.08973  0.67909  1.0000
  H   H388      1.0  0.67152  0.11073  0.76707  1.0000
  H   H389      1.0  0.99503  0.22029  0.26101  1.0000
  H   H390      1.0  0.99162  0.21077  0.17714  1.0000
  S   S133      1.0  0.96763  0.25042  0.20289  1.0000
  C   C389      1.0  0.74807  0.23475  0.79971  1.0000
  C   C390      1.0  0.80102  0.04534  0.67941  1.0000
  H   H391      1.0  0.79910  0.16694  0.81610  1.0000
  H   H392      1.0  0.86892  0.22928  0.54882  1.0000
  H   H393      1.0  0.83305  0.24476  0.41903  1.0000
  C   C391      1.0  0.75446  0.17091  0.80569  1.0000
  N   N33       1.0  0.81620  0.05686  0.70462  1.0000
  Fe  Fe68      1.0  0.67277  0.22027  0.83828  1.0000
  C   C392      1.0  0.78896  0.16010  0.84439  1.0000
  H   H394      1.0  0.70567  0.14313  0.79241  1.0000
  C   C393      1.0  0.82386  0.07886  0.68882  1.0000
  S   S134      1.0  0.70297  0.22969  0.79738  1.0000
  H   H395      1.0  0.81644  0.24581  0.36892  1.0000
  C   C394      1.0  0.75715  0.13442  0.83819  1.0000
  C   C395      1.0  0.91242  0.24681  0.76766  1.0000
  H   H396      1.0  0.82414  0.01948  0.78969  1.0000
  H   H397      1.0  0.75882  0.01318  0.00794  1.0000
  C   C396      1.0  0.80263  0.01444  0.73237  1.0000
  H   H398      1.0  0.83637  0.05685  0.76411  1.0000
  H   H399      1.0  0.90574  0.24334  0.63829  1.0000
  Fe  Fe69      1.0  0.74712  0.00385  0.77271  1.0000
  H   H400      1.0  0.93097  0.21555  0.76299  1.0000
  C   C397      1.0  0.70109  0.24883  0.99889  1.0000
  C   C398      1.0  0.92210  0.22869  0.74445  1.0000
  C   C399      1.0  0.86159  0.24351  0.56636  1.0000
  H   H401      1.0  0.81707  0.22056  0.40333  1.0000
  H   H402      1.0  0.93434  0.24543  0.27249  1.0000
  H   H403      1.0  0.78356  0.24028  0.80228  1.0000
  H   H404      1.0  0.91425  0.24757  0.80406  1.0000
  C   C400      1.0  0.77695  0.24740  0.41084  1.0000
  Fe  Fe70      1.0  0.76973  0.48328  0.33224  1.0000
  H   H405      1.0  0.87861  0.29601  0.21162  1.0000
  S   S135      1.0  0.79975  0.46032  0.31993  1.0000
  Fe  Fe71      1.0  0.71995  0.48343  0.34410  1.0000
  S   S136      1.0  0.68974  0.46106  0.35057  1.0000
  S   S137      1.0  0.74810  0.48055  0.39391  1.0000
  Fe  Fe72      1.0  0.85407  0.29181  0.43165  1.0000
  S   S138      1.0  0.85656  0.27986  0.35935  1.0000
  H   H406      1.0  0.88921  0.27510  0.68089  1.0000
  Fe  Fe73      1.0  0.83524  0.33799  0.40188  1.0000
  S   S139      1.0  0.83679  0.32928  0.32840  1.0000
  S   S140      1.0  0.81652  0.36909  0.42742  1.0000
  Fe  Fe74      1.0  0.82289  0.29628  0.35039  1.0000
  S   S141      1.0  0.79564  0.28016  0.30987  1.0000
  Fe  Fe75      1.0  0.87062  0.31369  0.34347  1.0000
  S   S142      1.0  0.89852  0.32024  0.29208  1.0000
  S   S143      1.0  0.81925  0.30550  0.42318  1.0000
  S   S144      1.0  0.87033  0.32513  0.41645  1.0000
  S   S145      1.0  0.69621  0.29284  0.37852  1.0000
  C   C401      1.0  0.90827  0.30104  0.11466  1.0000
  H   H407      1.0  0.85765  0.45635  0.43108  1.0000
  H   H408      1.0  0.74175  0.25506  0.41946  1.0000
  H   H409      1.0  0.89067  0.32093  0.18937  1.0000
  C   C402      1.0  0.76075  0.26235  0.47938  1.0000
  C   C403      1.0  0.91824  0.30063  0.26949  1.0000
  C   C404      1.0  0.91865  0.27797  0.28230  1.0000
  N   N34       1.0  0.67843  0.47750  0.23534  1.0000
  C   C405      1.0  0.94909  0.27021  0.22855  1.0000
  C   C406      1.0  0.94860  0.29284  0.21558  1.0000
  C   C407      1.0  0.93337  0.30795  0.23617  1.0000
  H   H410      1.0  0.90714  0.27208  0.30789  1.0000
  N   N35       1.0  0.90049  0.26302  0.74494  1.0000
  H   H411      1.0  0.96003  0.29875  0.18989  1.0000
  H   H412      1.0  0.93325  0.32545  0.22608  1.0000
  C   C408      1.0  0.76793  0.28564  0.32716  1.0000
  C   C409      1.0  0.76325  0.29786  0.36643  1.0000
  C   C410      1.0  0.74110  0.30058  0.38139  1.0000
  C   C411      1.0  0.72349  0.29151  0.35662  1.0000
  C   C412      1.0  0.72805  0.28011  0.31634  1.0000
  C   C413      1.0  0.75026  0.27700  0.30188  1.0000
  H   H413      1.0  0.77664  0.30490  0.38581  1.0000
  H   H414      1.0  0.73761  0.30947  0.41251  1.0000
  H   H415      1.0  0.71451  0.27292  0.29726  1.0000
  C   C414      1.0  0.67143  0.41994  0.33320  1.0000
  C   C415      1.0  0.67106  0.43516  0.19908  1.0000
  C   C416      1.0  0.69245  0.46926  0.20252  1.0000
  H   H416      1.0  0.84257  0.45488  0.37821  1.0000
  H   H417      1.0  0.81658  0.43857  0.48516  1.0000
  C   C417      1.0  0.93411  0.26289  0.26214  1.0000
  C   C418      1.0  0.80192  0.43357  0.34619  1.0000
  C   C419      1.0  0.81798  0.41797  0.33052  1.0000
  C   C420      1.0  0.82206  0.39768  0.35400  1.0000
  C   C421      1.0  0.81044  0.39310  0.39400  1.0000
  C   C422      1.0  0.79409  0.40850  0.40918  1.0000
  C   C423      1.0  0.78960  0.42846  0.38505  1.0000
  H   H418      1.0  0.82767  0.42181  0.30057  1.0000
  H   H419      1.0  0.83475  0.38599  0.34204  1.0000
  H   H420      1.0  0.78507  0.40510  0.44016  1.0000
  H   H421      1.0  0.77728  0.44032  0.39765  1.0000
  C   C424      1.0  0.68945  0.43430  0.32468  1.0000
  C   C425      1.0  0.70571  0.42787  0.29302  1.0000
  C   C426      1.0  0.90349  0.26952  0.16304  1.0000
  S   S146      1.0  0.68039  0.37103  0.23899  1.0000
  H   H422      1.0  0.70049  0.44118  0.15892  1.0000
  C   C427      1.0  0.80026  0.49752  0.44052  1.0000
  H   H423      1.0  0.70656  0.47903  0.19089  1.0000
  C   C428      1.0  0.68904  0.44794  0.18405  1.0000
  H   H424      1.0  0.71971  0.43870  0.28626  1.0000
  H   H425      1.0  0.86740  0.30811  0.16045  1.0000
  C   C429      1.0  0.70326  0.40787  0.26831  1.0000
  N   N36       1.0  0.89875  0.29143  0.15202  1.0000
  Fe  Fe76      1.0  0.98904  0.25801  0.14087  1.0000
  C   C430      1.0  0.81726  0.48486  0.41976  1.0000
  H   H426      1.0  0.89983  0.29732  0.76406  1.0000
  Fe  Fe77      1.0  0.67029  0.30194  0.32640  1.0000
  S   S147      1.0  0.84348  0.25977  0.69567  1.0000
  C   C431      1.0  0.92788  0.26632  0.09820  1.0000
  H   H427      1.0  0.83952  0.43303  0.41905  1.0000
  C   C432      1.0  0.68473  0.39401  0.27551  1.0000
  N   N37       1.0  0.74779  0.36264  0.34444  1.0000
  C   C433      1.0  0.76864  0.35448  0.33374  1.0000
  C   C434      1.0  0.72968  0.35713  0.31877  1.0000
  C   C435      1.0  0.77167  0.33997  0.29708  1.0000
  C   C436      1.0  0.73214  0.34272  0.28185  1.0000
  C   C437      1.0  0.75324  0.33397  0.27120  1.0000
  C   C438      1.0  0.74506  0.37837  0.38211  1.0000
  H   H428      1.0  0.78305  0.35892  0.35389  1.0000
  H   H429      1.0  0.71315  0.36375  0.32679  1.0000
  H   H430      1.0  0.78809  0.33294  0.28947  1.0000
  H   H431      1.0  0.71771  0.33836  0.26177  1.0000
  H   H432      1.0  0.75526  0.32230  0.24336  1.0000
  H   H433      1.0  0.72800  0.37742  0.39698  1.0000
  H   H434      1.0  0.75717  0.37439  0.40957  1.0000
  H   H435      1.0  0.74788  0.39582  0.36998  1.0000
  S   S148      1.0  0.95720  0.27154  0.98941  1.0000
  C   C439      1.0  0.84719  0.28163  0.56522  1.0000
  C   C440      1.0  0.81212  0.45519  0.47255  1.0000
  H   H436      1.0  0.90460  0.31842  0.10602  1.0000
  H   H437      1.0  0.78425  0.26795  0.53334  1.0000
  N   N38       1.0  0.82298  0.46397  0.43585  1.0000
  H   H438      1.0  0.89632  0.26199  0.19312  1.0000
  S   S149      1.0  0.67974  0.30768  0.25417  1.0000
  C   C441      1.0  0.89860  0.26217  0.69893  1.0000
  S   S150      1.0  0.86308  0.26456  0.48351  1.0000
  C   C442      1.0  0.79481  0.46728  0.49372  1.0000
  S   S151      1.0  0.98695  0.28882  0.09745  1.0000
  H   H439      1.0  0.75374  0.26759  0.27138  1.0000
  C   C443      1.0  0.84166  0.45149  0.41519  1.0000
  S   S152      1.0  0.74148  0.48452  0.28206  1.0000
  H   H440      1.0  0.71543  0.40348  0.24257  1.0000
  Fe  Fe78      1.0  0.98588  0.26459  0.03877  1.0000
  H   H441      1.0  0.83589  0.29442  0.62968  1.0000
  H   H442      1.0  0.91578  0.27468  0.94074  1.0000
  C   C444      1.0  0.73659  0.25781  0.96111  1.0000
  C   C445      1.0  0.91821  0.25669  0.13646  1.0000
  C   C446      1.0  0.70249  0.26329  0.92142  1.0000
  C   C447      1.0  0.84788  0.26023  0.63625  1.0000
  C   C448      1.0  0.78196  0.26211  0.49897  1.0000
  H   H443      1.0  0.84341  0.29706  0.54715  1.0000
  C   C449      1.0  0.89010  0.28178  0.76959  1.0000
  C   C450      1.0  0.84295  0.28008  0.61205  1.0000
  N   N39       1.0  0.71376  0.25659  0.95941  1.0000
  H   H444      1.0  0.76690  0.26584  0.92465  1.0000
  H   H445      1.0  0.82560  0.49167  0.39020  1.0000
  C   C451      1.0  0.74873  0.26571  0.92392  1.0000
  H   H446      1.0  0.93057  0.29621  0.05753  1.0000
  H   H447      1.0  0.87264  0.28461  0.75771  1.0000
  C   C452      1.0  0.71410  0.27117  0.88357  1.0000
  C   C453      1.0  0.73736  0.27242  0.88495  1.0000
  C   C454      1.0  0.75815  0.25473  0.43521  1.0000
  C   C455      1.0  0.85676  0.26340  0.54220  1.0000
  H   H448      1.0  0.74662  0.27781  0.85531  1.0000
  C   C456      1.0  0.88303  0.30472  0.17952  1.0000
  H   H449      1.0  0.68442  0.26230  0.91998  1.0000
  H   H450      1.0  0.70515  0.27556  0.85283  1.0000
  H   H451      1.0  0.74561  0.25237  0.99101  1.0000
  C   C457      1.0  0.92295  0.28863  0.08717  1.0000
  H   H452      1.0  0.66864  0.41826  0.18628  1.0000
  H   H453      1.0  0.88915  0.27830  0.80649  1.0000
  H   H454      1.0  0.93931  0.25658  0.07720  1.0000
  C   C458      1.0  0.78895  0.48863  0.47764  1.0000
  C   C459      1.0  0.92318  0.25846  0.93298  1.0000
  C   C460      1.0  0.66917  0.39978  0.30899  1.0000
  H   H455      1.0  0.74634  0.26852  0.49823  1.0000
  H   H456      1.0  0.77550  0.49825  0.49352  1.0000
  H   H457      1.0  0.78595  0.46014  0.52231  1.0000
  H   H458      1.0  0.69300  0.26341  0.01610  1.0000
  C   C461      1.0  0.94365  0.25216  0.95312  1.0000
  H   H459      1.0  0.68056  0.49955  0.29140  1.0000
  C   C462      1.0  0.68177  0.50003  0.25390  1.0000
  C   C463      1.0  0.80034  0.25438  0.47382  1.0000
  H   H460      1.0  0.81673  0.25417  0.48939  1.0000
  Fe  Fe79      1.0  0.96117  0.73365  0.10861  1.0000
  S   S153      1.0  0.93580  0.70662  0.12467  1.0000
  H   H461      1.0  0.89328  0.68695  0.14343  1.0000
  Fe  Fe80      1.0  0.70868  0.65276  0.68440  1.0000
  S   S154      1.0  0.72146  0.65124  0.61244  1.0000
  S   S155      1.0  0.73533  0.64430  0.73746  1.0000
  H   H462      1.0  0.76744  0.59400  0.33990  1.0000
  Fe  Fe81      1.0  0.68863  0.63588  0.59492  1.0000
  S   S156      1.0  0.68352  0.60803  0.54281  1.0000
  Fe  Fe82      1.0  0.70391  0.68452  0.60370  1.0000
  S   S157      1.0  0.71970  0.71283  0.56466  1.0000
  H   H463      1.0  0.72391  0.69157  0.02574  1.0000
  S   S158      1.0  0.69361  0.68718  0.67615  1.0000
  Fe  Fe83      1.0  0.81937  0.67364  0.02497  1.0000
  S   S159      1.0  0.81236  0.66789  0.09820  1.0000
  S   S160      1.0  0.85294  0.68530  0.99856  1.0000
  Fe  Fe84      1.0  0.77039  0.66638  0.99751  1.0000
  S   S161      1.0  0.75987  0.66011  0.07008  1.0000
  S   S162      1.0  0.74237  0.67180  0.94589  1.0000
  Fe  Fe85      1.0  0.78184  0.68929  0.08648  1.0000
  S   S163      1.0  0.77371  0.71606  0.13793  1.0000
  Fe  Fe86      1.0  0.79120  0.63899  0.07575  1.0000
  S   S164      1.0  0.79798  0.60615  0.11403  1.0000
  S   S165      1.0  0.79019  0.69705  0.01458  1.0000
  S   S166      1.0  0.80048  0.64315  0.00184  1.0000
  Fe  Fe87      1.0  0.74768  0.51845  0.39402  1.0000
  S   S167      1.0  0.71747  0.52115  0.34994  1.0000
  S   S168      1.0  0.75512  0.54065  0.45448  1.0000
  Fe  Fe88      1.0  0.74183  0.52212  0.29177  1.0000
  S   S169      1.0  0.73242  0.54950  0.24093  1.0000
  S   S170      1.0  0.77211  0.52106  0.33623  1.0000
  C   C464      1.0  0.75113  0.56560  0.20732  1.0000
  C   C465      1.0  0.74268  0.58394  0.18217  1.0000
  C   C466      1.0  0.75681  0.59681  0.15416  1.0000
  C   C467      1.0  0.77956  0.59130  0.15058  1.0000
  C   C468      1.0  0.78804  0.57307  0.17605  1.0000
  C   C469      1.0  0.77397  0.56038  0.20448  1.0000
  H   H464      1.0  0.72504  0.58812  0.18397  1.0000
  H   H465      1.0  0.75000  0.61070  0.13468  1.0000
  H   H466      1.0  0.80558  0.56858  0.17344  1.0000
  H   H467      1.0  0.78073  0.54628  0.22340  1.0000
  C   C470      1.0  0.70354  0.58834  0.52176  1.0000
  C   C471      1.0  0.72624  0.58931  0.53291  1.0000
  C   C472      1.0  0.74176  0.57438  0.51257  1.0000
  C   C473      1.0  0.73484  0.55848  0.48060  1.0000
  C   C474      1.0  0.71214  0.55739  0.46971  1.0000
  C   C475      1.0  0.69659  0.57211  0.49048  1.0000
  H   H468      1.0  0.73182  0.60165  0.55699  1.0000
  H   H469      1.0  0.75926  0.57527  0.52149  1.0000
  H   H470      1.0  0.70651  0.54515  0.44550  1.0000
  C   C476      1.0  0.71786  0.73111  0.10728  1.0000
  C   C477      1.0  0.73694  0.65232  0.79528  1.0000
  C   C478      1.0  0.72010  0.66502  0.81644  1.0000
  C   C479      1.0  0.72212  0.67088  0.86244  1.0000
  C   C480      1.0  0.74102  0.66428  0.88775  1.0000
  C   C481      1.0  0.75803  0.65191  0.86636  1.0000
  C   C482      1.0  0.75595  0.64596  0.82044  1.0000
  H   H471      1.0  0.70534  0.66997  0.79763  1.0000
  H   H472      1.0  0.70878  0.68032  0.87861  1.0000
  H   H473      1.0  0.77265  0.64669  0.88529  1.0000
  H   H474      1.0  0.76909  0.63616  0.80441  1.0000
  N   N40       1.0  0.75420  0.70840  0.67739  1.0000
  C   C483      1.0  0.71508  0.58579  0.35254  1.0000
  C   C484      1.0  0.85388  0.61401  0.13589  1.0000
  C   C485      1.0  0.70271  0.74466  0.62339  1.0000
  C   C486      1.0  0.72111  0.71001  0.08778  1.0000
  H   H475      1.0  0.79568  0.51406  0.42771  1.0000
  H   H476      1.0  0.75600  0.68827  0.61830  1.0000
  H   H477      1.0  0.69691  0.73093  0.64391  1.0000
  C   C487      1.0  0.72102  0.70799  0.04070  1.0000
  C   C488      1.0  0.91224  0.70242  0.08994  1.0000
  C   C489      1.0  0.91225  0.70855  0.04427  1.0000
  C   C490      1.0  0.89381  0.70352  0.01683  1.0000
  C   C491      1.0  0.87503  0.69273  0.03492  1.0000
  C   C492      1.0  0.87475  0.68719  0.08089  1.0000
  C   C493      1.0  0.89338  0.69178  0.10813  1.0000
  H   H478      1.0  0.92676  0.71652  0.02975  1.0000
  H   H479      1.0  0.89421  0.70778  0.98125  1.0000
  H   H480      1.0  0.86051  0.67870  0.09517  1.0000
  C   C494      1.0  0.88171  0.63660  0.01190  1.0000
  H   H481      1.0  0.74522  0.69044  0.73719  1.0000
  C   C495      1.0  0.85190  0.61923  0.05399  1.0000
  H   H482      1.0  0.86651  0.61217  0.16310  1.0000
  N   N41       1.0  0.86388  0.62124  0.09303  1.0000
  C   C496      1.0  0.69561  0.59494  0.37188  1.0000
  H   H483      1.0  0.67934  0.59101  0.35815  1.0000
  C   C497      1.0  0.71366  0.74044  0.58239  1.0000
  H   H484      1.0  0.84566  0.59746  0.13189  1.0000
  S   S171      1.0  0.67196  0.66939  0.58008  1.0000
  H   H485      1.0  0.75351  0.60664  0.42298  1.0000
  H   H486      1.0  0.68233  0.61554  0.42599  1.0000
  C   C498      1.0  0.74604  0.70665  0.72051  1.0000
  H   H487      1.0  0.76451  0.56948  0.37589  1.0000
  H   H488      1.0  0.73134  0.72408  0.77729  1.0000
  N   N42       1.0  0.73559  0.59023  0.37064  1.0000
  H   H489      1.0  0.85079  0.62593  0.98219  1.0000
  H   H490      1.0  0.75673  0.67263  0.67013  1.0000
  C   C499      1.0  0.76242  0.68838  0.65355  1.0000
  C   C500      1.0  0.73733  0.60373  0.40776  1.0000
  H   H491      1.0  0.76869  0.73532  0.04804  1.0000
  H   H492      1.0  0.66888  0.51185  0.24053  1.0000
  N   N43       1.0  0.71776  0.72649  0.01383  1.0000
  C   C501      1.0  0.71825  0.61343  0.42747  1.0000
  C   C502      1.0  0.75548  0.72893  0.65666  1.0000
  H   H493      1.0  0.78097  0.68813  0.65290  1.0000
  H   H494      1.0  0.71367  0.57496  0.32325  1.0000
  H   H495      1.0  0.83533  0.61198  0.05459  1.0000
  H   H496      1.0  0.70948  0.70891  0.95378  1.0000
  C   C503      1.0  0.86061  0.62688  0.01288  1.0000
  H   H497      1.0  0.84088  0.62643  0.14670  1.0000
  C   C504      1.0  0.88451  0.63095  0.09246  1.0000
  H   H498      1.0  0.89374  0.63331  0.12353  1.0000
  H   H499      1.0  0.88822  0.64346  0.98054  1.0000
  C   C505      1.0  0.89382  0.63858  0.05185  1.0000
  H   H500      1.0  0.83282  0.71916  0.07250  1.0000
  H   H501      1.0  0.90987  0.64694  0.05167  1.0000
  C   C506      1.0  0.69727  0.60886  0.40958  1.0000
  H   H502      1.0  0.71957  0.62364  0.45769  1.0000
  H   H503      1.0  0.73656  0.72174  0.95378  1.0000
  C   C507      1.0  0.83544  0.72936  0.10341  1.0000
  H   H504      1.0  0.75232  0.57013  0.32045  1.0000
  C   C508      1.0  0.75595  0.58048  0.35071  1.0000
  H   H505      1.0  0.67908  0.57116  0.48176  1.0000
  C   C509      1.0  0.73829  0.72572  0.74353  1.0000
  H   H506      1.0  0.71885  0.73298  0.14369  1.0000
  H   H507      1.0  0.76154  0.73024  0.62215  1.0000
  H   H508      1.0  0.72446  0.69544  0.10899  1.0000
  C   C510      1.0  0.71884  0.72401  0.96461  1.0000
  C   C511      1.0  0.71477  0.74731  0.03266  1.0000
  S   S172      1.0  0.67654  0.63503  0.66754  1.0000
  H   H509      1.0  0.84726  0.72027  0.12612  1.0000
  C   C512      1.0  0.77123  0.74394  0.11835  1.0000
  H   H510      1.0  0.87779  0.73927  0.08462  1.0000
  H   H511      1.0  0.81930  0.73088  0.12190  1.0000
  C   C513      1.0  0.74829  0.74841  0.67902  1.0000
  C   C514      1.0  0.76879  0.74874  0.07233  1.0000
  C   C515      1.0  0.73938  0.74673  0.72251  1.0000
  H   H512      1.0  0.71150  0.73877  0.94671  1.0000
  C   C516      1.0  0.71458  0.74991  0.07965  1.0000
  H   H513      1.0  0.69853  0.50676  0.24519  1.0000
  Fe  Fe89      1.0  0.96347  0.78359  0.09168  1.0000
  H   H514      1.0  0.76230  0.93102  0.11235  1.0000
  S   S173      1.0  0.94199  0.81401  0.07276  1.0000
  Fe  Fe90      1.0  0.70659  0.85729  0.48496  1.0000
  S   S174      1.0  0.72096  0.86553  0.55369  1.0000
  S   S175      1.0  0.72473  0.84564  0.42052  1.0000
  Fe  Fe91      1.0  0.69829  0.83860  0.58043  1.0000
  S   S176      1.0  0.70503  0.81229  0.63373  1.0000
  Fe  Fe92      1.0  0.69054  0.88811  0.56193  1.0000
  S   S177      1.0  0.68800  0.92301  0.59421  1.0000
  S   S178      1.0  0.68653  0.82852  0.51230  1.0000
  H   H515      1.0  0.71300  0.76653  0.09444  1.0000
  Fe  Fe93      1.0  0.81996  0.85505  0.14600  1.0000
  S   S179      1.0  0.80724  0.85472  0.07485  1.0000
  S   S180      1.0  0.85032  0.83671  0.17491  1.0000
  Fe  Fe94      1.0  0.77719  0.87783  0.18276  1.0000
  S   S181      1.0  0.76077  0.87902  0.11417  1.0000
  S   S182      1.0  0.76323  0.89513  0.24573  1.0000
  Fe  Fe95      1.0  0.77490  0.84390  0.10622  1.0000
  S   S183      1.0  0.75735  0.81581  0.07055  1.0000
  Fe  Fe96      1.0  0.79414  0.88990  0.08756  1.0000
  S   S184      1.0  0.80028  0.91861  0.03761  1.0000
  S   S185      1.0  0.78826  0.84183  0.17681  1.0000
  S   S186      1.0  0.80986  0.89120  0.15672  1.0000
  N   N44       1.0  0.76809  0.96495  0.09411  1.0000
  C   C517      1.0  0.98974  0.78231  0.92163  1.0000
  C   C518      1.0  0.68601  0.94604  0.80005  1.0000
  C   C519      1.0  0.74684  0.97218  0.08425  1.0000
  S   S187      1.0  0.75550  0.97711  0.71976  1.0000
  C   C520      1.0  0.68160  0.88085  0.33748  1.0000
  C   C521      1.0  0.78042  0.93306  0.00316  1.0000
  C   C522      1.0  0.75736  0.93028  0.00853  1.0000
  C   C523      1.0  0.74220  0.94428  0.98473  1.0000
  C   C524      1.0  0.74989  0.96104  0.95503  1.0000
  C   C525      1.0  0.77291  0.96309  0.94803  1.0000
  C   C526      1.0  0.78806  0.94923  0.97213  1.0000
  H   H516      1.0  0.75120  0.91777  0.03191  1.0000
  H   H517      1.0  0.72442  0.94246  0.99018  1.0000
  H   H518      1.0  0.77912  0.97591  0.92541  1.0000
  H   H519      1.0  0.80586  0.95150  0.96764  1.0000
  C   C527      1.0  0.76423  0.78854  0.08916  1.0000
  C   C528      1.0  0.76746  0.78386  0.13503  1.0000
  C   C529      1.0  0.76507  0.77096  0.05783  1.0000
  H   H520      1.0  0.76652  0.79730  0.15946  1.0000
  H   H521      1.0  0.76251  0.77452  0.02232  1.0000
  C   C530      1.0  0.70710  0.93761  0.62916  1.0000
  C   C531      1.0  0.69957  0.95691  0.65239  1.0000
  C   C532      1.0  0.71404  0.96906  0.68060  1.0000
  C   C533      1.0  0.73641  0.96230  0.68518  1.0000
  C   C534      1.0  0.74399  0.94307  0.66178  1.0000
  C   C535      1.0  0.72939  0.93065  0.63432  1.0000
  H   H522      1.0  0.68238  0.96250  0.64855  1.0000
  H   H523      1.0  0.70794  0.98382  0.69822  1.0000
  H   H524      1.0  0.76127  0.93771  0.66492  1.0000
  H   H525      1.0  0.73546  0.91592  0.61655  1.0000
  C   C536      1.0  0.70755  0.78486  0.61268  1.0000
  C   C537      1.0  0.70001  0.76681  0.63888  1.0000
  H   H526      1.0  0.96107  0.79791  0.98092  1.0000
  C   C538      1.0  0.71762  0.78074  0.57079  1.0000
  H   H527      1.0  0.69206  0.76996  0.67119  1.0000
  H   H528      1.0  0.72355  0.79462  0.55049  1.0000
  C   C539      1.0  0.73466  0.86007  0.37205  1.0000
  C   C540      1.0  0.74077  0.84742  0.33376  1.0000
  C   C541      1.0  0.74924  0.85791  0.29463  1.0000
  C   C542      1.0  0.75172  0.88124  0.29341  1.0000
  C   C543      1.0  0.74534  0.89393  0.33148  1.0000
  C   C544      1.0  0.73681  0.88343  0.37062  1.0000
  H   H529      1.0  0.73912  0.82933  0.33448  1.0000
  H   H530      1.0  0.75404  0.84793  0.26561  1.0000
  H   H531      1.0  0.74719  0.91201  0.33085  1.0000
  H   H532      1.0  0.73215  0.89338  0.39981  1.0000
  C   C545      1.0  0.91636  0.81994  0.10102  1.0000
  C   C546      1.0  0.90962  0.80757  0.13885  1.0000
  C   C547      1.0  0.88935  0.81292  0.16096  1.0000
  C   C548      1.0  0.87541  0.83042  0.14513  1.0000
  C   C549      1.0  0.88198  0.84265  0.10696  1.0000
  C   C550      1.0  0.90242  0.83748  0.08517  1.0000
  H   H533      1.0  0.92015  0.79407  0.15152  1.0000
  H   H534      1.0  0.88447  0.80342  0.19056  1.0000
  H   H535      1.0  0.87150  0.85629  0.09462  1.0000
  H   H536      1.0  0.90751  0.84720  0.05602  1.0000
  H   H537      1.0  0.74655  0.95687  0.85033  1.0000
  S   S188      1.0  0.73030  0.98020  0.93053  1.0000
  N   N45       1.0  0.81385  0.86096  0.29916  1.0000
  C   C551      1.0  0.81501  0.83854  0.28911  1.0000
  C   C552      1.0  0.82478  0.87748  0.26995  1.0000
  H   H538      1.0  0.82379  0.83274  0.25903  1.0000
  H   H539      1.0  0.83866  0.88557  0.28833  1.0000
  H   H540      1.0  0.83192  0.86964  0.23896  1.0000
  H   H541      1.0  0.81246  0.89057  0.25916  1.0000
  H   H542      1.0  0.75181  0.92710  0.84661  1.0000
  H   H543      1.0  0.69260  0.84635  0.33813  1.0000
  C   C553      1.0  0.68026  0.85831  0.35071  1.0000
  H   H544      1.0  0.79739  0.00027  0.02707  1.0000
  C   C554      1.0  0.66602  0.89638  0.35426  1.0000
  H   H545      1.0  0.80138  0.88606  0.34428  1.0000
  C   C555      1.0  0.68500  0.93294  0.76108  1.0000
  C   C556      1.0  0.78311  0.99283  0.04382  1.0000
  H   H546      1.0  0.68061  0.82209  0.40467  1.0000
  H   H547      1.0  0.74880  0.76461  0.66199  1.0000
  N   N46       1.0  0.84418  0.75142  0.09084  1.0000
  H   H548      1.0  0.73255  0.96383  0.09900  1.0000
  H   H549      1.0  0.81223  0.76780  0.09368  1.0000
  H   H550      1.0  0.80296  0.96879  0.08087  1.0000
  C   C557      1.0  0.79258  0.85288  0.36618  1.0000
  H   H551      1.0  0.70378  0.91250  0.71409  1.0000
  H   H552      1.0  0.78917  0.94086  0.12821  1.0000
  C   C558      1.0  0.80472  0.82275  0.31722  1.0000
  H   H553      1.0  0.73983  0.91840  0.75283  1.0000
  C   C559      1.0  0.79346  0.83002  0.35601  1.0000
  N   N47       1.0  0.72564  0.93914  0.80440  1.0000
  H   H554      1.0  0.96719  0.82686  0.97215  1.0000
  C   C560      1.0  0.97498  0.80990  0.97594  1.0000
  H   H555      1.0  0.82655  0.80475  0.06994  1.0000
  C   C561      1.0  0.77074  0.76157  0.14962  1.0000
  H   H556      1.0  0.70719  0.95885  0.85221  1.0000
  C   C562      1.0  0.87504  0.77429  0.06763  1.0000
  H   H557      1.0  0.78506  0.81805  0.37782  1.0000
  H   H558      1.0  0.78339  0.85874  0.39570  1.0000
  C   C563      1.0  0.76149  0.00012  0.03317  1.0000
  H   H559      1.0  0.71306  0.76215  0.01149  1.0000
  C   C564      1.0  0.74717  0.94235  0.82687  1.0000
  S   S189      1.0  0.96100  0.75410  0.04485  1.0000
  C   C565      1.0  0.72092  0.75854  0.55596  1.0000
  C   C566      1.0  0.70656  0.94873  0.82177  1.0000
  C   C567      1.0  0.72471  0.92593  0.76674  1.0000
  C   C568      1.0  0.80277  0.86824  0.33700  1.0000
  H   H560      1.0  0.89279  0.77607  0.06081  1.0000
  C   C569      1.0  0.83789  0.79041  0.07281  1.0000
  H   H561      1.0  0.72934  0.75540  0.52414  1.0000
  H   H562      1.0  0.76042  0.94596  0.80150  1.0000
  H   H563      1.0  0.80537  0.80502  0.30875  1.0000
  C   C570      1.0  0.78614  0.97505  0.07443  1.0000
  C   C571      1.0  0.70438  0.92254  0.74465  1.0000
  H   H564      1.0  0.73311  0.76166  0.73956  1.0000
  C   C572      1.0  0.77126  0.94592  0.12521  1.0000
  S   S190      1.0  0.67752  0.88156  0.49113  1.0000
  H   H565      1.0  0.98037  0.76928  0.93875  1.0000
  H   H566      1.0  0.69492  0.88624  0.31504  1.0000
  N   N48       1.0  0.98878  0.80405  0.93654  1.0000
  S   S191      1.0  0.96207  0.76332  0.15568  1.0000
  H   H567      1.0  0.76484  0.95020  0.15941  1.0000
  H   H568      1.0  0.98536  0.80973  0.00699  1.0000
  C   C573      1.0  0.82990  0.76947  0.08650  1.0000
  C   C574      1.0  0.86057  0.79273  0.06300  1.0000
  H   H569      1.0  0.77256  0.75795  0.18529  1.0000
  C   C575      1.0  0.86648  0.75358  0.08143  1.0000
  H   H570      1.0  0.66929  0.93099  0.74329  1.0000
  C   C576      1.0  0.74321  0.98980  0.05352  1.0000
  H   H571      1.0  0.86695  0.80883  0.05206  1.0000
  H   H572      1.0  0.79714  0.99799  0.74343  1.0000
  H   H573      1.0  0.72635  0.99484  0.04406  1.0000
  H   H574      1.0  0.66869  0.76554  0.56680  1.0000
  H   H575      1.0  0.66711  0.91399  0.34497  1.0000
  H   H576      1.0  0.67105  0.95425  0.81313  1.0000
  S   S192      1.0  0.66890  0.86143  0.59335  1.0000
