data_image0
_chemical_formula_structural       FeS2FeS2FeSFeHS2FeS2FeS2FeSFeS3HFeSFeHSHCH3C6H4C6H5C3H3C6H8CSC2H2C2HCH3SC2HSC3HC2HNC6H8CNCH2C2H2C2H2NCHCHC2FeC2HCNC3H4SH2CHSHCH2C2HCN2C4H2SHCHCH2C2NC2SCH2CHCHC2H4SH2CHSH2CFeS2FeS2FeSFeS3HCSH2FeS2H2SCHC9H4C6H2CHCH2C3H2CH2NHC3H4NFeC2FeH4CH2C3H2NH2C2NC3H3CHSC2HFeS2FeSHFeSFeS4FeSFeS2FeS2FeSFeS3FeS2HCH2C6H4CHC6H4C6H4C5H3C2HNCNHCFeNH4CHSCHFeNH4CHCH2CHCHCHC2HC2HC3NC6H8C2HSH2C2HC3HC2H2CH4CH3SC2HCH2S2C3HC2HNCHCFeS2FeS2FeSFeS3FeHSCH2C2SHCH2CH2CSHC2HC3NCH2C6H4C3HC2H3C5FeH3CHCSH3CHC2H2C2NH6CNHCHC2HC5H2CHSH4CNH2CHCSH3CHCH2FeS2FeS2FeSFeS3FeS2FeS2FeSFeS3FeS2FeHFeHNCHSCHCH2CSCHSCHC9H4CH2C6H4CH4C7H8CSCSNHFeC4HCHCFeHSCH2CNC5NH4CHCH3NH3SH3CHC3HCHC3H2C3HC2SHC2H3C4NC3HFeCHCH3FeS2FeS2FeSFeS3H2S2CFeS2FeS2FeSFeS3H2SCH2C6H2C3H4C6H2FeH4CH3CHCH2C2NHC7H5CHC6H4C4H3C2H5C3NC3HC2H2CFeH5C2SH2SHC3H2CNH4CH3NHCHC2HCHCH3CHFeH2C5H2SHFeS2FeS2FeSFeS3FeS2FeS2FeSFeS3FeS2CHFeHCSFeSHSH4C3HCH2C6H4C5H2C6H4C3HCH2C2HC6H5C2SHNC6H8CHFeC2H2CH2NH3C2HC2HCH2SHNC2NC6H2CHFeH3CHC2HCHCN2CH2C2H2CH4SCH2C2H2CHCFeS2FeS2FeSFeS6CFeS2FeS2FeSFeS3FeCSHCHNH3C2HC2H2C6H2SHC4H2CH4C4HCH2C6H4C6H4C4SHNC6H8CHCH2CNHC5HCH5CH5C2SC3HCFeH2SHNC4H5NCHFeNHCH4CHC3HNCH2CHCHC2H2C2HC3HSHCHCS2CH2SHFeS2FeS2FeHFeHS2H4C3HCHC9H6CHSH2CNC3HNH3CHCHFeHCHC2HCHCSCHFeHSC2H2C2HFeHCNCH2C4HSHCFe2SFeS2Fe2CS2FeS2HFeS2FeS2FeSFeS3HC2FeS2C2HS3C2HCH3NHC3SC2H2C6H5C7H5C7H5CFeSHCSH4NC6H2FeHCH3NC6H4SH4C3H2CHC2SC3H2CH2CHCH2CHNC2NC3H3SH3NCH2SH2CHSHFeC3H2CHC3H6CHS2HCHCSHC2HFeSFeS2FeS2FeCFeS3C2HCH3C4H2C6H4C5H4CNHC2HCHCH2NC2FeHFeH4C2H2SH2CSCHCHC3NC3HC3SFeSFeSFeS2FeSCFeS2FeS2FeSFeS3FeSHFeS2H2CS2HC5H2C6H5C7H5NHCHC7H4C2SC2HCSHCFeNC6H6C2NC6H8CH3C2H2SFeC2H3SH2SH6CH3SH2FeC3HNCHCN2FeHN2C2SH2CHCH2CSH4C2FeH5C2HC3SC2H
_chemical_formula_sum              "Fe128 S256 H768 C768 N64"
_cell_length_a       83.2311
_cell_length_b       41.91
_cell_length_c       47.7559
_cell_angle_alpha    89.9727
_cell_angle_beta     89.6964
_cell_angle_gamma    90.5996

_space_group_name_H-M_alt    "P 1"
_space_group_IT_number       1

loop_
  _space_group_symop_operation_xyz
  'x, y, z'

loop_
  _atom_site_type_symbol
  _atom_site_label
  _atom_site_symmetry_multiplicity
  _atom_site_fract_x
  _atom_site_fract_y
  _atom_site_fract_z
  _atom_site_occupancy
  Fe  Fe1       1.0  0.03446  0.14717  0.13122  1.0000
  S   S1        1.0  0.00806  0.16108  0.13128  1.0000
  S   S2        1.0  0.05429  0.17837  0.15289  1.0000
  Fe  Fe2       1.0  0.02568  0.07946  0.11012  1.0000
  S   S3        1.0  0.99942  0.08954  0.11012  1.0000
  S   S4        1.0  0.03214  0.03142  0.09130  1.0000
  Fe  Fe3       1.0  0.00621  0.13575  0.08893  1.0000
  S   S5        1.0  0.98963  0.14875  0.05136  1.0000
  Fe  Fe4       1.0  0.00335  0.11328  0.15196  1.0000
  H   H1        1.0  0.28335  0.37033  0.39585  1.0000
  S   S6        1.0  0.03279  0.12501  0.08777  1.0000
  S   S7        1.0  0.02949  0.09994  0.15300  1.0000
  Fe  Fe5       1.0  0.13845  0.28467  0.19507  1.0000
  S   S8        1.0  0.13140  0.30943  0.23512  1.0000
  S   S9        1.0  0.12153  0.25679  0.16471  1.0000
  Fe  Fe6       1.0  0.17433  0.30913  0.20099  1.0000
  S   S10       1.0  0.16905  0.33582  0.24066  1.0000
  S   S11       1.0  0.19971  0.30595  0.18160  1.0000
  Fe  Fe7       1.0  0.15479  0.29216  0.25270  1.0000
  S   S12       1.0  0.16012  0.26817  0.29403  1.0000
  Fe  Fe8       1.0  0.14630  0.35138  0.21951  1.0000
  S   S13       1.0  0.13499  0.40022  0.22660  1.0000
  S   S14       1.0  0.16102  0.26435  0.21388  1.0000
  S   S15       1.0  0.15233  0.32779  0.17849  1.0000
  H   H2        1.0  0.99651  0.01110  0.11015  1.0000
  Fe  Fe9       1.0  0.15084  0.32236  0.44955  1.0000
  S   S16       1.0  0.13991  0.33566  0.40786  1.0000
  Fe  Fe10      1.0  0.29705  0.30726  0.22434  1.0000
  H   H3        1.0  0.28124  0.47459  0.24080  1.0000
  S   S17       1.0  0.27009  0.30447  0.23631  1.0000
  H   H4        1.0  0.09183  0.29645  0.14134  1.0000
  C   C1        1.0  0.10980  0.35430  0.17888  1.0000
  H   H5        1.0  0.27104  0.37465  0.22981  1.0000
  H   H6        1.0  0.29657  0.26955  0.34853  1.0000
  H   H7        1.0  0.06621  0.05323  0.17960  1.0000
  C   C2        1.0  0.21933  0.30856  0.19671  1.0000
  C   C3        1.0  0.23287  0.30167  0.17998  1.0000
  C   C4        1.0  0.24855  0.30154  0.19132  1.0000
  C   C5        1.0  0.25095  0.30827  0.21971  1.0000
  C   C6        1.0  0.23747  0.31613  0.23624  1.0000
  C   C7        1.0  0.22180  0.31622  0.22491  1.0000
  H   H8        1.0  0.23118  0.29580  0.15811  1.0000
  H   H9        1.0  0.25869  0.29522  0.17825  1.0000
  H   H10       1.0  0.23910  0.32152  0.25820  1.0000
  H   H11       1.0  0.21159  0.32174  0.23811  1.0000
  C   C8        1.0  0.15483  0.28773  0.32546  1.0000
  C   C9        1.0  0.14508  0.31470  0.32534  1.0000
  C   C10       1.0  0.14067  0.32924  0.35076  1.0000
  C   C11       1.0  0.14618  0.31727  0.37641  1.0000
  C   C12       1.0  0.15613  0.29058  0.37652  1.0000
  C   C13       1.0  0.16034  0.27574  0.35112  1.0000
  H   H12       1.0  0.14072  0.32404  0.30570  1.0000
  H   H13       1.0  0.13292  0.34980  0.35056  1.0000
  H   H14       1.0  0.16049  0.28124  0.39614  1.0000
  H   H15       1.0  0.16789  0.25489  0.35134  1.0000
  H   H16       1.0  0.10340  0.36818  0.22098  1.0000
  C   C14       1.0  0.13287  0.46527  0.22134  1.0000
  C   C15       1.0  0.14046  0.43757  0.21153  1.0000
  C   C16       1.0  0.15225  0.44046  0.19066  1.0000
  H   H17       1.0  0.28894  0.47841  0.19071  1.0000
  H   H18       1.0  0.12367  0.46328  0.23736  1.0000
  H   H19       1.0  0.15818  0.41937  0.18287  1.0000
  C   C17       1.0  0.07295  0.20055  0.15579  1.0000
  C   C18       1.0  0.08330  0.20554  0.13290  1.0000
  C   C19       1.0  0.09803  0.22240  0.13621  1.0000
  C   C20       1.0  0.10287  0.23459  0.16243  1.0000
  C   C21       1.0  0.09253  0.22959  0.18537  1.0000
  C   C22       1.0  0.07774  0.21281  0.18203  1.0000
  H   H20       1.0  0.07992  0.19657  0.11251  1.0000
  H   H21       1.0  0.10577  0.22605  0.11819  1.0000
  H   H22       1.0  0.09592  0.23867  0.20573  1.0000
  H   H23       1.0  0.06998  0.20916  0.20002  1.0000
  H   H24       1.0  0.14134  0.44084  0.29962  1.0000
  H   H25       1.0  0.12816  0.27269  0.42100  1.0000
  H   H26       1.0  0.17970  0.45112  0.23997  1.0000
  H   H27       1.0  0.10898  0.31531  0.43229  1.0000
  C   C23       1.0  0.12902  0.21379  0.44279  1.0000
  S   S18       1.0  0.98701  0.09431  0.18760  1.0000
  C   C24       1.0  0.08466  0.31055  0.18271  1.0000
  C   C25       1.0  0.29243  0.35243  0.38965  1.0000
  H   H28       1.0  0.17114  0.47034  0.43260  1.0000
  H   H29       1.0  0.08123  0.13668  0.18009  1.0000
  C   C26       1.0  0.98721  0.14508  0.01385  1.0000
  C   C27       1.0  0.98438  0.06954  0.03352  1.0000
  H   H30       1.0  0.01117  0.12948  0.00448  1.0000
  C   C28       1.0  0.10054  0.35275  0.20339  1.0000
  H   H31       1.0  0.07723  0.13556  0.13057  1.0000
  H   H32       1.0  0.06133  0.12340  0.18950  1.0000
  H   H33       1.0  0.16223  0.41656  0.26988  1.0000
  S   S19       1.0  0.30093  0.32984  0.46717  1.0000
  C   C29       1.0  0.06832  0.06436  0.15938  1.0000
  C   C30       1.0  0.06868  0.06032  0.10898  1.0000
  H   H34       1.0  0.29426  0.33576  0.40742  1.0000
  S   S20       1.0  0.30512  0.26965  0.40648  1.0000
  C   C31       1.0  0.23914  0.28725  0.47198  1.0000
  C   C32       1.0  0.28441  0.42839  0.18267  1.0000
  C   C33       1.0  0.28046  0.45362  0.22753  1.0000
  H   H35       1.0  0.98941  0.15768  0.21464  1.0000
  C   C34       1.0  0.30797  0.28198  0.35046  1.0000
  C   C35       1.0  0.17827  0.47180  0.45152  1.0000
  H   H36       1.0  0.98926  0.03430  0.15622  1.0000
  N   N1        1.0  0.21043  0.24097  0.23954  1.0000
  C   C36       1.0  0.19912  0.24857  0.25928  1.0000
  C   C37       1.0  0.22642  0.24196  0.24602  1.0000
  C   C38       1.0  0.20374  0.25844  0.28606  1.0000
  C   C39       1.0  0.23148  0.25167  0.27263  1.0000
  C   C40       1.0  0.22003  0.26009  0.29270  1.0000
  C   C41       1.0  0.20540  0.23030  0.21167  1.0000
  H   H37       1.0  0.18641  0.24730  0.25444  1.0000
  H   H38       1.0  0.23542  0.23625  0.23032  1.0000
  H   H39       1.0  0.19468  0.26488  0.30147  1.0000
  H   H40       1.0  0.24421  0.25350  0.27728  1.0000
  H   H41       1.0  0.22375  0.26804  0.31331  1.0000
  H   H42       1.0  0.20371  0.20401  0.21146  1.0000
  H   H43       1.0  0.19399  0.24177  0.20541  1.0000
  H   H44       1.0  0.21439  0.23741  0.19543  1.0000
  C   C42       1.0  0.07350  0.11515  0.18328  1.0000
  N   N2        1.0  0.14711  0.48863  0.28718  1.0000
  C   C43       1.0  0.27541  0.42428  0.23851  1.0000
  H   H45       1.0  0.13471  0.46399  0.45644  1.0000
  H   H46       1.0  0.03180  0.01698  0.15113  1.0000
  C   C44       1.0  0.10511  0.23269  0.46744  1.0000
  C   C45       1.0  0.06658  0.04597  0.13512  1.0000
  H   H47       1.0  0.27201  0.42226  0.26039  1.0000
  H   H48       1.0  0.16530  0.47278  0.16331  1.0000
  C   C46       1.0  0.09408  0.25642  0.47435  1.0000
  C   C47       1.0  0.07255  0.09272  0.10737  1.0000
  H   H49       1.0  0.00728  0.05973  0.05243  1.0000
  H   H50       1.0  0.28770  0.33758  0.37220  1.0000
  N   N3        1.0  0.30759  0.36837  0.38199  1.0000
  C   C48       1.0  0.03126  0.99518  0.11034  1.0000
  H   H51       1.0  0.06327  0.02089  0.13645  1.0000
  C   C49       1.0  0.27939  0.37133  0.17568  1.0000
  H   H52       1.0  0.00285  0.07562  0.46461  1.0000
  C   C50       1.0  0.14507  0.43496  0.48884  1.0000
  C   C51       1.0  0.14915  0.45625  0.28725  1.0000
  Fe  Fe11      1.0  0.18071  0.30199  0.48212  1.0000
  C   C52       1.0  0.10766  0.29204  0.44212  1.0000
  C   C53       1.0  0.28477  0.45581  0.19935  1.0000
  H   H53       1.0  0.13748  0.21236  0.46069  1.0000
  C   C54       1.0  0.16108  0.44234  0.27064  1.0000
  N   N4        1.0  0.11712  0.23856  0.44842  1.0000
  C   C55       1.0  0.08795  0.33060  0.20533  1.0000
  C   C56       1.0  0.11673  0.33523  0.13172  1.0000
  C   C57       1.0  0.98272  0.14183  0.22838  1.0000
  H   H54       1.0  0.10937  0.33300  0.11247  1.0000
  H   H55       1.0  0.23818  0.27617  0.45160  1.0000
  H   H56       1.0  0.27865  0.34893  0.18812  1.0000
  H   H57       1.0  0.26884  0.37215  0.16158  1.0000
  S   S21       1.0  0.17223  0.34921  0.46598  1.0000
  H   H58       1.0  0.28848  0.43002  0.16108  1.0000
  H   H59       1.0  0.06692  0.04645  0.09002  1.0000
  C   C58       1.0  0.99088  0.01050  0.16469  1.0000
  H   H60       1.0  0.26506  0.28345  0.47315  1.0000
  S   S22       1.0  0.16014  0.27469  0.46243  1.0000
  H   H61       1.0  0.07385  0.10429  0.08714  1.0000
  C   C59       1.0  0.99456  0.09060  0.47596  1.0000
  H   H62       1.0  0.11980  0.37110  0.17787  1.0000
  H   H63       1.0  0.12524  0.31496  0.13243  1.0000
  C   C60       1.0  0.25443  0.29138  0.48416  1.0000
  C   C61       1.0  0.99235  0.00682  0.19367  1.0000
  H   H64       1.0  0.08092  0.32865  0.22445  1.0000
  C   C62       1.0  0.18269  0.44402  0.46549  1.0000
  N   N5        1.0  0.07237  0.09604  0.15763  1.0000
  N   N6        1.0  0.10647  0.33457  0.15678  1.0000
  C   C63       1.0  0.15630  0.47079  0.17968  1.0000
  C   C64       1.0  0.17087  0.46173  0.25384  1.0000
  C   C65       1.0  0.11852  0.26779  0.43582  1.0000
  C   C66       1.0  0.09410  0.31290  0.15845  1.0000
  H   H65       1.0  0.07514  0.29270  0.18414  1.0000
  H   H66       1.0  0.12382  0.35779  0.13017  1.0000
  S   S23       1.0  0.20613  0.28460  0.47223  1.0000
  H   H67       1.0  0.12619  0.48526  0.31364  1.0000
  C   C67       1.0  0.09542  0.28632  0.46163  1.0000
  H   H68       1.0  0.07874  0.10119  0.20069  1.0000
  C   C68       1.0  0.98006  0.09952  0.46330  1.0000
  H   H69       1.0  0.13607  0.21895  0.42344  1.0000
  H   H70       1.0  0.29061  0.37022  0.16291  1.0000
  C   C69       1.0  0.27495  0.39741  0.22112  1.0000
  C   C70       1.0  0.03140  0.99477  0.13961  1.0000
  N   N7        1.0  0.27972  0.39962  0.19371  1.0000
  C   C71       1.0  0.07439  0.11031  0.13204  1.0000
  C   C72       1.0  0.98000  0.11012  0.22031  1.0000
  S   S24       1.0  0.30786  0.35207  0.24253  1.0000
  C   C73       1.0  0.14096  0.46412  0.47626  1.0000
  H   H71       1.0  0.99188  0.02759  0.20727  1.0000
  H   H72       1.0  0.30332  0.36541  0.33800  1.0000
  C   C74       1.0  0.97658  0.15326  0.25416  1.0000
  H   H73       1.0  0.12302  0.19020  0.44011  1.0000
  C   C75       1.0  0.99951  0.13480  0.99588  1.0000
  H   H74       1.0  0.97868  0.17789  0.25992  1.0000
  C   C76       1.0  0.00025  0.05918  0.03334  1.0000
  C   C77       1.0  0.00716  0.04872  0.00836  1.0000
  H   H75       1.0  0.17909  0.42083  0.45742  1.0000
  H   H76       1.0  0.10428  0.20981  0.47804  1.0000
  H   H77       1.0  0.14200  0.41263  0.47871  1.0000
  H   H78       1.0  0.08712  0.30512  0.46711  1.0000
  S   S25       1.0  0.30892  0.25629  0.48756  1.0000
  H   H79       1.0  0.01952  0.04076  0.00809  1.0000
  H   H80       1.0  0.97714  0.99089  0.11144  1.0000
  C   C78       1.0  0.22508  0.29614  0.48637  1.0000
  H   H81       1.0  0.97908  0.07882  0.05264  1.0000
  S   S26       1.0  0.13575  0.32831  0.48849  1.0000
  H   H82       1.0  0.24695  0.20854  0.48688  1.0000
  H   H83       1.0  0.02502  0.11515  0.74173  1.0000
  C   C79       1.0  0.98433  0.12457  0.74463  1.0000
  Fe  Fe12      1.0  0.02988  0.11688  0.63346  1.0000
  S   S27       1.0  0.05482  0.10786  0.61576  1.0000
  S   S28       1.0  0.02680  0.11674  0.68156  1.0000
  Fe  Fe13      1.0  0.01572  0.12383  0.57440  1.0000
  S   S29       1.0  0.03925  0.11552  0.55283  1.0000
  S   S30       1.0  0.99217  0.13398  0.55241  1.0000
  Fe  Fe14      1.0  0.04199  0.07607  0.58469  1.0000
  S   S31       1.0  0.04838  0.02766  0.56634  1.0000
  Fe  Fe15      1.0  0.05039  0.14806  0.58511  1.0000
  S   S32       1.0  0.06617  0.19283  0.57536  1.0000
  S   S33       1.0  0.01762  0.08248  0.60419  1.0000
  S   S34       1.0  0.02627  0.15906  0.60504  1.0000
  H   H84       1.0  0.00187  0.04570  0.55542  1.0000
  C   C80       1.0  0.05081  0.22090  0.63638  1.0000
  S   S35       1.0  0.13343  0.23589  0.51824  1.0000
  H   H85       1.0  0.01931  0.03636  0.53456  1.0000
  H   H86       1.0  0.00651  0.12394  0.95320  1.0000
  Fe  Fe16      1.0  0.15803  0.35188  0.50591  1.0000
  S   S36       1.0  0.15923  0.39859  0.53016  1.0000
  S   S37       1.0  0.16784  0.30580  0.52356  1.0000
  H   H87       1.0  0.24278  0.32383  0.54604  1.0000
  H   H88       1.0  0.98953  0.00526  0.78260  1.0000
  S   S38       1.0  0.27444  0.30332  0.52946  1.0000
  C   C81       1.0  0.22779  0.24448  0.55326  1.0000
  H   H89       1.0  0.19856  0.26623  0.53584  1.0000
  C   C82       1.0  0.24183  0.31400  0.52517  1.0000
  C   C83       1.0  0.24162  0.21776  0.50596  1.0000
  C   C84       1.0  0.99853  0.10131  0.50305  1.0000
  C   C85       1.0  0.19494  0.47635  0.50148  1.0000
  C   C86       1.0  0.25142  0.22776  0.52796  1.0000
  C   C87       1.0  0.00690  0.02845  0.54009  1.0000
  C   C88       1.0  0.04731  0.18352  0.68393  1.0000
  C   C89       1.0  0.15700  0.46399  0.52736  1.0000
  C   C90       1.0  0.15318  0.43475  0.51440  1.0000
  H   H90       1.0  0.01219  0.01199  0.59317  1.0000
  H   H91       1.0  0.00982  0.09468  0.51237  1.0000
  H   H92       1.0  0.16323  0.46397  0.54719  1.0000
  H   H93       1.0  0.05193  0.23478  0.61725  1.0000
  C   C91       1.0  0.08492  0.20407  0.55917  1.0000
  C   C92       1.0  0.08882  0.23678  0.55629  1.0000
  C   C93       1.0  0.10353  0.24703  0.54404  1.0000
  C   C94       1.0  0.11472  0.22468  0.53459  1.0000
  C   C95       1.0  0.11082  0.19199  0.53744  1.0000
  C   C96       1.0  0.09606  0.18174  0.54950  1.0000
  H   H94       1.0  0.08038  0.25438  0.56366  1.0000
  H   H95       1.0  0.10625  0.27223  0.54207  1.0000
  C   C97       1.0  0.98173  0.13838  0.95461  1.0000
  H   H96       1.0  0.09336  0.15653  0.55152  1.0000
  C   C98       1.0  0.06205  0.18425  0.66971  1.0000
  H   H97       1.0  0.11929  0.17435  0.53027  1.0000
  H   H98       1.0  0.98107  0.06604  0.93974  1.0000
  C   C99       1.0  0.03618  0.21927  0.65087  1.0000
  C   C100      1.0  0.22497  0.22168  0.50801  1.0000
  C   C101      1.0  0.99680  0.13167  0.96665  1.0000
  H   H99       1.0  0.25211  0.25025  0.56842  1.0000
  H   H100      1.0  0.05057  0.01322  0.62617  1.0000
  C   C102      1.0  0.98152  0.12547  0.71554  1.0000
  H   H101      1.0  0.26441  0.22661  0.52602  1.0000
  H   H102      1.0  0.19555  0.22684  0.55088  1.0000
  N   N8        1.0  0.03459  0.20081  0.67438  1.0000
  H   H103      1.0  0.02596  0.23208  0.64271  1.0000
  C   C103      1.0  0.01287  0.11797  0.73425  1.0000
  C   C104      1.0  0.01005  0.11891  0.70517  1.0000
  C   C105      1.0  0.99425  0.12267  0.69596  1.0000
  H   H104      1.0  0.99929  0.02978  0.52108  1.0000
  H   H105      1.0  0.21587  0.31751  0.52406  1.0000
  H   H106      1.0  0.04596  0.16813  0.70209  1.0000
  H   H107      1.0  0.99180  0.12351  0.67374  1.0000
  N   N9        1.0  0.98262  0.05985  0.98401  1.0000
  Fe  Fe17      1.0  0.14640  0.28184  0.50288  1.0000
  C   C106      1.0  0.06378  0.20311  0.64580  1.0000
  C   C107      1.0  0.01885  0.19812  0.68815  1.0000
  Fe  Fe18      1.0  0.29854  0.30093  0.50636  1.0000
  H   H108      1.0  0.22253  0.25590  0.57146  1.0000
  H   H109      1.0  0.01081  0.18260  0.67540  1.0000
  H   H110      1.0  0.00359  0.04131  0.96430  1.0000
  H   H111      1.0  0.97924  0.05998  0.77508  1.0000
  C   C108      1.0  0.00013  0.12071  0.75384  1.0000
  H   H112      1.0  0.07190  0.16959  0.67674  1.0000
  H   H113      1.0  0.01331  0.22193  0.69067  1.0000
  C   C109      1.0  0.97670  0.00941  0.78390  1.0000
  C   C110      1.0  0.19102  0.44622  0.49068  1.0000
  C   C111      1.0  0.98791  0.12072  0.51793  1.0000
  H   H114      1.0  0.07499  0.20328  0.63405  1.0000
  H   H115      1.0  0.08482  0.25177  0.48997  1.0000
  N   N10       1.0  0.21828  0.23502  0.53144  1.0000
  H   H116      1.0  0.01973  0.18712  0.70929  1.0000
  H   H117      1.0  0.00257  0.12002  0.77606  1.0000
  C   C112      1.0  0.24449  0.24109  0.55183  1.0000
  C   C113      1.0  0.04933  0.99155  0.58539  1.0000
  N   N11       1.0  0.00719  0.99602  0.55169  1.0000
  C   C114      1.0  0.20091  0.24035  0.53308  1.0000
  C   C115      1.0  0.22654  0.31043  0.51274  1.0000
  C   C116      1.0  0.25583  0.30391  0.51120  1.0000
  H   H118      1.0  0.20104  0.47784  0.52145  1.0000
  H   H119      1.0  0.30903  0.46263  0.54054  1.0000
  H   H120      1.0  0.19466  0.23299  0.51355  1.0000
  C   C117      1.0  0.99810  0.04912  0.98373  1.0000
  H   H121      1.0  0.19383  0.42471  0.50230  1.0000
  S   S39       1.0  0.97888  0.13226  0.91744  1.0000
  C   C118      1.0  0.01001  0.99164  0.57963  1.0000
  C   C119      1.0  0.05029  0.99102  0.61461  1.0000
  H   H122      1.0  0.21753  0.21540  0.49022  1.0000
  Fe  Fe19      1.0  0.01111  0.80608  0.09551  1.0000
  S   S40       1.0  0.03643  0.82019  0.10937  1.0000
  S   S41       1.0  0.00442  0.81229  0.04804  1.0000
  Fe  Fe20      1.0  0.00029  0.79708  0.15811  1.0000
  S   S42       1.0  0.02446  0.81114  0.17442  1.0000
  H   H123      1.0  0.14009  0.51737  0.32161  1.0000
  Fe  Fe21      1.0  0.02387  0.85027  0.14196  1.0000
  S   S43       1.0  0.02924  0.90032  0.15886  1.0000
  Fe  Fe22      1.0  0.03516  0.77960  0.14107  1.0000
  S   S44       1.0  0.05221  0.73921  0.15676  1.0000
  S   S45       1.0  0.99893  0.83793  0.12745  1.0000
  S   S46       1.0  0.01058  0.76379  0.12533  1.0000
  S   S47       1.0  0.17098  0.59764  0.45941  1.0000
  Fe  Fe23      1.0  0.15642  0.64164  0.45270  1.0000
  S   S48       1.0  0.15666  0.66741  0.41101  1.0000
  Fe  Fe24      1.0  0.15281  0.58217  0.20043  1.0000
  S   S49       1.0  0.16083  0.63028  0.18354  1.0000
  S   S50       1.0  0.15412  0.53622  0.17519  1.0000
  Fe  Fe25      1.0  0.14696  0.60857  0.25843  1.0000
  S   S51       1.0  0.15420  0.65841  0.24613  1.0000
  S   S52       1.0  0.14211  0.58713  0.30119  1.0000
  Fe  Fe26      1.0  0.13920  0.64977  0.20715  1.0000
  S   S53       1.0  0.12373  0.68933  0.18639  1.0000
  Fe  Fe27      1.0  0.17508  0.63536  0.22348  1.0000
  S   S54       1.0  0.20057  0.65222  0.23567  1.0000
  S   S55       1.0  0.13062  0.60097  0.22142  1.0000
  S   S56       1.0  0.16838  0.58623  0.23816  1.0000
  Fe  Fe28      1.0  0.29648  0.63394  0.20861  1.0000
  S   S57       1.0  0.29905  0.61016  0.25014  1.0000
  S   S58       1.0  0.27210  0.63500  0.18613  1.0000
  H   H124      1.0  0.19031  0.72523  0.36608  1.0000
  C   C120      1.0  0.10533  0.63188  0.13973  1.0000
  H   H125      1.0  0.99505  0.75421  0.48174  1.0000
  H   H126      1.0  0.27876  0.69927  0.16648  1.0000
  C   C121      1.0  0.22031  0.64513  0.22192  1.0000
  C   C122      1.0  0.22300  0.63332  0.19487  1.0000
  C   C123      1.0  0.23886  0.63006  0.18444  1.0000
  C   C124      1.0  0.25232  0.63785  0.20100  1.0000
  C   C125      1.0  0.24964  0.64896  0.22827  1.0000
  C   C126      1.0  0.23378  0.65285  0.23849  1.0000
  H   H127      1.0  0.21285  0.62741  0.18172  1.0000
  H   H128      1.0  0.24070  0.62154  0.16330  1.0000
  H   H129      1.0  0.25978  0.65530  0.24129  1.0000
  H   H130      1.0  0.23195  0.66217  0.25936  1.0000
  C   C127      1.0  0.13718  0.49562  0.21082  1.0000
  H   H131      1.0  0.29617  0.61019  0.39916  1.0000
  C   C128      1.0  0.15159  0.64513  0.38092  1.0000
  C   C129      1.0  0.15044  0.66068  0.35496  1.0000
  C   C130      1.0  0.14752  0.64319  0.33033  1.0000
  C   C131      1.0  0.14550  0.61005  0.33162  1.0000
  C   C132      1.0  0.14638  0.59458  0.35763  1.0000
  C   C133      1.0  0.14948  0.61202  0.38220  1.0000
  H   H132      1.0  0.15194  0.68632  0.35387  1.0000
  H   H133      1.0  0.14667  0.65540  0.31045  1.0000
  H   H134      1.0  0.14470  0.56899  0.35883  1.0000
  H   H135      1.0  0.15026  0.59985  0.40212  1.0000
  C   C134      1.0  0.07224  0.72652  0.16577  1.0000
  C   C135      1.0  0.08609  0.74448  0.15935  1.0000
  C   C136      1.0  0.10156  0.73298  0.16625  1.0000
  C   C137      1.0  0.10362  0.70347  0.18001  1.0000
  C   C138      1.0  0.08976  0.68572  0.18683  1.0000
  C   C139      1.0  0.07429  0.69701  0.17956  1.0000
  H   H136      1.0  0.08490  0.76720  0.14883  1.0000
  H   H137      1.0  0.11206  0.74718  0.16085  1.0000
  H   H138      1.0  0.09094  0.66311  0.19751  1.0000
  H   H139      1.0  0.06379  0.68276  0.18481  1.0000
  C   C140      1.0  0.03035  0.93633  0.13946  1.0000
  C   C141      1.0  0.03129  0.96546  0.15404  1.0000
  C   C142      1.0  0.02993  0.77180  0.24940  1.0000
  C   C143      1.0  0.03064  0.96609  0.09572  1.0000
  C   C144      1.0  0.02992  0.93678  0.11020  1.0000
  H   H140      1.0  0.03162  0.96531  0.17669  1.0000
  H   H141      1.0  0.02924  0.91453  0.09874  1.0000
  H   H142      1.0  0.00199  0.84330  0.99387  1.0000
  C   C145      1.0  0.29973  0.68028  0.14579  1.0000
  C   C146      1.0  0.18230  0.50152  0.46298  1.0000
  H   H143      1.0  0.29349  0.65849  0.13968  1.0000
  N   N12       1.0  0.99162  0.98458  0.14731  1.0000
  C   C147      1.0  0.99498  0.95003  0.18699  1.0000
  N   N13       1.0  0.30157  0.58497  0.36147  1.0000
  H   H144      1.0  0.12729  0.51985  0.29147  1.0000
  C   C148      1.0  0.99312  0.80241  0.01683  1.0000
  Fe  Fe29      1.0  0.29733  0.62885  0.47972  1.0000
  N   N14       1.0  0.01383  0.73810  0.21975  1.0000
  H   H145      1.0  0.30801  0.68428  0.36081  1.0000
  H   H146      1.0  0.99697  0.92624  0.19525  1.0000
  H   H147      1.0  0.99275  0.75950  0.27746  1.0000
  H   H148      1.0  0.13126  0.51670  0.21863  1.0000
  C   C149      1.0  0.23932  0.64725  0.46862  1.0000
  H   H149      1.0  0.18984  0.67185  0.38860  1.0000
  S   S59       1.0  0.27243  0.64678  0.46766  1.0000
  C   C150      1.0  0.98285  0.81905  0.23562  1.0000
  H   H150      1.0  0.24046  0.66248  0.45041  1.0000
  Fe  Fe30      1.0  0.14922  0.57913  0.48235  1.0000
  N   N15       1.0  0.11831  0.64608  0.12693  1.0000
  H   H151      1.0  0.02043  0.72727  0.17755  1.0000
  H   H152      1.0  0.27926  0.59079  0.38245  1.0000
  H   H153      1.0  0.12584  0.69452  0.12528  1.0000
  H   H154      1.0  0.17819  0.52301  0.45266  1.0000
  C   C151      1.0  0.29065  0.60413  0.37864  1.0000
  H   H155      1.0  0.03805  0.75185  0.21048  1.0000
  C   C152      1.0  0.14891  0.49854  0.18987  1.0000
  H   H156      1.0  0.29302  0.74836  0.18249  1.0000
  H   H157      1.0  0.11950  0.67762  0.09210  1.0000
  C   C153      1.0  0.16881  0.49473  0.25414  1.0000
  H   H158      1.0  0.98469  0.84822  0.27281  1.0000
  C   C154      1.0  0.11706  0.67820  0.11496  1.0000
  H   H159      1.0  0.10494  0.68853  0.11837  1.0000
  C   C155      1.0  0.13454  0.50328  0.30439  1.0000
  H   H160      1.0  0.01825  0.78870  0.28699  1.0000
  C   C156      1.0  0.14520  0.49333  0.48877  1.0000
  C   C157      1.0  0.13418  0.59966  0.13611  1.0000
  H   H161      1.0  0.12227  0.56149  0.15847  1.0000
  C   C158      1.0  0.02810  0.75334  0.22519  1.0000
  C   C159      1.0  0.01200  0.71905  0.19422  1.0000
  H   H162      1.0  0.15511  0.53343  0.27104  1.0000
  C   C160      1.0  0.13263  0.63046  0.12518  1.0000
  C   C161      1.0  0.97827  0.79080  0.47046  1.0000
  C   C162      1.0  0.10654  0.60132  0.15133  1.0000
  N   N16       1.0  0.18741  0.64907  0.32074  1.0000
  C   C163      1.0  0.18845  0.64654  0.34926  1.0000
  C   C164      1.0  0.18786  0.67836  0.30810  1.0000
  C   C165      1.0  0.18969  0.67389  0.36592  1.0000
  C   C166      1.0  0.18902  0.70621  0.32414  1.0000
  C   C167      1.0  0.18983  0.70388  0.35326  1.0000
  C   C168      1.0  0.18565  0.62048  0.30335  1.0000
  H   H163      1.0  0.18768  0.62344  0.35942  1.0000
  H   H164      1.0  0.18710  0.68029  0.28546  1.0000
  H   H165      1.0  0.99968  0.72153  0.18557  1.0000
  H   H166      1.0  0.18908  0.72938  0.31402  1.0000
  H   H167      1.0  0.01437  0.69358  0.19874  1.0000
  H   H168      1.0  0.19644  0.61759  0.28979  1.0000
  H   H169      1.0  0.18380  0.59855  0.31607  1.0000
  H   H170      1.0  0.17494  0.62285  0.28979  1.0000
  C   C169      1.0  0.99331  0.95455  0.15813  1.0000
  C   C170      1.0  0.15686  0.50784  0.27118  1.0000
  H   H171      1.0  0.28852  0.74491  0.45219  1.0000
  S   S60       1.0  0.14045  0.52919  0.47120  1.0000
  H   H172      1.0  0.09401  0.64436  0.14141  1.0000
  H   H173      1.0  0.04111  0.78456  0.25319  1.0000
  C   C171      1.0  0.12106  0.58512  0.14938  1.0000
  C   C172      1.0  0.00141  0.73950  0.23857  1.0000
  H   H174      1.0  0.09633  0.59045  0.16200  1.0000
  C   C173      1.0  0.22387  0.63971  0.47926  1.0000
  C   C174      1.0  0.30109  0.58720  0.33289  1.0000
  C   C175      1.0  0.01716  0.77402  0.26836  1.0000
  H   H175      1.0  0.17605  0.50998  0.24055  1.0000
  C   C176      1.0  0.00286  0.75752  0.26310  1.0000
  C   C177      1.0  0.29235  0.73609  0.47242  1.0000
  H   H176      1.0  0.14559  0.58734  0.13489  1.0000
  H   H177      1.0  0.99214  0.83203  0.22435  1.0000
  C   C178      1.0  0.97861  0.82812  0.26321  1.0000
  H   H178      1.0  0.99586  0.97322  0.22724  1.0000
  H   H179      1.0  0.14302  0.64198  0.11559  1.0000
  H   H180      1.0  0.03058  0.96615  0.07306  1.0000
  H   H181      1.0  0.99400  0.93391  0.14444  1.0000
  C   C179      1.0  0.99450  0.97638  0.20483  1.0000
  H   H182      1.0  0.29320  0.60409  0.32276  1.0000
  H   H183      1.0  0.21329  0.64917  0.46931  1.0000
  H   H184      1.0  0.99545  0.96894  0.10522  1.0000
  S   S61       1.0  0.30672  0.58420  0.45983  1.0000
  C   C180      1.0  0.29132  0.70328  0.16102  1.0000
  C   C181      1.0  0.25325  0.63533  0.48134  1.0000
  H   H185      1.0  0.99005  0.72766  0.23413  1.0000
  C   C182      1.0  0.29933  0.73077  0.17006  1.0000
  H   H186      1.0  0.98190  0.75972  0.03291  1.0000
  H   H187      1.0  0.28795  0.62719  0.36822  1.0000
  S   S62       1.0  0.98037  0.77965  0.18836  1.0000
  S   S63       1.0  0.13386  0.62167  0.47235  1.0000
  C   C183      1.0  0.99440  0.82221  0.99291  1.0000
  C   C184      1.0  0.98312  0.77534  0.01496  1.0000
  C   C185      1.0  0.99003  0.98907  0.11702  1.0000
  H   H188      1.0  0.26961  0.71381  0.48173  1.0000
  C   C186      1.0  0.99070  0.77783  0.48656  1.0000
  C   C187      1.0  0.30804  0.74146  0.48152  1.0000
  H   H189      1.0  0.19810  0.55213  0.48291  1.0000
  N   N17       1.0  0.19073  0.50348  0.48745  1.0000
  C   C188      1.0  0.99744  0.79509  0.50899  1.0000
  H   H190      1.0  0.01747  0.80124  0.93466  1.0000
  C   C189      1.0  0.01332  0.78982  0.91558  1.0000
  Fe  Fe31      1.0  0.01743  0.82567  0.57406  1.0000
  S   S64       1.0  0.04384  0.83574  0.56980  1.0000
  S   S65       1.0  0.99876  0.84675  0.54510  1.0000
  Fe  Fe32      1.0  0.02097  0.79485  0.63239  1.0000
  S   S66       1.0  0.04805  0.80174  0.63193  1.0000
  S   S67       1.0  0.00253  0.77496  0.66430  1.0000
  Fe  Fe33      1.0  0.04261  0.85073  0.61471  1.0000
  S   S68       1.0  0.05320  0.89635  0.63247  1.0000
  Fe  Fe34      1.0  0.04751  0.78574  0.58650  1.0000
  S   S69       1.0  0.06504  0.75629  0.55905  1.0000
  S   S70       1.0  0.01600  0.84459  0.61787  1.0000
  S   S71       1.0  0.02072  0.77507  0.58809  1.0000
  Fe  Fe35      1.0  0.14306  0.64345  0.51242  1.0000
  H   H191      1.0  0.08136  0.86409  0.51927  1.0000
  S   S72       1.0  0.12755  0.66713  0.54700  1.0000
  C   C190      1.0  0.10431  0.56560  0.51194  1.0000
  H   H192      1.0  0.01090  0.80393  0.84552  1.0000
  H   H193      1.0  0.04820  0.96277  0.54804  1.0000
  C   C191      1.0  0.08428  0.87690  0.58938  1.0000
  C   C192      1.0  0.97952  0.73584  0.57479  1.0000
  S   S73       1.0  0.15681  0.59880  0.52389  1.0000
  H   H194      1.0  0.99337  0.73116  0.94556  1.0000
  C   C193      1.0  0.08302  0.85917  0.54137  1.0000
  H   H195      1.0  0.18350  0.54444  0.51019  1.0000
  H   H196      1.0  0.15642  0.51553  0.52440  1.0000
  C   C194      1.0  0.00620  0.93912  0.54491  1.0000
  H   H197      1.0  0.00725  0.75834  0.96136  1.0000
  H   H198      1.0  0.27625  0.69336  0.55384  1.0000
  C   C195      1.0  0.00544  0.74242  0.94296  1.0000
  S   S74       1.0  0.99072  0.78887  0.79712  1.0000
  H   H199      1.0  0.07989  0.85418  0.64076  1.0000
  C   C196      1.0  0.23612  0.60856  0.51580  1.0000
  C   C197      1.0  0.27551  0.68676  0.53137  1.0000
  H   H200      1.0  0.01344  0.95752  0.61298  1.0000
  C   C198      1.0  0.05098  0.93268  0.61411  1.0000
  C   C199      1.0  0.04957  0.93320  0.58495  1.0000
  C   C200      1.0  0.22218  0.62046  0.50307  1.0000
  N   N18       1.0  0.08634  0.84612  0.59814  1.0000
  C   C201      1.0  0.05139  0.96168  0.62886  1.0000
  H   H201      1.0  0.04917  0.91105  0.57337  1.0000
  H   H202      1.0  0.05255  0.96147  0.65142  1.0000
  C   C202      1.0  0.08264  0.73192  0.55630  1.0000
  C   C203      1.0  0.08835  0.72322  0.52953  1.0000
  C   C204      1.0  0.10217  0.70409  0.52617  1.0000
  C   C205      1.0  0.11049  0.69300  0.54962  1.0000
  C   C206      1.0  0.10480  0.70177  0.57639  1.0000
  C   C207      1.0  0.09107  0.72115  0.57974  1.0000
  H   H203      1.0  0.08203  0.73137  0.51117  1.0000
  H   H204      1.0  0.98707  0.83099  0.94997  1.0000
  H   H205      1.0  0.11105  0.69343  0.59476  1.0000
  H   H206      1.0  0.08691  0.72739  0.60050  1.0000
  C   C208      1.0  0.00246  0.76151  0.86664  1.0000
  C   C209      1.0  0.99170  0.82543  0.51558  1.0000
  C   C210      1.0  0.98079  0.77959  0.74154  1.0000
  H   H207      1.0  0.00689  0.78471  0.52138  1.0000
  C   C211      1.0  0.08247  0.88388  0.56093  1.0000
  C   C212      1.0  0.00552  0.97025  0.53429  1.0000
  H   H208      1.0  0.09859  0.56632  0.49160  1.0000
  H   H209      1.0  0.08499  0.61484  0.50756  1.0000
  H   H210      1.0  0.08903  0.79743  0.58585  1.0000
  C   C213      1.0  0.99323  0.78827  0.75974  1.0000
  C   C214      1.0  0.98007  0.76055  0.59448  1.0000
  C   C215      1.0  0.01147  0.79207  0.71897  1.0000
  C   C216      1.0  0.99915  0.78238  0.70089  1.0000
  C   C217      1.0  0.11220  0.53780  0.52003  1.0000
  Fe  Fe36      1.0  0.17799  0.62013  0.50024  1.0000
  H   H211      1.0  0.26212  0.60632  0.51499  1.0000
  H   H212      1.0  0.27853  0.66116  0.52887  1.0000
  H   H213      1.0  0.09170  0.63489  0.53856  1.0000
  C   C218      1.0  0.12030  0.56398  0.56269  1.0000
  H   H214      1.0  0.08371  0.89622  0.60449  1.0000
  C   C219      1.0  0.30200  0.71120  0.52336  1.0000
  S   S75       1.0  0.20305  0.61111  0.51810  1.0000
  H   H215      1.0  0.99502  0.72277  0.89326  1.0000
  H   H216      1.0  0.02339  0.79658  0.71064  1.0000
  H   H217      1.0  0.01476  0.72368  0.94334  1.0000
  C   C220      1.0  0.00978  0.79157  0.86546  1.0000
  H   H218      1.0  0.23497  0.59368  0.53424  1.0000
  C   C221      1.0  0.97941  0.83858  0.49929  1.0000
  C   C222      1.0  0.01510  0.80603  0.89009  1.0000
  H   H219      1.0  0.10079  0.84485  0.63451  1.0000
  H   H220      1.0  0.12682  0.51587  0.55157  1.0000
  C   C223      1.0  0.08554  0.82797  0.55042  1.0000
  C   C224      1.0  0.08827  0.83944  0.62806  1.0000
  N   N19       1.0  0.10399  0.59158  0.52927  1.0000
  H   H221      1.0  0.08041  0.90825  0.55423  1.0000
  H   H222      1.0  0.08540  0.81408  0.63303  1.0000
  H   H223      1.0  0.10633  0.69789  0.50540  1.0000
  H   H224      1.0  0.99794  0.75054  0.84758  1.0000
  H   H225      1.0  0.00490  0.91861  0.53115  1.0000
  H   H226      1.0  0.02041  0.82976  0.88943  1.0000
  C   C225      1.0  0.08726  0.82186  0.57905  1.0000
  N   N20       1.0  0.00633  0.76013  0.91648  1.0000
  H   H227      1.0  0.08578  0.80840  0.53551  1.0000
  C   C226      1.0  0.00082  0.74604  0.89248  1.0000
  H   H228      1.0  0.01836  0.80103  0.76188  1.0000
  C   C227      1.0  0.19431  0.53492  0.49946  1.0000
  C   C228      1.0  0.00881  0.93448  0.57344  1.0000
  H   H229      1.0  0.12683  0.56399  0.58228  1.0000
  C   C229      1.0  0.98379  0.77626  0.71246  1.0000
  C   C230      1.0  0.12032  0.53709  0.54547  1.0000
  C   C231      1.0  0.04903  0.96253  0.57064  1.0000
  C   C232      1.0  0.00857  0.79453  0.74815  1.0000
  C   C233      1.0  0.25156  0.61576  0.50495  1.0000
  H   H230      1.0  0.00969  0.91044  0.58179  1.0000
  H   H231      1.0  0.98486  0.71296  0.57951  1.0000
  C   C234      1.0  0.01076  0.96086  0.59095  1.0000
  H   H232      1.0  0.97972  0.83785  0.59863  1.0000
  S   S76       1.0  0.16499  0.66616  0.49210  1.0000
  H   H233      1.0  0.10414  0.63567  0.50766  1.0000
  H   H234      1.0  0.97896  0.95212  0.81514  1.0000
  H   H235      1.0  0.11211  0.61205  0.56767  1.0000
  H   H236      1.0  0.11244  0.51724  0.50620  1.0000
  C   C235      1.0  0.11198  0.59116  0.55425  1.0000
  N   N21       1.0  0.28656  0.70639  0.51444  1.0000
  H   H237      1.0  0.98575  0.75630  0.61453  1.0000
  H   H238      1.0  0.00376  0.97369  0.51201  1.0000
  C   C236      1.0  0.98587  0.81530  0.96787  1.0000
  H   H239      1.0  0.26281  0.68956  0.52468  1.0000
  C   C237      1.0  0.15318  0.49320  0.51448  1.0000
  S   S77       1.0  0.30758  0.61804  0.52210  1.0000
  H   H240      1.0  0.30607  0.70080  0.54287  1.0000
  H   H241      1.0  0.20428  0.53410  0.51483  1.0000
  H   H242      1.0  0.98107  0.94582  0.77774  1.0000
  C   C238      1.0  0.09577  0.62058  0.52028  1.0000
  H   H243      1.0  0.98279  0.81008  0.62651  1.0000
  C   C239      1.0  0.28168  0.71852  0.48930  1.0000
  H   H244      1.0  0.43112  0.19982  0.23958  1.0000
  H   H245      1.0  0.44905  0.21548  0.16922  1.0000
  Fe  Fe37      1.0  0.54554  0.14695  0.38503  1.0000
  S   S78       1.0  0.51860  0.15172  0.39114  1.0000
  S   S79       1.0  0.55996  0.19260  0.39632  1.0000
  Fe  Fe38      1.0  0.54167  0.07704  0.36646  1.0000
  S   S80       1.0  0.51506  0.07752  0.37224  1.0000
  S   S81       1.0  0.55190  0.03138  0.34817  1.0000
  Fe  Fe39      1.0  0.51585  0.12490  0.35015  1.0000
  S   S82       1.0  0.49503  0.13173  0.31901  1.0000
  Fe  Fe40      1.0  0.51993  0.10395  0.41212  1.0000
  S   S83       1.0  0.50819  0.08520  0.45205  1.0000
  S   S84       1.0  0.54254  0.12355  0.34237  1.0000
  S   S85       1.0  0.54682  0.10009  0.40808  1.0000
  Fe  Fe41      1.0  0.43324  0.15541  0.13794  1.0000
  S   S86       1.0  0.45909  0.16602  0.12456  1.0000
  S   S87       1.0  0.41742  0.19860  0.15121  1.0000
  Fe  Fe42      1.0  0.43960  0.08315  0.13517  1.0000
  S   S88       1.0  0.46543  0.08940  0.12282  1.0000
  S   S89       1.0  0.42698  0.03476  0.13872  1.0000
  Fe  Fe43      1.0  0.46586  0.12793  0.15593  1.0000
  S   S90       1.0  0.48756  0.13401  0.18523  1.0000
  Fe  Fe44      1.0  0.45685  0.12659  0.09212  1.0000
  S   S91       1.0  0.46438  0.11870  0.04521  1.0000
  S   S92       1.0  0.44048  0.11910  0.17036  1.0000
  S   S93       1.0  0.43057  0.11860  0.10350  1.0000
  Fe  Fe45      1.0  0.33112  0.28427  0.20329  1.0000
  S   S94       1.0  0.34329  0.32871  0.21938  1.0000
  S   S95       1.0  0.34508  0.24074  0.18560  1.0000
  Fe  Fe46      1.0  0.32205  0.35555  0.20281  1.0000
  H   H246      1.0  0.34078  0.45702  0.45276  1.0000
  Fe  Fe47      1.0  0.32789  0.32157  0.25769  1.0000
  H   H247      1.0  0.46805  0.08830  0.99101  1.0000
  N   N22       1.0  0.61178  0.43909  0.47455  1.0000
  C   C240      1.0  0.31541  0.29516  0.32658  1.0000
  H   H248      1.0  0.54014  0.01459  0.40388  1.0000
  S   S96       1.0  0.62806  0.23360  0.45002  1.0000
  C   C241      1.0  0.33013  0.31123  0.32903  1.0000
  H   H249      1.0  0.34042  0.40145  0.41226  1.0000
  C   C242      1.0  0.36521  0.26470  0.25629  1.0000
  H   H250      1.0  0.36182  0.26539  0.23381  1.0000
  H   H251      1.0  0.35776  0.27097  0.31033  1.0000
  C   C243      1.0  0.33740  0.31397  0.35535  1.0000
  S   S97       1.0  0.33967  0.32847  0.29973  1.0000
  C   C244      1.0  0.47878  0.20484  0.23013  1.0000
  H   H252      1.0  0.34882  0.32634  0.35734  1.0000
  S   S98       1.0  0.33750  0.30236  0.46216  1.0000
  C   C245      1.0  0.32359  0.43946  0.19883  1.0000
  H   H253      1.0  0.32374  0.46865  0.16163  1.0000
  C   C246      1.0  0.45734  0.21272  0.18650  1.0000
  C   C247      1.0  0.48460  0.21206  0.20341  1.0000
  C   C248      1.0  0.49226  0.04638  0.31853  1.0000
  C   C249      1.0  0.39720  0.20946  0.16114  1.0000
  C   C250      1.0  0.39408  0.24118  0.16943  1.0000
  C   C251      1.0  0.37840  0.25116  0.17713  1.0000
  C   C252      1.0  0.36539  0.22961  0.17657  1.0000
  C   C253      1.0  0.36855  0.19782  0.16859  1.0000
  C   C254      1.0  0.38424  0.18780  0.16105  1.0000
  H   H254      1.0  0.40385  0.25841  0.16949  1.0000
  H   H255      1.0  0.37636  0.27574  0.18290  1.0000
  H   H256      1.0  0.35871  0.18076  0.16792  1.0000
  H   H257      1.0  0.38624  0.16336  0.15476  1.0000
  C   C255      1.0  0.47384  0.21609  0.18142  1.0000
  H   H258      1.0  0.46100  0.01823  0.13781  1.0000
  H   H259      1.0  0.47827  0.22081  0.16040  1.0000
  C   C256      1.0  0.49344  0.13073  0.28169  1.0000
  C   C257      1.0  0.50675  0.13470  0.26394  1.0000
  C   C258      1.0  0.50473  0.13491  0.23456  1.0000
  C   C259      1.0  0.48945  0.13086  0.22240  1.0000
  C   C260      1.0  0.47618  0.12626  0.24015  1.0000
  C   C261      1.0  0.47816  0.12650  0.26954  1.0000
  H   H260      1.0  0.51856  0.13829  0.27282  1.0000
  H   H261      1.0  0.51509  0.13864  0.22112  1.0000
  H   H262      1.0  0.46435  0.12314  0.23122  1.0000
  H   H263      1.0  0.46776  0.12346  0.28299  1.0000
  C   C262      1.0  0.43443  0.20050  0.21704  1.0000
  H   H264      1.0  0.48689  0.17203  0.03126  1.0000
  H   H265      1.0  0.53476  0.21001  0.43729  1.0000
  H   H266      1.0  0.36518  0.28986  0.26377  1.0000
  H   H267      1.0  0.31479  0.37479  0.42449  1.0000
  C   C263      1.0  0.31776  0.37865  0.40259  1.0000
  C   C264      1.0  0.60879  0.22276  0.43597  1.0000
  C   C265      1.0  0.59699  0.24525  0.42986  1.0000
  C   C266      1.0  0.58224  0.23551  0.41774  1.0000
  C   C267      1.0  0.57892  0.20316  0.41174  1.0000
  C   C268      1.0  0.59060  0.18059  0.41829  1.0000
  C   C269      1.0  0.60543  0.19037  0.43011  1.0000
  H   H268      1.0  0.59932  0.27023  0.43402  1.0000
  H   H269      1.0  0.57337  0.25330  0.41273  1.0000
  H   H270      1.0  0.58836  0.15565  0.41380  1.0000
  H   H271      1.0  0.61442  0.17266  0.43461  1.0000
  H   H272      1.0  0.43054  0.17769  0.20716  1.0000
  H   H273      1.0  0.49745  0.21328  0.19952  1.0000
  H   H274      1.0  0.48709  0.20056  0.24715  1.0000
  H   H275      1.0  0.61543  0.46946  0.43913  1.0000
  C   C270      1.0  0.47623  0.12918  0.01456  1.0000
  S   S99       1.0  0.62847  0.32517  0.48269  1.0000
  C   C271      1.0  0.48435  0.02895  0.33956  1.0000
  S   S100      1.0  0.33555  0.39273  0.47153  1.0000
  N   N23       1.0  0.50736  0.03815  0.30991  1.0000
  H   H276      1.0  0.47258  0.05297  0.05998  1.0000
  Fe  Fe48      1.0  0.63971  0.27907  0.46880  1.0000
  C   C272      1.0  0.46361  0.03413  0.06247  1.0000
  C   C273      1.0  0.61086  0.44513  0.44436  1.0000
  C   C274      1.0  0.54872  0.15612  0.46520  1.0000
  C   C275      1.0  0.51590  0.05847  0.28961  1.0000
  H   H277      1.0  0.55784  0.15933  0.44907  1.0000
  C   C276      1.0  0.44733  0.04177  0.06441  1.0000
  H   H278      1.0  0.34767  0.41018  0.36211  1.0000
  C   C277      1.0  0.48614  0.15644  0.01326  1.0000
  Fe  Fe49      1.0  0.31288  0.28671  0.44934  1.0000
  H   H279      1.0  0.55357  0.21762  0.45463  1.0000
  S   S101      1.0  0.32276  0.40307  0.17985  1.0000
  C   C278      1.0  0.32348  0.43981  0.22812  1.0000
  H   H280      1.0  0.47258  0.03619  0.34687  1.0000
  H   H281      1.0  0.32878  0.18160  0.26496  1.0000
  C   C279      1.0  0.32981  0.30134  0.37929  1.0000
  N   N24       1.0  0.35388  0.24499  0.27252  1.0000
  C   C280      1.0  0.35148  0.25125  0.30033  1.0000
  C   C281      1.0  0.34621  0.21970  0.26009  1.0000
  C   C282      1.0  0.34053  0.23305  0.31611  1.0000
  C   C283      1.0  0.33513  0.20107  0.27518  1.0000
  C   C284      1.0  0.33219  0.20801  0.30332  1.0000
  N   N25       1.0  0.45173  0.20534  0.21271  1.0000
  H   H282      1.0  0.34845  0.21410  0.23825  1.0000
  H   H283      1.0  0.33830  0.23880  0.33796  1.0000
  H   H284      1.0  0.41746  0.05102  0.07914  1.0000
  H   H285      1.0  0.52687  0.00606  0.31488  1.0000
  C   C285      1.0  0.54067  0.21152  0.45810  1.0000
  H   H286      1.0  0.50796  0.06448  0.27175  1.0000
  C   C286      1.0  0.50728  0.99440  0.34250  1.0000
  H   H287      1.0  0.37751  0.25496  0.25793  1.0000
  H   H288      1.0  0.48644  0.06708  0.30968  1.0000
  H   H289      1.0  0.45789  0.19426  0.25498  1.0000
  N   N26       1.0  0.43595  0.01835  0.06817  1.0000
  H   H290      1.0  0.51977  0.08099  0.30001  1.0000
  H   H291      1.0  0.49694  0.15127  0.45250  1.0000
  H   H292      1.0  0.42759  0.22014  0.20710  1.0000
  S   S102      1.0  0.31644  0.27609  0.24294  1.0000
  H   H293      1.0  0.61466  0.38896  0.46935  1.0000
  H   H294      1.0  0.55428  0.10637  0.47132  1.0000
  H   H295      1.0  0.41234  0.01023  0.08434  1.0000
  C   C287      1.0  0.46221  0.20117  0.23438  1.0000
  H   H296      1.0  0.52680  0.04677  0.28108  1.0000
  C   C288      1.0  0.41892  0.02679  0.07000  1.0000
  C   C289      1.0  0.33629  0.39896  0.36771  1.0000
  C   C290      1.0  0.49220  0.13907  0.47077  1.0000
  H   H297      1.0  0.32356  0.41758  0.23958  1.0000
  C   C291      1.0  0.47559  0.10946  0.99055  1.0000
  H   H298      1.0  0.44388  0.06663  0.06323  1.0000
  C   C292      1.0  0.33367  0.45816  0.47175  1.0000
  C   C293      1.0  0.46820  0.00227  0.06408  1.0000
  C   C294      1.0  0.61347  0.40851  0.48407  1.0000
  H   H299      1.0  0.41341  0.02611  0.04892  1.0000
  H   H300      1.0  0.32346  0.19409  0.31523  1.0000
  C   C295      1.0  0.32338  0.46903  0.24266  1.0000
  C   C296      1.0  0.49550  0.10674  0.47487  1.0000
  C   C297      1.0  0.32362  0.46867  0.18429  1.0000
  H   H301      1.0  0.33539  0.30390  0.39956  1.0000
  C   C298      1.0  0.32568  0.38907  0.34685  1.0000
  C   C299      1.0  0.51483  0.01238  0.32143  1.0000
  S   S103      1.0  0.31059  0.31177  0.18331  1.0000
  H   H302      1.0  0.32341  0.46900  0.26530  1.0000
  C   C300      1.0  0.33229  0.39391  0.39578  1.0000
  C   C301      1.0  0.43718  0.99784  0.13762  1.0000
  H   H303      1.0  0.59826  0.44257  0.43719  1.0000
  H   H304      1.0  0.32886  0.39212  0.32490  1.0000
  H   H305      1.0  0.61855  0.42816  0.43252  1.0000
  C   C302      1.0  0.54199  0.99280  0.39219  1.0000
  C   C303      1.0  0.54684  0.12616  0.47779  1.0000
  C   C304      1.0  0.31508  0.28530  0.37689  1.0000
  C   C305      1.0  0.32928  0.48812  0.48262  1.0000
  N   N27       1.0  0.53900  0.18086  0.47265  1.0000
  C   C306      1.0  0.31126  0.37383  0.35441  1.0000
  C   C307      1.0  0.49198  0.00291  0.35171  1.0000
  C   C308      1.0  0.32904  0.42971  0.48538  1.0000
  H   H306      1.0  0.53529  0.23134  0.47024  1.0000
  Fe  Fe50      1.0  0.32529  0.34374  0.48314  1.0000
  C   C309      1.0  0.45395  0.99644  0.13686  1.0000
  H   H307      1.0  0.48073  0.18091  0.48774  1.0000
  C   C310      1.0  0.54762  0.99432  0.36460  1.0000
  H   H308      1.0  0.48081  0.99609  0.06315  1.0000
  H   H309      1.0  0.30973  0.29293  0.30633  1.0000
  H   H310      1.0  0.60953  0.48825  0.48556  1.0000
  Fe  Fe51      1.0  0.54032  0.13924  0.84328  1.0000
  S   S104      1.0  0.51957  0.17150  0.85350  1.0000
  S   S105      1.0  0.56538  0.15437  0.82516  1.0000
  Fe  Fe52      1.0  0.51869  0.07908  0.85167  1.0000
  S   S106      1.0  0.49681  0.10857  0.86141  1.0000
  S   S107      1.0  0.51133  0.02645  0.85294  1.0000
  Fe  Fe53      1.0  0.50484  0.13938  0.82526  1.0000
  S   S108      1.0  0.48853  0.16269  0.79256  1.0000
  Fe  Fe54      1.0  0.51309  0.13740  0.88919  1.0000
  S   S109      1.0  0.50570  0.15563  0.93362  1.0000
  S   S110      1.0  0.52557  0.10835  0.81377  1.0000
  S   S111      1.0  0.53492  0.10689  0.88073  1.0000
  H   H311      1.0  0.47063  0.18959  0.74686  1.0000
  H   H312      1.0  0.42529  0.00938  0.63033  1.0000
  S   S112      1.0  0.63250  0.31296  0.72928  1.0000
  S   S113      1.0  0.61443  0.27190  0.79814  1.0000
  C   C311      1.0  0.37455  0.10933  0.57575  1.0000
  Fe  Fe55      1.0  0.44908  0.11577  0.63636  1.0000
  S   S114      1.0  0.42379  0.09693  0.62938  1.0000
  S   S115      1.0  0.46290  0.10330  0.67665  1.0000
  Fe  Fe56      1.0  0.45232  0.13552  0.57415  1.0000
  S   S116      1.0  0.42769  0.11742  0.56326  1.0000
  S   S117      1.0  0.46609  0.16214  0.54008  1.0000
  Fe  Fe57      1.0  0.41981  0.14115  0.60289  1.0000
  S   S118      1.0  0.39729  0.17254  0.60533  1.0000
  Fe  Fe58      1.0  0.43374  0.07497  0.59008  1.0000
  S   S119      1.0  0.42916  0.02599  0.57091  1.0000
  S   S120      1.0  0.44433  0.16167  0.61300  1.0000
  S   S121      1.0  0.45907  0.09141  0.59778  1.0000
  H   H313      1.0  0.44938  0.11498  0.86736  1.0000
  H   H314      1.0  0.48198  0.23642  0.88830  1.0000
  S   S122      1.0  0.35426  0.24023  0.51152  1.0000
  C   C312      1.0  0.51903  0.16611  0.74251  1.0000
  H   H315      1.0  0.44041  0.22165  0.56387  1.0000
  H   H316      1.0  0.50255  0.18505  0.98815  1.0000
  C   C313      1.0  0.54436  0.14700  0.75730  1.0000
  C   C314      1.0  0.39150  0.06443  0.56540  1.0000
  C   C315      1.0  0.53490  0.12160  0.49804  1.0000
  C   C316      1.0  0.39811  0.27000  0.56292  1.0000
  C   C317      1.0  0.36693  0.12248  0.62423  1.0000
  C   C318      1.0  0.48466  0.11664  0.96598  1.0000
  H   H317      1.0  0.39192  0.28083  0.58050  1.0000
  H   H318      1.0  0.60913  0.46938  0.75573  1.0000
  C   C319      1.0  0.47691  0.14020  0.51469  1.0000
  C   C320      1.0  0.47992  0.10773  0.51841  1.0000
  C   C321      1.0  0.48926  0.09116  0.49867  1.0000
  H   H319      1.0  0.43639  0.20161  0.53150  1.0000
  H   H320      1.0  0.47528  0.09551  0.53673  1.0000
  H   H321      1.0  0.35651  0.10924  0.63324  1.0000
  H   H322      1.0  0.36779  0.12966  0.56841  1.0000
  C   C322      1.0  0.38497  0.18989  0.57892  1.0000
  C   C323      1.0  0.37257  0.21065  0.58698  1.0000
  C   C324      1.0  0.36277  0.22566  0.56685  1.0000
  C   C325      1.0  0.36518  0.21995  0.53825  1.0000
  C   C326      1.0  0.37732  0.19849  0.53027  1.0000
  C   C327      1.0  0.38718  0.18366  0.55037  1.0000
  H   H323      1.0  0.37066  0.21563  0.60898  1.0000
  H   H324      1.0  0.35352  0.24203  0.57343  1.0000
  Fe  Fe59      1.0  0.33321  0.27455  0.50214  1.0000
  H   H325      1.0  0.39655  0.16761  0.54371  1.0000
  H   H326      1.0  0.38270  0.29100  0.53187  1.0000
  H   H327      1.0  0.45365  0.12617  0.91809  1.0000
  H   H328      1.0  0.55253  0.10340  0.73814  1.0000
  C   C328      1.0  0.39297  0.27580  0.53564  1.0000
  H   H329      1.0  0.37929  0.19377  0.50825  1.0000
  H   H330      1.0  0.51911  0.19575  0.49772  1.0000
  H   H331      1.0  0.38449  0.07144  0.63512  1.0000
  C   C329      1.0  0.43070  0.21075  0.55101  1.0000
  H   H332      1.0  0.37529  0.12969  0.64126  1.0000
  C   C330      1.0  0.63981  0.30942  0.64477  1.0000
  H   H333      1.0  0.55502  0.14941  0.77012  1.0000
  H   H334      1.0  0.63768  0.27559  0.87033  1.0000
  C   C331      1.0  0.49454  0.14397  0.96471  1.0000
  C   C332      1.0  0.41317  0.23966  0.51854  1.0000
  N   N28       1.0  0.53222  0.16866  0.75937  1.0000
  H   H335      1.0  0.48396  0.10103  0.94799  1.0000
  C   C333      1.0  0.62813  0.47952  0.69312  1.0000
  C   C334      1.0  0.57851  0.18782  0.81715  1.0000
  C   C335      1.0  0.59225  0.18296  0.80024  1.0000
  C   C336      1.0  0.60308  0.20829  0.79358  1.0000
  C   C337      1.0  0.60055  0.23910  0.80407  1.0000
  C   C338      1.0  0.58682  0.24393  0.82100  1.0000
  C   C339      1.0  0.57584  0.21873  0.82726  1.0000
  H   H336      1.0  0.59456  0.15931  0.79221  1.0000
  H   H337      1.0  0.61348  0.20385  0.78054  1.0000
  H   H338      1.0  0.58465  0.26746  0.82944  1.0000
  H   H339      1.0  0.56548  0.22316  0.84040  1.0000
  H   H340      1.0  0.53285  0.09814  0.50709  1.0000
  C   C340      1.0  0.53362  0.19555  0.77886  1.0000
  H   H341      1.0  0.54558  0.01171  0.84503  1.0000
  C   C341      1.0  0.48105  0.14548  0.76083  1.0000
  C   C342      1.0  0.48360  0.11350  0.75379  1.0000
  C   C343      1.0  0.47787  0.10116  0.72811  1.0000
  C   C344      1.0  0.46952  0.12047  0.70898  1.0000
  C   C345      1.0  0.46699  0.15247  0.71603  1.0000
  C   C346      1.0  0.47269  0.16481  0.74176  1.0000
  H   H342      1.0  0.49001  0.09822  0.76809  1.0000
  H   H343      1.0  0.47992  0.07637  0.72302  1.0000
  H   H344      1.0  0.46062  0.16771  0.70166  1.0000
  H   H345      1.0  0.51551  0.14343  0.52087  1.0000
  C   C347      1.0  0.51743  0.14063  0.72378  1.0000
  C   C348      1.0  0.38274  0.09059  0.55619  1.0000
  C   C349      1.0  0.32047  0.48992  0.50759  1.0000
  C   C350      1.0  0.31993  0.43151  0.51001  1.0000
  H   H346      1.0  0.48534  0.21801  0.92184  1.0000
  H   H347      1.0  0.49838  0.20884  0.89325  1.0000
  H   H348      1.0  0.62896  0.34860  0.62275  1.0000
  C   C351      1.0  0.61440  0.40222  0.51282  1.0000
  C   C352      1.0  0.62025  0.46379  0.71519  1.0000
  H   H349      1.0  0.41420  0.24330  0.58880  1.0000
  H   H350      1.0  0.39621  0.26421  0.49211  1.0000
  H   H351      1.0  0.46211  0.15043  0.83164  1.0000
  H   H352      1.0  0.49178  0.06617  0.50196  1.0000
  H   H353      1.0  0.63794  0.31976  0.66526  1.0000
  C   C353      1.0  0.61464  0.48143  0.73793  1.0000
  C   C354      1.0  0.31583  0.46150  0.52120  1.0000
  C   C355      1.0  0.41072  0.24881  0.56746  1.0000
  N   N29       1.0  0.47533  0.18730  0.89036  1.0000
  C   C356      1.0  0.47316  0.18120  0.86248  1.0000
  C   C357      1.0  0.46828  0.16803  0.91016  1.0000
  C   C358      1.0  0.46359  0.15543  0.85380  1.0000
  H   H354      1.0  0.61458  0.42285  0.55406  1.0000
  C   C359      1.0  0.40055  0.26063  0.51327  1.0000
  C   C360      1.0  0.48570  0.21407  0.89880  1.0000
  H   H355      1.0  0.47905  0.19596  0.84671  1.0000
  H   H356      1.0  0.47025  0.17241  0.93228  1.0000
  C   C361      1.0  0.45884  0.14178  0.90224  1.0000
  Fe  Fe60      1.0  0.63635  0.28738  0.77045  1.0000
  H   H357      1.0  0.46823  0.02545  0.55834  1.0000
  H   H358      1.0  0.63756  0.29668  0.83745  1.0000
  H   H359      1.0  0.41872  0.22737  0.50107  1.0000
  H   H360      1.0  0.39884  0.03708  0.60124  1.0000
  H   H361      1.0  0.52163  0.20212  0.78736  1.0000
  C   C362      1.0  0.38381  0.07679  0.61292  1.0000
  C   C363      1.0  0.45647  0.13552  0.87385  1.0000
  S   S123      1.0  0.63243  0.33532  0.56406  1.0000
  H   H362      1.0  0.42553  0.19003  0.56256  1.0000
  H   H363      1.0  0.64024  0.41371  0.78580  1.0000
  S   S124      1.0  0.32255  0.31750  0.52423  1.0000
  H   H364      1.0  0.47820  0.99853  0.53486  1.0000
  C   C364      1.0  0.39196  0.05730  0.59391  1.0000
  C   C365      1.0  0.52944  0.11774  0.72234  1.0000
  C   C366      1.0  0.61143  0.45847  0.52190  1.0000
  H   H365      1.0  0.36260  0.14500  0.61467  1.0000
  H   H366      1.0  0.39808  0.04982  0.55055  1.0000
  C   C367      1.0  0.63751  0.31292  0.59396  1.0000
  N   N30       1.0  0.37536  0.10255  0.60375  1.0000
  H   H367      1.0  0.50948  0.18347  0.74391  1.0000
  H   H368      1.0  0.61915  0.43792  0.71524  1.0000
  H   H369      1.0  0.45643  0.99914  0.53701  1.0000
  H   H370      1.0  0.52816  0.09749  0.70834  1.0000
  C   C368      1.0  0.54307  0.12100  0.73905  1.0000
  H   H371      1.0  0.53916  0.21643  0.76808  1.0000
  H   H372      1.0  0.50675  0.13836  0.71091  1.0000
  H   H373      1.0  0.54119  0.18934  0.79714  1.0000
  N   N31       1.0  0.41808  0.23399  0.54540  1.0000
  H   H374      1.0  0.38239  0.09649  0.53408  1.0000
  C   C369      1.0  0.52513  0.14701  0.50569  1.0000
  H   H375      1.0  0.63282  0.46543  0.67594  1.0000
  C   C370      1.0  0.63474  0.32572  0.62068  1.0000
  C   C371      1.0  0.46774  0.00104  0.54921  1.0000
  H   H376      1.0  0.46381  0.00881  0.60455  1.0000
  C   C372      1.0  0.61345  0.42742  0.53179  1.0000
  H   H377      1.0  0.63687  0.46509  0.81120  1.0000
  C   C373      1.0  0.49507  0.16379  0.98860  1.0000
  H   H378      1.0  0.62968  0.22985  0.83850  1.0000
  H   H379      1.0  0.61620  0.37807  0.52037  1.0000
  H   H380      1.0  0.31632  0.40984  0.52075  1.0000
  C   C374      1.0  0.48305  0.15580  0.49078  1.0000
  H   H381      1.0  0.61121  0.47849  0.53631  1.0000
  Fe  Fe61      1.0  0.64257  0.31945  0.52242  1.0000
  H   H382      1.0  0.64030  0.18332  0.81296  1.0000
  H   H383      1.0  0.53135  0.99762  0.90387  1.0000
  C   C375      1.0  0.64271  0.46491  0.79090  1.0000
  C   C376      1.0  0.64225  0.22970  0.83233  1.0000
  C   C377      1.0  0.61050  0.46388  0.49304  1.0000
  C   C378      1.0  0.52720  0.17655  0.49243  1.0000
  C   C379      1.0  0.52186  0.99078  0.84598  1.0000
  H   H384      1.0  0.45319  0.76576  0.20958  1.0000
  H   H385      1.0  0.45075  0.70901  0.47133  1.0000
  S   S125      1.0  0.61543  0.68062  0.46657  1.0000
  H   H386      1.0  0.43249  0.77750  0.20880  1.0000
  Fe  Fe62      1.0  0.55043  0.78326  0.37608  1.0000
  S   S126      1.0  0.52610  0.76149  0.36636  1.0000
  S   S127      1.0  0.57349  0.75340  0.37377  1.0000
  Fe  Fe63      1.0  0.53579  0.84852  0.38918  1.0000
  S   S128      1.0  0.51068  0.83078  0.38181  1.0000
  S   S129      1.0  0.53934  0.89773  0.40834  1.0000
  Fe  Fe64      1.0  0.51800  0.78716  0.40535  1.0000
  S   S130      1.0  0.50383  0.76088  0.43915  1.0000
  Fe  Fe65      1.0  0.52069  0.80711  0.34297  1.0000
  S   S131      1.0  0.50466  0.81772  0.30474  1.0000
  S   S132      1.0  0.54244  0.80633  0.41595  1.0000
  S   S133      1.0  0.54578  0.82733  0.34957  1.0000
  Fe  Fe66      1.0  0.46879  0.78837  0.14982  1.0000
  S   S134      1.0  0.44873  0.81979  0.16333  1.0000
  S   S135      1.0  0.48632  0.76762  0.18184  1.0000
  Fe  Fe67      1.0  0.45898  0.79215  0.08662  1.0000
  S   S136      1.0  0.43761  0.82323  0.09760  1.0000
  S   S137      1.0  0.46451  0.77621  0.04064  1.0000
  Fe  Fe68      1.0  0.45492  0.84983  0.12571  1.0000
  S   S138      1.0  0.46319  0.90197  0.12843  1.0000
  Fe  Fe69      1.0  0.43298  0.78981  0.13467  1.0000
  S   S139      1.0  0.40955  0.77325  0.15778  1.0000
  S   S140      1.0  0.47621  0.81977  0.11363  1.0000
  S   S141      1.0  0.45322  0.75724  0.12213  1.0000
  Fe  Fe70      1.0  0.33357  0.64740  0.20357  1.0000
  S   S142      1.0  0.33822  0.62359  0.24523  1.0000
  S   S143      1.0  0.35382  0.66530  0.17318  1.0000
  C   C380      1.0  0.45475  0.78873  0.45969  1.0000
  H   H387      1.0  0.40395  0.67881  0.19486  1.0000
  Fe  Fe71      1.0  0.32052  0.58531  0.23196  1.0000
  H   H388      1.0  0.52334  0.71585  0.47561  1.0000
  C   C381      1.0  0.45666  0.75593  0.45560  1.0000
  S   S144      1.0  0.31715  0.60676  0.18923  1.0000
  Fe  Fe72      1.0  0.32895  0.61320  0.45073  1.0000
  S   S145      1.0  0.34170  0.60632  0.40941  1.0000
  H   H389      1.0  0.45021  0.67457  0.15445  1.0000
  S   S146      1.0  0.32307  0.53414  0.24785  1.0000
  H   H390      1.0  0.58951  0.86204  0.33001  1.0000
  H   H391      1.0  0.51345  0.97452  0.35212  1.0000
  H   H392      1.0  0.57576  0.65374  0.44986  1.0000
  H   H393      1.0  0.53573  0.75033  0.46835  1.0000
  C   C382      1.0  0.33485  0.62760  0.38003  1.0000
  C   C383      1.0  0.34046  0.61924  0.35329  1.0000
  C   C384      1.0  0.33406  0.63361  0.32926  1.0000
  H   H394      1.0  0.58079  0.91106  0.35521  1.0000
  C   C385      1.0  0.56586  0.66857  0.44313  1.0000
  H   H395      1.0  0.34949  0.60102  0.35110  1.0000
  H   H396      1.0  0.33821  0.62652  0.30872  1.0000
  C   C386      1.0  0.39389  0.74332  0.16106  1.0000
  C   C387      1.0  0.39228  0.71756  0.14251  1.0000
  C   C388      1.0  0.38002  0.69418  0.14661  1.0000
  C   C389      1.0  0.36920  0.69572  0.16944  1.0000
  C   C390      1.0  0.37084  0.72141  0.18804  1.0000
  C   C391      1.0  0.38299  0.74497  0.18378  1.0000
  H   H397      1.0  0.40046  0.71567  0.12492  1.0000
  H   H398      1.0  0.37897  0.67461  0.13194  1.0000
  H   H399      1.0  0.36270  0.72327  0.20568  1.0000
  H   H400      1.0  0.38399  0.76464  0.19835  1.0000
  C   C392      1.0  0.56245  0.67171  0.41469  1.0000
  C   C393      1.0  0.46164  0.96678  0.13459  1.0000
  C   C394      1.0  0.45268  0.93821  0.13283  1.0000
  C   C395      1.0  0.43591  0.93950  0.13391  1.0000
  C   C396      1.0  0.42821  0.96922  0.13640  1.0000
  H   H401      1.0  0.47462  0.96605  0.13373  1.0000
  H   H402      1.0  0.42887  0.91770  0.13268  1.0000
  C   C397      1.0  0.49905  0.80132  0.27160  1.0000
  C   C398      1.0  0.48607  0.81492  0.25714  1.0000
  C   C399      1.0  0.48185  0.80465  0.22994  1.0000
  C   C400      1.0  0.49053  0.78040  0.21677  1.0000
  C   C401      1.0  0.50327  0.76630  0.23146  1.0000
  C   C402      1.0  0.50754  0.77669  0.25863  1.0000
  H   H403      1.0  0.47938  0.83393  0.26693  1.0000
  H   H404      1.0  0.47204  0.81584  0.21905  1.0000
  H   H405      1.0  0.51005  0.74746  0.22160  1.0000
  H   H406      1.0  0.51754  0.76594  0.26936  1.0000
  C   C403      1.0  0.54159  0.93444  0.39026  1.0000
  C   C404      1.0  0.54665  0.93592  0.36230  1.0000
  C   C405      1.0  0.54989  0.96576  0.34967  1.0000
  H   H407      1.0  0.44015  0.75496  0.23821  1.0000
  C   C406      1.0  0.53924  0.96300  0.40506  1.0000
  H   H408      1.0  0.54844  0.91411  0.35065  1.0000
  H   H409      1.0  0.53536  0.96210  0.42672  1.0000
  C   C407      1.0  0.49639  0.78345  0.46758  1.0000
  C   C408      1.0  0.44030  0.98697  0.06912  1.0000
  H   H410      1.0  0.50269  0.82913  0.44979  1.0000
  C   C409      1.0  0.58555  0.73471  0.39996  1.0000
  C   C410      1.0  0.59760  0.71327  0.39159  1.0000
  C   C411      1.0  0.60707  0.69702  0.41148  1.0000
  C   C412      1.0  0.60473  0.70210  0.44018  1.0000
  C   C413      1.0  0.59290  0.72410  0.44853  1.0000
  C   C414      1.0  0.58336  0.74022  0.42866  1.0000
  H   H411      1.0  0.59952  0.70883  0.36951  1.0000
  H   H412      1.0  0.61608  0.68029  0.40458  1.0000
  H   H413      1.0  0.33636  0.71475  0.14400  1.0000
  H   H414      1.0  0.57420  0.75657  0.43560  1.0000
  H   H415      1.0  0.32345  0.52027  0.18746  1.0000
  C   C415      1.0  0.48814  0.80978  0.00889  1.0000
  C   C416      1.0  0.47612  0.78601  0.00955  1.0000
  S   S147      1.0  0.31892  0.65899  0.46730  1.0000
  H   H416      1.0  0.49063  0.82331  0.02768  1.0000
  N   N32       1.0  0.49091  0.88152  0.19807  1.0000
  C   C417      1.0  0.50009  0.87886  0.22165  1.0000
  C   C418      1.0  0.49417  0.86337  0.17498  1.0000
  C   C419      1.0  0.51278  0.85722  0.22261  1.0000
  C   C420      1.0  0.50666  0.84132  0.17529  1.0000
  C   C421      1.0  0.51598  0.83821  0.19931  1.0000
  C   C422      1.0  0.47747  0.90384  0.19714  1.0000
  H   H417      1.0  0.49740  0.89279  0.24019  1.0000
  H   H418      1.0  0.48692  0.86557  0.15632  1.0000
  H   H419      1.0  0.51959  0.85417  0.24176  1.0000
  H   H420      1.0  0.50872  0.82596  0.15735  1.0000
  H   H421      1.0  0.52530  0.82032  0.20019  1.0000
  H   H422      1.0  0.47509  0.91508  0.21778  1.0000
  H   H423      1.0  0.48002  0.92300  0.18156  1.0000
  H   H424      1.0  0.46629  0.89114  0.19059  1.0000
  C   C423      1.0  0.49702  0.81678  0.46719  1.0000
  H   H425      1.0  0.46094  0.80523  0.44571  1.0000
  Fe  Fe73      1.0  0.63705  0.64731  0.47532  1.0000
  C   C424      1.0  0.32223  0.65687  0.33188  1.0000
  C   C425      1.0  0.58817  0.83254  0.36693  1.0000
  H   H426      1.0  0.42269  0.65197  0.16197  1.0000
  H   H427      1.0  0.46432  0.74733  0.43878  1.0000
  C   C426      1.0  0.57553  0.85760  0.43905  1.0000
  H   H428      1.0  0.53206  0.72476  0.41965  1.0000
  H   H429      1.0  0.45992  0.95360  0.06911  1.0000
  N   N33       1.0  0.31561  0.68485  0.13925  1.0000
  H   H430      1.0  0.43333  0.84251  0.47253  1.0000
  H   H431      1.0  0.41522  0.97006  0.13711  1.0000
  H   H432      1.0  0.33297  0.50979  0.47196  1.0000
  C   C427      1.0  0.58686  0.86119  0.35227  1.0000
  C   C428      1.0  0.58442  0.83168  0.39551  1.0000
  H   H433      1.0  0.57412  0.83272  0.44682  1.0000
  C   C429      1.0  0.32327  0.65134  0.38270  1.0000
  C   C430      1.0  0.45648  0.97845  0.06723  1.0000
  H   H434      1.0  0.33014  0.53410  0.31601  1.0000
  C   C431      1.0  0.55705  0.68614  0.46271  1.0000
  H   H435      1.0  0.43131  0.96838  0.07228  1.0000
  H   H436      1.0  0.59182  0.81091  0.35621  1.0000
  S   S148      1.0  0.31315  0.67385  0.30223  1.0000
  H   H437      1.0  0.56395  0.86985  0.44316  1.0000
  N   N34       1.0  0.54514  0.70620  0.45416  1.0000
  C   C432      1.0  0.32331  0.49824  0.22817  1.0000
  C   C433      1.0  0.54154  0.70895  0.42636  1.0000
  N   N35       1.0  0.43611  0.72838  0.20105  1.0000
  C   C434      1.0  0.44661  0.71351  0.18332  1.0000
  C   C435      1.0  0.42105  0.71594  0.20552  1.0000
  C   C436      1.0  0.44198  0.68579  0.16903  1.0000
  C   C437      1.0  0.41609  0.68805  0.19185  1.0000
  C   C438      1.0  0.42658  0.67310  0.17329  1.0000
  C   C439      1.0  0.44075  0.75811  0.21515  1.0000
  H   H438      1.0  0.45857  0.72333  0.17974  1.0000
  H   H439      1.0  0.41259  0.72821  0.21898  1.0000
  C   C440      1.0  0.32362  0.71160  0.14829  1.0000
  H   H440      1.0  0.56966  0.65931  0.39921  1.0000
  Fe  Fe74      1.0  0.31638  0.64965  0.26030  1.0000
  H   H441      1.0  0.57433  0.90826  0.40570  1.0000
  H   H442      1.0  0.31117  0.57094  0.29369  1.0000
  H   H443      1.0  0.45472  0.84757  0.47884  1.0000
  C   C441      1.0  0.58198  0.88863  0.36636  1.0000
  H   H444      1.0  0.58540  0.80919  0.40661  1.0000
  C   C442      1.0  0.57835  0.88691  0.39495  1.0000
  C   C443      1.0  0.44918  0.73449  0.47399  1.0000
  H   H445      1.0  0.59098  0.72837  0.47063  1.0000
  C   C444      1.0  0.55019  0.69195  0.40620  1.0000
  H   H446      1.0  0.32211  0.75579  0.17131  1.0000
  C   C445      1.0  0.32341  0.49796  0.19887  1.0000
  N   N36       1.0  0.44573  0.79983  0.48158  1.0000
  N   N37       1.0  0.57938  0.85859  0.40906  1.0000
  C   C446      1.0  0.44364  0.83427  0.48517  1.0000
  H   H447      1.0  0.58518  0.86971  0.45113  1.0000
  H   H448      1.0  0.31895  0.65810  0.40321  1.0000
  C   C447      1.0  0.32227  0.54552  0.35806  1.0000
  C   C448      1.0  0.31181  0.56411  0.37410  1.0000
  H   H449      1.0  0.54776  0.69527  0.38407  1.0000
  H   H450      1.0  0.55418  0.96675  0.32826  1.0000
  C   C449      1.0  0.31562  0.73495  0.16378  1.0000
  H   H451      1.0  0.56009  0.68412  0.48469  1.0000
  H   H452      1.0  0.31653  0.75464  0.46849  1.0000
  H   H453      1.0  0.48618  0.98963  0.36852  1.0000
  H   H454      1.0  0.49052  0.86011  0.48857  1.0000
  S   S149      1.0  0.31251  0.67592  0.21967  1.0000
  C   C450      1.0  0.31707  0.66611  0.35868  1.0000
  H   H455      1.0  0.33568  0.66949  0.11460  1.0000
  H   H456      1.0  0.31675  0.65092  0.10608  1.0000
  C   C451      1.0  0.53597  0.72477  0.47464  1.0000
  C   C452      1.0  0.32196  0.54787  0.32891  1.0000
  H   H457      1.0  0.31241  0.56269  0.39676  1.0000
  H   H458      1.0  0.33085  0.53013  0.36825  1.0000
  C   C453      1.0  0.32419  0.66018  0.12357  1.0000
  H   H459      1.0  0.32722  0.64017  0.13778  1.0000
  C   C454      1.0  0.31125  0.56867  0.31626  1.0000
  Fe  Fe75      1.0  0.53448  0.84671  0.84337  1.0000
  S   S150      1.0  0.50812  0.84218  0.85174  1.0000
  S   S151      1.0  0.54781  0.89445  0.84460  1.0000
  Fe  Fe76      1.0  0.53886  0.77416  0.83740  1.0000
  S   S152      1.0  0.51217  0.76537  0.84623  1.0000
  S   S153      1.0  0.55492  0.73013  0.82818  1.0000
  Fe  Fe77      1.0  0.50806  0.80644  0.81617  1.0000
  S   S154      1.0  0.48851  0.81568  0.78304  1.0000
  Fe  Fe78      1.0  0.51422  0.80209  0.88121  1.0000
  S   S155      1.0  0.50612  0.80716  0.92802  1.0000
  S   S156      1.0  0.53434  0.81354  0.80621  1.0000
  S   S157      1.0  0.54100  0.80806  0.87401  1.0000
  S   S158      1.0  0.64010  0.52794  0.50273  1.0000
  S   S159      1.0  0.62878  0.60859  0.75968  1.0000
  S   S160      1.0  0.62824  0.69382  0.79655  1.0000
  C   C455      1.0  0.34251  0.56220  0.56837  1.0000
  Fe  Fe79      1.0  0.45182  0.78895  0.62876  1.0000
  S   S161      1.0  0.42503  0.79713  0.62805  1.0000
  S   S162      1.0  0.46388  0.76309  0.66541  1.0000
  Fe  Fe80      1.0  0.45651  0.82079  0.57118  1.0000
  S   S163      1.0  0.43033  0.83227  0.56725  1.0000
  S   S164      1.0  0.47284  0.84198  0.53763  1.0000
  Fe  Fe81      1.0  0.43197  0.84644  0.61250  1.0000
  S   S165      1.0  0.42375  0.89204  0.63373  1.0000
  Fe  Fe82      1.0  0.42558  0.78189  0.58247  1.0000
  S   S166      1.0  0.41085  0.74747  0.55423  1.0000
  S   S167      1.0  0.45849  0.83859  0.61545  1.0000
  S   S168      1.0  0.45206  0.77005  0.58427  1.0000
  Fe  Fe83      1.0  0.33013  0.64461  0.50829  1.0000
  C   C456      1.0  0.46567  0.98416  0.59845  1.0000
  S   S169      1.0  0.34130  0.68008  0.53987  1.0000
  H   H460      1.0  0.50004  0.96263  0.84606  1.0000
  C   C457      1.0  0.52273  0.89132  0.91061  1.0000
  H   H461      1.0  0.47006  0.89589  0.57700  1.0000
  N   N38       1.0  0.61179  0.71133  0.73162  1.0000
  H   H462      1.0  0.43034  0.78373  0.68938  1.0000
  H   H463      1.0  0.62537  0.67716  0.70852  1.0000
  H   H464      1.0  0.57600  0.65251  0.72424  1.0000
  C   C458      1.0  0.42514  0.92921  0.61611  1.0000
  C   C459      1.0  0.42437  0.95772  0.63157  1.0000
  H   H465      1.0  0.37134  0.67781  0.50650  1.0000
  C   C460      1.0  0.42790  0.96072  0.57354  1.0000
  C   C461      1.0  0.42699  0.93087  0.58702  1.0000
  H   H466      1.0  0.42292  0.95665  0.65408  1.0000
  H   H467      1.0  0.42752  0.90912  0.57487  1.0000
  C   C462      1.0  0.39137  0.72900  0.55091  1.0000
  C   C463      1.0  0.37883  0.73412  0.57002  1.0000
  C   C464      1.0  0.36369  0.71902  0.56624  1.0000
  C   C465      1.0  0.36076  0.69856  0.54334  1.0000
  C   C466      1.0  0.37330  0.69333  0.52428  1.0000
  C   C467      1.0  0.38844  0.70841  0.52807  1.0000
  H   H468      1.0  0.38078  0.74979  0.58770  1.0000
  H   H469      1.0  0.35416  0.72335  0.58121  1.0000
  S   S170      1.0  0.34151  0.60030  0.49083  1.0000
  H   H470      1.0  0.39796  0.70419  0.51307  1.0000
  C   C468      1.0  0.46660  0.92852  0.61137  1.0000
  C   C469      1.0  0.48236  0.81871  0.51162  1.0000
  C   C470      1.0  0.48195  0.78534  0.51228  1.0000
  C   C471      1.0  0.60096  0.66167  0.71459  1.0000
  H   H471      1.0  0.55837  0.72856  0.88937  1.0000
  H   H472      1.0  0.47610  0.77308  0.52954  1.0000
  C   C472      1.0  0.46953  0.94499  0.56317  1.0000
  H   H473      1.0  0.55944  0.95938  0.84213  1.0000
  H   H474      1.0  0.49826  0.87418  0.91110  1.0000
  H   H475      1.0  0.42915  0.96169  0.55100  1.0000
  H   H476      1.0  0.42988  0.84300  0.68565  1.0000
  C   C473      1.0  0.47326  0.76884  0.98459  1.0000
  C   C474      1.0  0.53274  0.91835  0.91086  1.0000
  C   C475      1.0  0.46896  0.92068  0.58326  1.0000
  C   C476      1.0  0.49410  0.79890  0.95897  1.0000
  H   H477      1.0  0.57245  0.70424  0.74906  1.0000
  C   C477      1.0  0.48205  0.77527  0.95960  1.0000
  H   H478      1.0  0.62595  0.74983  0.71599  1.0000
  H   H479      1.0  0.47940  0.76188  0.94080  1.0000
  C   C478      1.0  0.57544  0.72079  0.81938  1.0000
  C   C479      1.0  0.57938  0.68905  0.81246  1.0000
  C   C480      1.0  0.59534  0.68027  0.80554  1.0000
  C   C481      1.0  0.60778  0.70307  0.80573  1.0000
  C   C482      1.0  0.60386  0.73478  0.81278  1.0000
  C   C483      1.0  0.58786  0.74363  0.81933  1.0000
  H   H480      1.0  0.56999  0.67100  0.81246  1.0000
  H   H481      1.0  0.59801  0.65580  0.80026  1.0000
  H   H482      1.0  0.61328  0.75275  0.81315  1.0000
  H   H483      1.0  0.58520  0.76811  0.82466  1.0000
  C   C484      1.0  0.48577  0.80101  0.74819  1.0000
  C   C485      1.0  0.48473  0.76825  0.74265  1.0000
  C   C486      1.0  0.47871  0.75719  0.71673  1.0000
  C   C487      1.0  0.47358  0.77860  0.69594  1.0000
  C   C488      1.0  0.47529  0.81138  0.70096  1.0000
  C   C489      1.0  0.48131  0.82244  0.72689  1.0000
  H   H484      1.0  0.48780  0.75136  0.75884  1.0000
  H   H485      1.0  0.47750  0.73179  0.71315  1.0000
  H   H486      1.0  0.47152  0.82821  0.68519  1.0000
  H   H487      1.0  0.48206  0.84782  0.73077  1.0000
  C   C490      1.0  0.51302  0.96207  0.84487  1.0000
  C   C491      1.0  0.52081  0.93252  0.84309  1.0000
  C   C492      1.0  0.53759  0.93131  0.84261  1.0000
  C   C493      1.0  0.54645  0.96008  0.84266  1.0000
  S   S171      1.0  0.63419  0.61813  0.51501  1.0000
  H   H488      1.0  0.51383  0.91068  0.84282  1.0000
  N   N39       1.0  0.44543  0.83584  0.75080  1.0000
  C   C494      1.0  0.44567  0.80328  0.75296  1.0000
  C   C495      1.0  0.43977  0.85010  0.72705  1.0000
  C   C496      1.0  0.43997  0.78412  0.73111  1.0000
  C   C497      1.0  0.43403  0.83165  0.70474  1.0000
  C   C498      1.0  0.43415  0.79845  0.70687  1.0000
  C   C499      1.0  0.45192  0.85580  0.77338  1.0000
  H   H489      1.0  0.45093  0.79191  0.77112  1.0000
  H   H490      1.0  0.43996  0.87587  0.72502  1.0000
  H   H491      1.0  0.44082  0.75834  0.73231  1.0000
  H   H492      1.0  0.44323  0.87454  0.77939  1.0000
  H   H493      1.0  0.45467  0.84154  0.79240  1.0000
  H   H494      1.0  0.46340  0.86719  0.76650  1.0000
  H   H495      1.0  0.32518  0.73263  0.51427  1.0000
  H   H496      1.0  0.61293  0.52832  0.75622  1.0000
  C   C500      1.0  0.36625  0.58106  0.54575  1.0000
  H   H497      1.0  0.54173  0.75444  0.98253  1.0000
  C   C501      1.0  0.63877  0.52836  0.67073  1.0000
  H   H498      1.0  0.34909  0.50774  0.54536  1.0000
  H   H499      1.0  0.63685  0.72065  0.73633  1.0000
  C   C502      1.0  0.54724  0.72863  0.90137  1.0000
  N   N40       1.0  0.63039  0.51193  0.69375  1.0000
  H   H500      1.0  0.62645  0.55509  0.71622  1.0000
  C   C503      1.0  0.49705  0.81601  0.98393  1.0000
  C   C504      1.0  0.49969  0.92566  0.91230  1.0000
  C   C505      1.0  0.34061  0.59162  0.58175  1.0000
  C   C506      1.0  0.61379  0.68322  0.71749  1.0000
  C   C507      1.0  0.53354  0.71367  0.89069  1.0000
  H   H501      1.0  0.52781  0.86762  0.90929  1.0000
  C   C508      1.0  0.58397  0.69822  0.73977  1.0000
  H   H502      1.0  0.37606  0.57746  0.53109  1.0000
  H   H503      1.0  0.33354  0.54359  0.57184  1.0000
  H   H504      1.0  0.50628  0.83437  0.98404  1.0000
  H   H505      1.0  0.53247  0.78797  0.96508  1.0000
  H   H506      1.0  0.53987  0.98164  0.93562  1.0000
  C   C509      1.0  0.35188  0.61593  0.57704  1.0000
  H   H507      1.0  0.62422  0.74805  0.75390  1.0000
  H   H508      1.0  0.47105  0.93858  0.54132  1.0000
  H   H509      1.0  0.62462  0.60071  0.62282  1.0000
  H   H510      1.0  0.54565  0.91520  0.90945  1.0000
  H   H511      1.0  0.60271  0.63926  0.70364  1.0000
  C   C510      1.0  0.62465  0.52945  0.71573  1.0000
  C   C511      1.0  0.51005  0.95220  0.91260  1.0000
  S   S172      1.0  0.63219  0.60984  0.68079  1.0000
  C   C512      1.0  0.31290  0.72910  0.50721  1.0000
  C   C513      1.0  0.46502  0.96044  0.61908  1.0000
  C   C514      1.0  0.36476  0.61074  0.55888  1.0000
  H   H512      1.0  0.43071  0.78762  0.51649  1.0000
  C   C515      1.0  0.48906  0.76778  0.49041  1.0000
  Fe  Fe84      1.0  0.64186  0.65058  0.77803  1.0000
  H   H513      1.0  0.33032  0.59569  0.59526  1.0000
  H   H514      1.0  0.59541  0.74159  0.75329  1.0000
  S   S173      1.0  0.31602  0.52707  0.52352  1.0000
  H   H515      1.0  0.50834  0.70384  0.89727  1.0000
  N   N41       1.0  0.53226  0.74482  0.94204  1.0000
  C   C516      1.0  0.54636  0.74435  0.92717  1.0000
  C   C517      1.0  0.51872  0.73050  0.93155  1.0000
  C   C518      1.0  0.58600  0.66917  0.72601  1.0000
  C   C519      1.0  0.51915  0.71469  0.90576  1.0000
  H   H516      1.0  0.48678  0.92882  0.91244  1.0000
  H   H517      1.0  0.55698  0.75645  0.93507  1.0000
  H   H518      1.0  0.53403  0.70190  0.87043  1.0000
  H   H519      1.0  0.50740  0.73179  0.94284  1.0000
  H   H520      1.0  0.54838  0.97222  0.90167  1.0000
  N   N42       1.0  0.35526  0.55718  0.55075  1.0000
  C   C520      1.0  0.59704  0.71927  0.74217  1.0000
  H   H521      1.0  0.46564  0.90984  0.62706  1.0000
  Fe  Fe85      1.0  0.31832  0.57483  0.50122  1.0000
  N   N43       1.0  0.52635  0.94830  0.91180  1.0000
  H   H522      1.0  0.37327  0.62993  0.55450  1.0000
  C   C521      1.0  0.53168  0.76182  0.96886  1.0000
  H   H523      1.0  0.50499  0.97598  0.91277  1.0000
  H   H524      1.0  0.36935  0.51840  0.53590  1.0000
  H   H525      1.0  0.46403  0.75047  0.98454  1.0000
  H   H526      1.0  0.35042  0.63911  0.58686  1.0000
  C   C522      1.0  0.50611  0.89505  0.91144  1.0000
  H   H527      1.0  0.43386  0.72966  0.51046  1.0000
  C   C523      1.0  0.42737  0.98921  0.58901  1.0000
  C   C524      1.0  0.62535  0.73369  0.73440  1.0000
  C   C525      1.0  0.42567  0.98764  0.61814  1.0000
  H   H528      1.0  0.46277  0.96671  0.64078  1.0000
  N   N44       1.0  0.46789  0.97624  0.57090  1.0000
  C   C526      1.0  0.61678  0.51449  0.73821  1.0000
  H   H529      1.0  0.54120  0.72355  0.49596  1.0000
  H   H530      1.0  0.52025  0.75702  0.98040  1.0000
  C   C527      1.0  0.63574  0.61423  0.62388  1.0000
  H   H531      1.0  0.44151  0.84035  0.50752  1.0000
  C   C528      1.0  0.43810  0.77895  0.49938  1.0000
  H   H532      1.0  0.63821  0.61804  0.57893  1.0000
  C   C529      1.0  0.43978  0.74602  0.49597  1.0000
  C   C530      1.0  0.35674  0.52680  0.53577  1.0000
  H   H533      1.0  0.63010  0.54253  0.65834  1.0000
  H   H534      1.0  0.35272  0.52981  0.51377  1.0000
  C   C531      1.0  0.53702  0.97630  0.91343  1.0000
  C   C532      1.0  0.64234  0.62199  0.65001  1.0000
  H   H535      1.0  0.48858  0.74198  0.49092  1.0000
  C   C533      1.0  0.53863  0.98977  0.84420  1.0000
  C   C534      1.0  0.49007  0.83430  0.48916  1.0000
  C   C535      1.0  0.73432  0.31412  0.45466  1.0000
  H   H536      1.0  0.88846  0.20454  0.33984  1.0000
  S   S174      1.0  0.81391  0.32240  0.44783  1.0000
  H   H537      1.0  0.95839  0.08561  0.27819  1.0000
  C   C536      1.0  0.74822  0.30377  0.46855  1.0000
  H   H538      1.0  0.70833  0.31653  0.45504  1.0000
  C   C537      1.0  0.93805  0.23294  0.37476  1.0000
  S   S175      1.0  0.84009  0.24208  0.43476  1.0000
  S   S176      1.0  0.95992  0.14943  0.30443  1.0000
  C   C538      1.0  0.93445  0.20612  0.32946  1.0000
  H   H539      1.0  0.96534  0.00901  0.42578  1.0000
  H   H540      1.0  0.90612  0.22980  0.37502  1.0000
  S   S177      1.0  0.66157  0.30367  0.44970  1.0000
  H   H541      1.0  0.70700  0.24101  0.45516  1.0000
  Fe  Fe86      1.0  0.92358  0.13924  0.39247  1.0000
  S   S178      1.0  0.95005  0.15004  0.38518  1.0000
  S   S179      1.0  0.90975  0.17939  0.41562  1.0000
  Fe  Fe87      1.0  0.92760  0.07183  0.36828  1.0000
  S   S180      1.0  0.95394  0.07844  0.35989  1.0000
  S   S181      1.0  0.91710  0.02455  0.35333  1.0000
  Fe  Fe88      1.0  0.95454  0.10117  0.40261  1.0000
  H   H542      1.0  0.84727  0.37897  0.43897  1.0000
  Fe  Fe89      1.0  0.94754  0.12629  0.34284  1.0000
  H   H543      1.0  0.73555  0.32675  0.43498  1.0000
  S   S182      1.0  0.92850  0.09111  0.41226  1.0000
  S   S183      1.0  0.92077  0.11906  0.34874  1.0000
  H   H544      1.0  0.85097  0.19018  0.40030  1.0000
  H   H545      1.0  0.94739  0.20614  0.32657  1.0000
  H   H546      1.0  0.93356  0.22623  0.39599  1.0000
  H   H547      1.0  0.79654  0.46353  0.43838  1.0000
  C   C539      1.0  0.65061  0.46145  0.44368  1.0000
  C   C540      1.0  0.69558  0.23744  0.44470  1.0000
  C   C541      1.0  0.91143  0.21930  0.35643  1.0000
  H   H548      1.0  0.82636  0.43882  0.39458  1.0000
  C   C542      1.0  0.65124  0.43324  0.45959  1.0000
  H   H549      1.0  0.95828  0.12610  0.46862  1.0000
  C   C543      1.0  0.83728  0.48089  0.41206  1.0000
  C   C544      1.0  0.97566  0.06961  0.00853  1.0000
  C   C545      1.0  0.85458  0.43872  0.44461  1.0000
  C   C546      1.0  0.85970  0.22569  0.42930  1.0000
  C   C547      1.0  0.87342  0.23730  0.44296  1.0000
  C   C548      1.0  0.88850  0.22271  0.43857  1.0000
  C   C549      1.0  0.89020  0.19631  0.42051  1.0000
  C   C550      1.0  0.87651  0.18484  0.40672  1.0000
  C   C551      1.0  0.86142  0.19944  0.41108  1.0000
  H   H550      1.0  0.87241  0.25745  0.45698  1.0000
  H   H551      1.0  0.89897  0.23201  0.44930  1.0000
  H   H552      1.0  0.87751  0.16467  0.39271  1.0000
  H   H553      1.0  0.95056  0.22398  0.37326  1.0000
  H   H554      1.0  0.80572  0.41105  0.45623  1.0000
  H   H555      1.0  0.82791  0.38726  0.42527  1.0000
  C   C552      1.0  0.80533  0.46272  0.45496  1.0000
  H   H556      1.0  0.86214  0.17355  0.47296  1.0000
  S   S184      1.0  0.76736  0.31055  0.45269  1.0000
  H   H557      1.0  0.82576  0.15640  0.48683  1.0000
  H   H558      1.0  0.90050  0.17989  0.29717  1.0000
  C   C553      1.0  0.83523  0.44787  0.40921  1.0000
  N   N45       1.0  0.84373  0.42728  0.42555  1.0000
  C   C554      1.0  0.71886  0.30836  0.46600  1.0000
  C   C555      1.0  0.90810  0.19141  0.31263  1.0000
  C   C556      1.0  0.96519  0.10139  0.26454  1.0000
  H   H559      1.0  0.93018  0.18128  0.29056  1.0000
  N   N46       1.0  0.68343  0.22047  0.45740  1.0000
  H   H560      1.0  0.96888  0.06555  0.23269  1.0000
  H   H561      1.0  0.68244  0.18115  0.48553  1.0000
  H   H562      1.0  0.84501  0.38454  0.40172  1.0000
  C   C557      1.0  0.67864  0.24712  0.40480  1.0000
  H   H563      1.0  0.83525  0.17318  0.45576  1.0000
  C   C558      1.0  0.82256  0.43154  0.48537  1.0000
  H   H564      1.0  0.95673  0.00208  0.34923  1.0000
  Fe  Fe90      1.0  0.79217  0.30520  0.47251  1.0000
  H   H565      1.0  0.65092  0.46005  0.42106  1.0000
  C   C559      1.0  0.84092  0.39283  0.42261  1.0000
  H   H566      1.0  0.67664  0.25803  0.38452  1.0000
  C   C560      1.0  0.92474  0.19216  0.30890  1.0000
  C   C561      1.0  0.66633  0.22974  0.41789  1.0000
  H   H567      1.0  0.96251  0.16002  0.01518  1.0000
  C   C562      1.0  0.69336  0.25110  0.41828  1.0000
  H   H568      1.0  0.70294  0.26511  0.40863  1.0000
  C   C563      1.0  0.97217  0.15196  0.00178  1.0000
  S   S185      1.0  0.65035  0.39578  0.44234  1.0000
  C   C564      1.0  0.66893  0.21665  0.44442  1.0000
  H   H569      1.0  0.65915  0.20387  0.45476  1.0000
  Fe  Fe91      1.0  0.65108  0.34933  0.46688  1.0000
  H   H570      1.0  0.92271  0.01092  0.41231  1.0000
  S   S186      1.0  0.80428  0.25951  0.48442  1.0000
  C   C565      1.0  0.90136  0.20520  0.33649  1.0000
  C   C566      1.0  0.96777  0.13319  0.27248  1.0000
  H   H571      1.0  0.65465  0.22717  0.40802  1.0000
  H   H572      1.0  0.96350  0.07868  0.00874  1.0000
  C   C567      1.0  0.81053  0.43291  0.46503  1.0000
  C   C568      1.0  0.97119  0.09005  0.23863  1.0000
  H   H573      1.0  0.93824  0.25930  0.37273  1.0000
  Fe  Fe92      1.0  0.82677  0.27827  0.46307  1.0000
  H   H574      1.0  0.86091  0.42247  0.45827  1.0000
  C   C569      1.0  0.68562  0.20695  0.48543  1.0000
  N   N47       1.0  0.92776  0.21881  0.35314  1.0000
  C   C570      1.0  0.65096  0.43539  0.48880  1.0000
  H   H575      1.0  0.81997  0.19496  0.47305  1.0000
  H   H576      1.0  0.95167  0.02455  0.40055  1.0000
  C   C571      1.0  0.96949  0.11913  0.47808  1.0000
  C   C572      1.0  0.96313  0.01151  0.40297  1.0000
  C   C573      1.0  0.85699  0.47160  0.44791  1.0000
  C   C574      1.0  0.83022  0.17870  0.47682  1.0000
  H   H577      1.0  0.97304  0.02643  0.39407  1.0000
  S   S187      1.0  0.97552  0.08489  0.42937  1.0000
  H   H578      1.0  0.86512  0.48059  0.46380  1.0000
  C   C575      1.0  0.82305  0.48996  0.48719  1.0000
  Fe  Fe93      1.0  0.82140  0.34540  0.48836  1.0000
  Fe  Fe94      1.0  0.93691  0.08739  0.85146  1.0000
  S   S188      1.0  0.92247  0.04093  0.85196  1.0000
  Fe  Fe95      1.0  0.93116  0.15976  0.84743  1.0000
  S   S189      1.0  0.95804  0.16974  0.84524  1.0000
  S   S190      1.0  0.91194  0.19969  0.84630  1.0000
  Fe  Fe96      1.0  0.95921  0.12864  0.81443  1.0000
  Fe  Fe97      1.0  0.96078  0.13272  0.88001  1.0000
  C   C576      1.0  0.95456  0.04602  0.78176  1.0000
  S   S191      1.0  0.93232  0.12067  0.81565  1.0000
  S   S192      1.0  0.93394  0.12574  0.88414  1.0000
  Fe  Fe98      1.0  0.81289  0.28651  0.52228  1.0000
  S   S193      1.0  0.81164  0.26076  0.56396  1.0000
  S   S194      1.0  0.79913  0.33077  0.51207  1.0000
  H   H579      1.0  0.84761  0.27376  0.68975  1.0000
  Fe  Fe99      1.0  0.83097  0.27994  0.76848  1.0000
  S   S195      1.0  0.84066  0.32756  0.75379  1.0000
  S   S196      1.0  0.84790  0.23738  0.77829  1.0000
  Fe  Fe100     1.0  0.79556  0.29801  0.75076  1.0000
  S   S197      1.0  0.80380  0.34604  0.73497  1.0000
  S   S198      1.0  0.76980  0.28412  0.73718  1.0000
  Fe  Fe101     1.0  0.82481  0.32071  0.71625  1.0000
  S   S199      1.0  0.83413  0.33445  0.67323  1.0000
  Fe  Fe102     1.0  0.81869  0.34900  0.77371  1.0000
  S   S200      1.0  0.81844  0.39573  0.79815  1.0000
  S   S201      1.0  0.81607  0.27242  0.72931  1.0000
  S   S202      1.0  0.80957  0.30171  0.79128  1.0000
  H   H580      1.0  0.95774  0.15383  0.96402  1.0000
  C   C577      1.0  0.68913  0.48873  0.79491  1.0000
  C   C578      1.0  0.83746  0.21315  0.51635  1.0000
  Fe  Fe103     1.0  0.67373  0.29670  0.76564  1.0000
  S   S203      1.0  0.67187  0.32167  0.72455  1.0000
  S   S204      1.0  0.69804  0.29211  0.78796  1.0000
  C   C579      1.0  0.64469  0.43572  0.77663  1.0000
  C   C580      1.0  0.67411  0.22947  0.81515  1.0000
  H   H581      1.0  0.66282  0.46411  0.71768  1.0000
  S   S205      1.0  0.65392  0.32569  0.78569  1.0000
  S   S206      1.0  0.65649  0.25680  0.75387  1.0000
  S   S207      1.0  0.65513  0.26005  0.67172  1.0000
  C   C581      1.0  0.88312  0.32128  0.72734  1.0000
  C   C582      1.0  0.74645  0.28747  0.49399  1.0000
  H   H582      1.0  0.67785  0.21967  0.50068  1.0000
  C   C583      1.0  0.85827  0.18867  0.49012  1.0000
  H   H583      1.0  0.86441  0.31874  0.69664  1.0000
  H   H584      1.0  0.89655  0.14620  0.89382  1.0000
  H   H585      1.0  0.84485  0.24367  0.55044  1.0000
  N   N48       1.0  0.65199  0.25538  0.83796  1.0000
  H   H586      1.0  0.86567  0.10256  0.81420  1.0000
  C   C584      1.0  0.64748  0.28001  0.64224  1.0000
  C   C585      1.0  0.82001  0.43303  0.78062  1.0000
  C   C586      1.0  0.81492  0.46100  0.79421  1.0000
  S   S208      1.0  0.69790  0.28129  0.50528  1.0000
  C   C587      1.0  0.82944  0.46572  0.74163  1.0000
  C   C588      1.0  0.82707  0.43554  0.75407  1.0000
  H   H587      1.0  0.80943  0.45927  0.81475  1.0000
  H   H588      1.0  0.83108  0.41426  0.74340  1.0000
  C   C589      1.0  0.75000  0.28859  0.75164  1.0000
  C   C590      1.0  0.74720  0.29528  0.77998  1.0000
  C   C591      1.0  0.73129  0.29659  0.79060  1.0000
  C   C592      1.0  0.71789  0.29191  0.77306  1.0000
  C   C593      1.0  0.72068  0.28591  0.74459  1.0000
  C   C594      1.0  0.73659  0.28397  0.73409  1.0000
  H   H589      1.0  0.75729  0.29874  0.79387  1.0000
  H   H590      1.0  0.72938  0.30114  0.81265  1.0000
  H   H591      1.0  0.71060  0.28201  0.73078  1.0000
  H   H592      1.0  0.73851  0.27861  0.71219  1.0000
  H   H593      1.0  0.64684  0.27291  0.57107  1.0000
  C   C595      1.0  0.96941  0.14845  0.97261  1.0000
  C   C596      1.0  0.81859  0.28082  0.59408  1.0000
  C   C597      1.0  0.81604  0.26697  0.62054  1.0000
  C   C598      1.0  0.82064  0.28325  0.64502  1.0000
  C   C599      1.0  0.82821  0.31312  0.64311  1.0000
  C   C600      1.0  0.83109  0.32661  0.61661  1.0000
  C   C601      1.0  0.82615  0.31068  0.59217  1.0000
  H   H594      1.0  0.81016  0.24389  0.62214  1.0000
  H   H595      1.0  0.81830  0.27266  0.66530  1.0000
  H   H596      1.0  0.83698  0.34969  0.61498  1.0000
  H   H597      1.0  0.82817  0.32157  0.57187  1.0000
  H   H598      1.0  0.88494  0.34679  0.72482  1.0000
  C   C602      1.0  0.88955  0.13645  0.87667  1.0000
  C   C603      1.0  0.89499  0.21081  0.82527  1.0000
  C   C604      1.0  0.88743  0.24027  0.83036  1.0000
  C   C605      1.0  0.87325  0.24908  0.81605  1.0000
  C   C606      1.0  0.86617  0.22833  0.79659  1.0000
  C   C607      1.0  0.87384  0.19903  0.79127  1.0000
  C   C608      1.0  0.88819  0.19051  0.80516  1.0000
  H   H599      1.0  0.89247  0.25631  0.84583  1.0000
  H   H600      1.0  0.86764  0.27172  0.82051  1.0000
  H   H601      1.0  0.86862  0.18270  0.77623  1.0000
  H   H602      1.0  0.89378  0.16783  0.80081  1.0000
  H   H603      1.0  0.95566  0.02388  0.86313  1.0000
  C   C609      1.0  0.97100  0.04035  0.77970  1.0000
  Fe  Fe104     1.0  0.67328  0.29946  0.49194  1.0000
  S   S209      1.0  0.65230  0.27185  0.51010  1.0000
  H   H604      1.0  0.72978  0.26812  0.52452  1.0000
  C   C610      1.0  0.64490  0.28324  0.59149  1.0000
  S   S210      1.0  0.65184  0.40065  0.72883  1.0000
  H   H605      1.0  0.85837  0.15441  0.83534  1.0000
  H   H606      1.0  0.86173  0.24260  0.68209  1.0000
  H   H607      1.0  0.88860  0.07183  0.83375  1.0000
  H   H608      1.0  0.96938  0.12841  0.70806  1.0000
  N   N49       1.0  0.78899  0.33720  0.64719  1.0000
  C   C611      1.0  0.78815  0.32852  0.61961  1.0000
  C   C612      1.0  0.78226  0.31817  0.66750  1.0000
  C   C613      1.0  0.78090  0.29960  0.61183  1.0000
  C   C614      1.0  0.77499  0.28902  0.66049  1.0000
  C   C615      1.0  0.77441  0.27965  0.63248  1.0000
  C   C616      1.0  0.79650  0.36775  0.65484  1.0000
  H   H609      1.0  0.79350  0.34352  0.60347  1.0000
  H   H610      1.0  0.78255  0.32523  0.68934  1.0000
  Fe  Fe105     1.0  0.65128  0.34867  0.74337  1.0000
  H   H611      1.0  0.76996  0.27380  0.67682  1.0000
  C   C617      1.0  0.93227  0.00374  0.85505  1.0000
  H   H612      1.0  0.80191  0.36655  0.67604  1.0000
  H   H613      1.0  0.96509  0.14454  0.51667  1.0000
  H   H614      1.0  0.78746  0.38701  0.65453  1.0000
  N   N50       1.0  0.68068  0.31843  0.59860  1.0000
  C   C618      1.0  0.68548  0.30445  0.62303  1.0000
  C   C619      1.0  0.67346  0.34760  0.59897  1.0000
  C   C620      1.0  0.68279  0.31945  0.64876  1.0000
  C   C621      1.0  0.89370  0.10678  0.86549  1.0000
  C   C622      1.0  0.67522  0.34899  0.64940  1.0000
  C   C623      1.0  0.68367  0.30263  0.57172  1.0000
  H   H615      1.0  0.69095  0.28109  0.62289  1.0000
  H   H616      1.0  0.66941  0.35841  0.57961  1.0000
  H   H617      1.0  0.68601  0.30759  0.66811  1.0000
  H   H618      1.0  0.88342  0.19767  0.88454  1.0000
  S   S211      1.0  0.83594  0.30268  0.50192  1.0000
  H   H619      1.0  0.67333  0.30579  0.55741  1.0000
  H   H620      1.0  0.69463  0.31282  0.56159  1.0000
  H   H621      1.0  0.86577  0.19887  0.86361  1.0000
  H   H622      1.0  0.83529  0.46739  0.72138  1.0000
  C   C624      1.0  0.65734  0.46418  0.73827  1.0000
  C   C625      1.0  0.65170  0.43536  0.74995  1.0000
  C   C626      1.0  0.67057  0.36327  0.62435  1.0000
  H   H623      1.0  0.68654  0.23007  0.80802  1.0000
  H   H624      1.0  0.90103  0.31642  0.75954  1.0000
  C   C627      1.0  0.84878  0.22819  0.53356  1.0000
  H   H625      1.0  0.96777  0.03585  0.95454  1.0000
  C   C628      1.0  0.87236  0.11177  0.83193  1.0000
  C   C629      1.0  0.89213  0.30426  0.74676  1.0000
  S   S212      1.0  0.66430  0.34657  0.50747  1.0000
  C   C630      1.0  0.66771  0.25565  0.82935  1.0000
  C   C631      1.0  0.88517  0.09457  0.84281  1.0000
  C   C632      1.0  0.86993  0.20338  0.50687  1.0000
  H   H626      1.0  0.95001  0.06996  0.77882  1.0000
  H   H627      1.0  0.64795  0.46639  0.52444  1.0000
  C   C633      1.0  0.87251  0.18372  0.87855  1.0000
  H   H628      1.0  0.66901  0.18310  0.79770  1.0000
  H   H629      1.0  0.76906  0.25686  0.62680  1.0000
  C   C634      1.0  0.86829  0.14108  0.84399  1.0000
  H   H630      1.0  0.90356  0.09333  0.87419  1.0000
  C   C635      1.0  0.82854  0.46020  0.49675  1.0000
  H   H631      1.0  0.75700  0.27919  0.50482  1.0000
  H   H632      1.0  0.89638  0.25800  0.76503  1.0000
  C   C636      1.0  0.64821  0.20328  0.81788  1.0000
  H   H633      1.0  0.67537  0.27634  0.83301  1.0000
  N   N51       1.0  0.86869  0.27330  0.71526  1.0000
  C   C637      1.0  0.87147  0.30526  0.71148  1.0000
  C   C638      1.0  0.87780  0.25629  0.73363  1.0000
  N   N52       1.0  0.87703  0.15325  0.86580  1.0000
  C   C639      1.0  0.88956  0.27150  0.74981  1.0000
  C   C640      1.0  0.97330  0.05972  0.95801  1.0000
  C   C641      1.0  0.85619  0.25674  0.69916  1.0000
  H   H634      1.0  0.70709  0.48272  0.76308  1.0000
  H   H635      1.0  0.87562  0.23094  0.73651  1.0000
  H   H636      1.0  0.86498  0.17941  0.89745  1.0000
  S   S213      1.0  0.96370  0.09238  0.84843  1.0000
  H   H637      1.0  0.66434  0.38585  0.62464  1.0000
  H   H638      1.0  0.84906  0.24061  0.71309  1.0000
  H   H639      1.0  0.85173  0.47301  0.80081  1.0000
  N   N53       1.0  0.84229  0.19420  0.49462  1.0000
  C   C642      1.0  0.94876  0.00218  0.86010  1.0000
  H   H640      1.0  0.65148  0.41395  0.50133  1.0000
  H   H641      1.0  0.68523  0.27649  0.57425  1.0000
  S   S214      1.0  0.96763  0.12817  0.76819  1.0000
  H   H642      1.0  0.67261  0.36040  0.66931  1.0000
  H   H643      1.0  0.78082  0.29228  0.59000  1.0000
  C   C643      1.0  0.86511  0.22344  0.52861  1.0000
  H   H644      1.0  0.82478  0.21700  0.52039  1.0000
  S   S215      1.0  0.83215  0.39523  0.49411  1.0000
  H   H645      1.0  0.80656  0.37391  0.64032  1.0000
  Fe  Fe106     1.0  0.65342  0.28451  0.71377  1.0000
  C   C644      1.0  0.94404  0.02086  0.78794  1.0000
  C   C645      1.0  0.64981  0.26680  0.61557  1.0000
  C   C646      1.0  0.73098  0.28124  0.50510  1.0000
  H   H646      1.0  0.65563  0.24394  0.61352  1.0000
  H   H647      1.0  0.83780  0.45941  0.51255  1.0000
  C   C647      1.0  0.64898  0.46520  0.50188  1.0000
  H   H648      1.0  0.93128  0.02524  0.79044  1.0000
  C   C648      1.0  0.64523  0.28321  0.85222  1.0000
  C   C649      1.0  0.71711  0.29168  0.49123  1.0000
  C   C650      1.0  0.66427  0.20318  0.80933  1.0000
  H   H649      1.0  0.65476  0.29959  0.86012  1.0000
  H   H650      1.0  0.87402  0.23532  0.54156  1.0000
  H   H651      1.0  0.96370  0.07797  0.95853  1.0000
  H   H652      1.0  0.68559  0.46371  0.79512  1.0000
  H   H653      1.0  0.88260  0.19963  0.50262  1.0000
  H   H654      1.0  0.69823  0.20969  0.49275  1.0000
  C   C651      1.0  0.97338  0.12953  0.50532  1.0000
  H   H655      1.0  0.71886  0.71163  0.45978  1.0000
  S   S216      1.0  0.80415  0.62303  0.45486  1.0000
  S   S217      1.0  0.80698  0.52814  0.44937  1.0000
  H   H656      1.0  0.89945  0.86383  0.44851  1.0000
  C   C652      1.0  0.96309  0.77657  0.23798  1.0000
  H   H657      1.0  0.88734  0.89927  0.35775  1.0000
  C   C653      1.0  0.88931  0.84758  0.44289  1.0000
  S   S218      1.0  0.84600  0.68141  0.47193  1.0000
  H   H658      1.0  0.89191  0.89784  0.40881  1.0000
  C   C654      1.0  0.91858  0.95932  0.35783  1.0000
  C   C655      1.0  0.96665  0.81144  0.27851  1.0000
  H   H659      1.0  0.96668  0.95323  0.42528  1.0000
  Fe  Fe107     1.0  0.67275  0.62609  0.46988  1.0000
  S   S219      1.0  0.69678  0.63064  0.44644  1.0000
  Fe  Fe108     1.0  0.93097  0.84641  0.40015  1.0000
  S   S220      1.0  0.95640  0.83388  0.39016  1.0000
  S   S221      1.0  0.92598  0.89458  0.42001  1.0000
  Fe  Fe109     1.0  0.91839  0.77908  0.38686  1.0000
  S   S222      1.0  0.94334  0.76222  0.37488  1.0000
  S   S223      1.0  0.89573  0.74664  0.38409  1.0000
  Fe  Fe110     1.0  0.95138  0.78871  0.41361  1.0000
  C   C656      1.0  0.88148  0.82098  0.39925  1.0000
  Fe  Fe111     1.0  0.94662  0.80905  0.35178  1.0000
  S   S224      1.0  0.96197  0.82423  0.31338  1.0000
  S   S225      1.0  0.92647  0.80268  0.42667  1.0000
  S   S226      1.0  0.92109  0.82445  0.36085  1.0000
  C   C657      1.0  0.97273  0.82138  0.47677  1.0000
  C   C658      1.0  0.95836  0.95102  0.34596  1.0000
  H   H660      1.0  0.87989  0.79884  0.41075  1.0000
  C   C659      1.0  0.95895  0.78547  0.26567  1.0000
  H   H661      1.0  0.72704  0.56138  0.48801  1.0000
  H   H662      1.0  0.94972  0.77238  0.27699  1.0000
  H   H663      1.0  0.87246  0.72564  0.47863  1.0000
  C   C660      1.0  0.92416  0.95954  0.41534  1.0000
  C   C661      1.0  0.92359  0.93034  0.40094  1.0000
  C   C662      1.0  0.92081  0.93029  0.37210  1.0000
  C   C663      1.0  0.76453  0.54197  0.46844  1.0000
  H   H664      1.0  0.92613  0.95974  0.43772  1.0000
  H   H665      1.0  0.92036  0.90794  0.36079  1.0000
  C   C664      1.0  0.86001  0.69832  0.44705  1.0000
  C   C665      1.0  0.85953  0.69142  0.41836  1.0000
  C   C666      1.0  0.87059  0.70620  0.39962  1.0000
  C   C667      1.0  0.88249  0.72776  0.40913  1.0000
  C   C668      1.0  0.88307  0.73444  0.43787  1.0000
  C   C669      1.0  0.87188  0.72002  0.45656  1.0000
  H   H666      1.0  0.85053  0.67498  0.41051  1.0000
  H   H667      1.0  0.86993  0.70079  0.37750  1.0000
  H   H668      1.0  0.89212  0.75079  0.44571  1.0000
  H   H669      1.0  0.64730  0.51264  0.44426  1.0000
  C   C670      1.0  0.88817  0.87617  0.39813  1.0000
  C   C671      1.0  0.74516  0.63534  0.45960  1.0000
  C   C672      1.0  0.72989  0.63346  0.44691  1.0000
  C   C673      1.0  0.71581  0.63017  0.46317  1.0000
  C   C674      1.0  0.96081  0.92255  0.36044  1.0000
  H   H670      1.0  0.95696  0.75654  0.22834  1.0000
  H   H671      1.0  0.75581  0.63889  0.44684  1.0000
  H   H672      1.0  0.72895  0.63519  0.42436  1.0000
  H   H673      1.0  0.72300  0.55990  0.43689  1.0000
  C   C675      1.0  0.88551  0.87716  0.36924  1.0000
  N   N54       1.0  0.75182  0.54889  0.48561  1.0000
  H   H674      1.0  0.96315  0.83155  0.46455  1.0000
  C   C676      1.0  0.96390  0.92347  0.38912  1.0000
  C   C677      1.0  0.73470  0.55438  0.44554  1.0000
  H   H675      1.0  0.96538  0.90148  0.40077  1.0000
  C   C678      1.0  0.87872  0.82107  0.37038  1.0000
  H   H676      1.0  0.77627  0.53714  0.47713  1.0000
  C   C679      1.0  0.73706  0.55518  0.47452  1.0000
  H   H677      1.0  0.87909  0.84952  0.33279  1.0000
  H   H678      1.0  0.87833  0.85510  0.45426  1.0000
  N   N55       1.0  0.88647  0.84814  0.41263  1.0000
  C   C680      1.0  0.92228  0.98857  0.40099  1.0000
  C   C681      1.0  0.74760  0.54731  0.42790  1.0000
  Fe  Fe112     1.0  0.82618  0.64254  0.47771  1.0000
  H   H679      1.0  0.82996  0.49724  0.40010  1.0000
  Fe  Fe113     1.0  0.81102  0.57489  0.47276  1.0000
  H   H680      1.0  0.87538  0.79904  0.35980  1.0000
  H   H681      1.0  0.91638  0.95919  0.33552  1.0000
  H   H682      1.0  0.96002  0.89977  0.34960  1.0000
  H   H683      1.0  0.77284  0.53564  0.42598  1.0000
  C   C682      1.0  0.76263  0.54102  0.43939  1.0000
  C   C683      1.0  0.88085  0.84933  0.35529  1.0000
  H   H684      1.0  0.89273  0.82333  0.45005  1.0000
  H   H685      1.0  0.95553  0.95057  0.32382  1.0000
  S   S227      1.0  0.64926  0.60675  0.45207  1.0000
  H   H686      1.0  0.74597  0.54692  0.40537  1.0000
  H   H687      1.0  0.74817  0.70353  0.47040  1.0000
  C   C684      1.0  0.96457  0.95290  0.40291  1.0000
  S   S228      1.0  0.96934  0.76739  0.44383  1.0000
  C   C685      1.0  0.95908  0.98006  0.36043  1.0000
  H   H688      1.0  0.84939  0.51834  0.43479  1.0000
  C   C686      1.0  0.81179  0.49137  0.46562  1.0000
  H   H689      1.0  0.74652  0.74297  0.48565  1.0000
  C   C687      1.0  0.97507  0.79322  0.22272  1.0000
  C   C688      1.0  0.84820  0.49277  0.43161  1.0000
  C   C689      1.0  0.71684  0.70798  0.48202  1.0000
  N   N56       1.0  0.96225  0.98070  0.38851  1.0000
  C   C690      1.0  0.91952  0.98859  0.37214  1.0000
  C   C691      1.0  0.64866  0.49133  0.45679  1.0000
  C   C692      1.0  0.97476  0.76820  0.98983  1.0000
  H   H690      1.0  0.69145  0.69939  0.47663  1.0000
  C   C693      1.0  0.64735  0.49318  0.48596  1.0000
  C   C694      1.0  0.74647  0.63460  0.48879  1.0000
  C   C695      1.0  0.72685  0.70348  0.52832  1.0000
  S   S229      1.0  0.94697  0.82571  0.81452  1.0000
  Fe  Fe114     1.0  0.95946  0.79521  0.88965  1.0000
  S   S230      1.0  0.93688  0.82320  0.88144  1.0000
  Fe  Fe115     1.0  0.93317  0.79155  0.84316  1.0000
  S   S231      1.0  0.90730  0.77488  0.83078  1.0000
  Fe  Fe116     1.0  0.95212  0.85465  0.85331  1.0000
  S   S232      1.0  0.95858  0.90776  0.85545  1.0000
  S   S233      1.0  0.95498  0.76165  0.85289  1.0000
  Fe  Fe117     1.0  0.81836  0.60277  0.53005  1.0000
  S   S234      1.0  0.82774  0.58869  0.57247  1.0000
  C   C696      1.0  0.91084  0.78729  0.92636  1.0000
  Fe  Fe118     1.0  0.83525  0.64412  0.77760  1.0000
  S   S235      1.0  0.83823  0.61992  0.73573  1.0000
  S   S236      1.0  0.85937  0.65713  0.79973  1.0000
  Fe  Fe119     1.0  0.79808  0.62950  0.77627  1.0000
  S   S237      1.0  0.79946  0.60416  0.73504  1.0000
  S   S238      1.0  0.77358  0.63681  0.79782  1.0000
  Fe  Fe120     1.0  0.82169  0.58120  0.75207  1.0000
  S   S239      1.0  0.82946  0.53110  0.73977  1.0000
  Fe  Fe121     1.0  0.81580  0.64455  0.72254  1.0000
  S   S240      1.0  0.81115  0.66877  0.68105  1.0000
  S   S241      1.0  0.81952  0.60372  0.79464  1.0000
  S   S242      1.0  0.81355  0.67173  0.76306  1.0000
  Fe  Fe122     1.0  0.65841  0.63682  0.52756  1.0000
  S   S243      1.0  0.66721  0.65592  0.56921  1.0000
  H   H691      1.0  0.93906  0.73052  0.93667  1.0000
  Fe  Fe123     1.0  0.67537  0.62557  0.75726  1.0000
  S   S244      1.0  0.66370  0.58265  0.73698  1.0000
  S   S245      1.0  0.70251  0.62589  0.74650  1.0000
  H   H692      1.0  0.64496  0.51149  0.65647  1.0000
  H   H693      1.0  0.89961  0.73199  0.87928  1.0000
  C   C697      1.0  0.69855  0.69532  0.51989  1.0000
  S   S246      1.0  0.65706  0.65951  0.73912  1.0000
  S   S247      1.0  0.66130  0.61987  0.79771  1.0000
  H   H694      1.0  0.92308  0.70446  0.89891  1.0000
  C   C698      1.0  0.90632  0.74326  0.89603  1.0000
  C   C699      1.0  0.65763  0.64208  0.60006  1.0000
  C   C700      1.0  0.66425  0.64976  0.62623  1.0000
  C   C701      1.0  0.65670  0.63955  0.65116  1.0000
  C   C702      1.0  0.88877  0.78998  0.89284  1.0000
  H   H695      1.0  0.67525  0.66368  0.62721  1.0000
  H   H696      1.0  0.66191  0.64560  0.67119  1.0000
  C   C703      1.0  0.75382  0.63138  0.78390  1.0000
  C   C704      1.0  0.74038  0.63966  0.80036  1.0000
  C   C705      1.0  0.72458  0.63750  0.78966  1.0000
  C   C706      1.0  0.72199  0.62728  0.76214  1.0000
  C   C707      1.0  0.73539  0.61839  0.74587  1.0000
  C   C708      1.0  0.75116  0.62021  0.75667  1.0000
  H   H697      1.0  0.74223  0.64823  0.82149  1.0000
  H   H698      1.0  0.71447  0.64448  0.80253  1.0000
  H   H699      1.0  0.73360  0.61024  0.72461  1.0000
  H   H700      1.0  0.76129  0.61347  0.74377  1.0000
  H   H701      1.0  0.84293  0.55631  0.85093  1.0000
  C   C709      1.0  0.97600  0.78804  0.96598  1.0000
  C   C710      1.0  0.82139  0.60946  0.60259  1.0000
  C   C711      1.0  0.81259  0.63763  0.60064  1.0000
  C   C712      1.0  0.80921  0.65544  0.62491  1.0000
  C   C713      1.0  0.81445  0.64494  0.65122  1.0000
  C   C714      1.0  0.82275  0.61622  0.65324  1.0000
  C   C715      1.0  0.82631  0.59868  0.62897  1.0000
  H   H702      1.0  0.80876  0.64613  0.58040  1.0000
  H   H703      1.0  0.80275  0.67760  0.62323  1.0000
  H   H704      1.0  0.82674  0.60780  0.67344  1.0000
  H   H705      1.0  0.83306  0.57684  0.63063  1.0000
  H   H706      1.0  0.85704  0.60794  0.54079  1.0000
  N   N57       1.0  0.86086  0.55046  0.78741  1.0000
  H   H707      1.0  0.81311  0.51253  0.79219  1.0000
  C   C716      1.0  0.91959  0.72752  0.90709  1.0000
  H   H708      1.0  0.91070  0.97616  0.84744  1.0000
  C   C717      1.0  0.97262  0.95275  0.79472  1.0000
  C   C718      1.0  0.89454  0.74171  0.82066  1.0000
  C   C719      1.0  0.89935  0.70980  0.82258  1.0000
  C   C720      1.0  0.88849  0.68456  0.81601  1.0000
  C   C721      1.0  0.87269  0.69049  0.80682  1.0000
  C   C722      1.0  0.86795  0.72241  0.80455  1.0000
  C   C723      1.0  0.87871  0.74764  0.81165  1.0000
  H   H709      1.0  0.91140  0.70450  0.82937  1.0000
  H   H710      1.0  0.89243  0.66015  0.81792  1.0000
  H   H711      1.0  0.85591  0.72770  0.79769  1.0000
  H   H712      1.0  0.87471  0.77204  0.81003  1.0000
  C   C724      1.0  0.94775  0.94392  0.85670  1.0000
  C   C725      1.0  0.95643  0.97245  0.86096  1.0000
  S   S248      1.0  0.76477  0.64402  0.50604  1.0000
  C   C726      1.0  0.70119  0.49972  0.77669  1.0000
  C   C727      1.0  0.93119  0.94535  0.85208  1.0000
  H   H713      1.0  0.92439  0.92357  0.84871  1.0000
  C   C728      1.0  0.68138  0.51036  0.81244  1.0000
  S   S249      1.0  0.81158  0.65193  0.51696  1.0000
  H   H714      1.0  0.96210  0.81848  0.55788  1.0000
  C   C729      1.0  0.71140  0.69641  0.53847  1.0000
  Fe  Fe124     1.0  0.64474  0.61594  0.72219  1.0000
  N   N58       1.0  0.85521  0.65307  0.56055  1.0000
  C   C730      1.0  0.84774  0.68104  0.55408  1.0000
  C   C731      1.0  0.85694  0.64396  0.58787  1.0000
  C   C732      1.0  0.84162  0.70055  0.57530  1.0000
  C   C733      1.0  0.85109  0.66303  0.60962  1.0000
  C   C734      1.0  0.84333  0.69142  0.60324  1.0000
  C   C735      1.0  0.86170  0.63276  0.53832  1.0000
  H   H715      1.0  0.84630  0.68824  0.53240  1.0000
  H   H716      1.0  0.72725  0.55670  0.76890  1.0000
  H   H717      1.0  0.83541  0.72235  0.57005  1.0000
  H   H718      1.0  0.88102  0.56462  0.76288  1.0000
  H   H719      1.0  0.83829  0.70582  0.61996  1.0000
  H   H720      1.0  0.85817  0.64115  0.51714  1.0000
  C   C736      1.0  0.84681  0.51228  0.82861  1.0000
  C   C737      1.0  0.85300  0.49853  0.80432  1.0000
  N   N59       1.0  0.76358  0.67393  0.70553  1.0000
  C   C738      1.0  0.77427  0.68325  0.72564  1.0000
  C   C739      1.0  0.74754  0.68008  0.70866  1.0000
  C   C740      1.0  0.76895  0.69813  0.75015  1.0000
  C   C741      1.0  0.74180  0.69498  0.73292  1.0000
  C   C742      1.0  0.75260  0.70379  0.75386  1.0000
  C   C743      1.0  0.76954  0.65763  0.68043  1.0000
  H   H721      1.0  0.78696  0.67856  0.72303  1.0000
  H   H722      1.0  0.73899  0.67256  0.69287  1.0000
  H   H723      1.0  0.77741  0.70404  0.76664  1.0000
  H   H724      1.0  0.72900  0.69844  0.73595  1.0000
  H   H725      1.0  0.74827  0.71410  0.77330  1.0000
  H   H726      1.0  0.77802  0.63843  0.68637  1.0000
  H   H727      1.0  0.75969  0.64629  0.66826  1.0000
  H   H728      1.0  0.77614  0.67486  0.66679  1.0000
  C   C744      1.0  0.97230  0.74107  0.54889  1.0000
  H   H729      1.0  0.90780  0.81108  0.93345  1.0000
  H   H730      1.0  0.86710  0.59620  0.76998  1.0000
  H   H731      1.0  0.88056  0.79944  0.90915  1.0000
  C   C745      1.0  0.64341  0.62404  0.59897  1.0000
  C   C746      1.0  0.96562  0.77070  0.54310  1.0000
  H   H732      1.0  0.82811  0.51179  0.49565  1.0000
  H   H733      1.0  0.96923  0.97158  0.86470  1.0000
  S   S250      1.0  0.97464  0.82783  0.86322  1.0000
  Fe  Fe125     1.0  0.96874  0.79725  0.82574  1.0000
  C   C747      1.0  0.84788  0.54527  0.83229  1.0000
  C   C748      1.0  0.97477  0.81589  0.60870  1.0000
  H   H734      1.0  0.96026  0.77519  0.52280  1.0000
  H   H735      1.0  0.74309  0.54589  0.52772  1.0000
  H   H736      1.0  0.96897  0.77432  0.74997  1.0000
  S   S251      1.0  0.79640  0.58000  0.51188  1.0000
  H   H737      1.0  0.85198  0.65518  0.63123  1.0000
  H   H738      1.0  0.73327  0.63008  0.52759  1.0000
  S   S252      1.0  0.96602  0.77597  0.93404  1.0000
  H   H739      1.0  0.70074  0.57806  0.79178  1.0000
  H   H740      1.0  0.88162  0.77435  0.87864  1.0000
  H   H741      1.0  0.71281  0.55865  0.74080  1.0000
  H   H742      1.0  0.72435  0.52302  0.74628  1.0000
  H   H743      1.0  0.85577  0.58979  0.81436  1.0000
  H   H744      1.0  0.68656  0.68946  0.52753  1.0000
  C   C749      1.0  0.65538  0.49326  0.75251  1.0000
  H   H745      1.0  0.87502  0.63268  0.53924  1.0000
  H   H746      1.0  0.93136  0.78401  0.95388  1.0000
  H   H747      1.0  0.67178  0.50228  0.82631  1.0000
  S   S253      1.0  0.67177  0.59605  0.50853  1.0000
  H   H748      1.0  0.65949  0.51519  0.74295  1.0000
  H   H749      1.0  0.86235  0.62125  0.59292  1.0000
  Fe  Fe126     1.0  0.64893  0.57856  0.77595  1.0000
  C   C750      1.0  0.82449  0.49371  0.75524  1.0000
  C   C751      1.0  0.69763  0.55286  0.79276  1.0000
  C   C752      1.0  0.92852  0.74211  0.92823  1.0000
  H   H750      1.0  0.89359  0.81001  0.87988  1.0000
  N   N60       1.0  0.90213  0.77282  0.90563  1.0000
  C   C753      1.0  0.92414  0.77215  0.93801  1.0000
  H   H751      1.0  0.70934  0.69130  0.56050  1.0000
  C   C754      1.0  0.86809  0.57026  0.76531  1.0000
  N   N61       1.0  0.96627  0.98477  0.78970  1.0000
  N   N62       1.0  0.72940  0.70898  0.50037  1.0000
  Fe  Fe127     1.0  0.64777  0.57922  0.49274  1.0000
  H   H752      1.0  0.86396  0.50744  0.76426  1.0000
  N   N63       1.0  0.70540  0.53140  0.77603  1.0000
  N   N64       1.0  0.97393  0.78987  0.58825  1.0000
  C   C755      1.0  0.71807  0.54287  0.75701  1.0000
  C   C756      1.0  0.96666  0.79506  0.56305  1.0000
  S   S254      1.0  0.64381  0.53033  0.79614  1.0000
  H   H753      1.0  0.73683  0.70379  0.54282  1.0000
  H   H754      1.0  0.86183  0.56575  0.74514  1.0000
  C   C757      1.0  0.85510  0.56412  0.81143  1.0000
  H   H755      1.0  0.84089  0.49738  0.84423  1.0000
  C   C758      1.0  0.85994  0.51812  0.78373  1.0000
  H   H756      1.0  0.96263  0.82076  0.61729  1.0000
  H   H757      1.0  0.97207  0.72242  0.53312  1.0000
  C   C759      1.0  0.73244  0.63048  0.50499  1.0000
  S   S255      1.0  0.83376  0.59363  0.49220  1.0000
  H   H758      1.0  0.70653  0.62533  0.50510  1.0000
  H   H759      1.0  0.96292  0.93429  0.79569  1.0000
  H   H760      1.0  0.75499  0.71029  0.50517  1.0000
  H   H761      1.0  0.75825  0.57622  0.52117  1.0000
  C   C760      1.0  0.75430  0.55151  0.51590  1.0000
  C   C761      1.0  0.68552  0.54266  0.81122  1.0000
  Fe  Fe128     1.0  0.79042  0.62852  0.49546  1.0000
  H   H762      1.0  0.76366  0.53467  0.52309  1.0000
  H   H763      1.0  0.97416  0.76848  0.69890  1.0000
  H   H764      1.0  0.67916  0.55971  0.82417  1.0000
  H   H765      1.0  0.94186  0.97089  0.79709  1.0000
  H   H766      1.0  0.64805  0.54508  0.67910  1.0000
  C   C762      1.0  0.92348  0.97519  0.85132  1.0000
  C   C763      1.0  0.71722  0.62792  0.49228  1.0000
  H   H767      1.0  0.97489  0.86201  0.50428  1.0000
  C   C764      1.0  0.64772  0.49388  0.77862  1.0000
  C   C765      1.0  0.70125  0.70112  0.49146  1.0000
  C   C766      1.0  0.95012  0.99017  0.79176  1.0000
  S   S256      1.0  0.66070  0.66837  0.48969  1.0000
  C   C767      1.0  0.74554  0.71700  0.48993  1.0000
  C   C768      1.0  0.81694  0.49120  0.78143  1.0000
  H   H768      1.0  0.96731  0.74693  0.98893  1.0000
