data_image0
_chemical_formula_structural       CFeS2FeSCFeSFeS4FeHSHC3H3NS2HSHFeSFeSHC3H3SCSCH2FeCH2NC7H4CSC5H3C6H4C6H4CSHC3HNH3NC6H8FeH3CHSH2CHC2HC2HCSH3C4NH4C5FeSH5C3HNHSH3CHSHC5Fe2HCFeHC2H6CHSCS2H3CSCHC2NSH3NSHFeCFeNFeCH2SHS2CHS2FeSFeS2H2FeS3CSHFeHSCSCHS2C7H3C2HC3HFeH2C6H4C3SH3C2H7C3H2SHC4HC2NFeC12H2C3SNC2HNHCH3FeHCHSCH4C2HCSHC2HCHC2HCH2SCSH2C3H2CHCHNHCH3S2CFeS2FeC2FeHFeS3C5H3CHC2H3SH2C2H2C2FeHC3H2NC2SNC2H2CSCH2C2H3C2HC2FeNSH2SC2FeHC4H2CHCH2C2HCH3CH2CHC2FeS2FeS2FeSFeNS3FeHSCH2FeHCH2S2HSHFeSFeSC3NHCH5C2SNCHCHC6H4C6H3C7H4C6H4CHSC3H4FeHC2HSHCHNFeCHCHCS2FeSHCHNCHC2H3NCH2NCFeC2HFeH2C2HCHC2NC2FeH6C2NCSCHS2HCSH2SHSH2CHCH4CH3CH3C2FeH4CHC2NCFeSC2H3CH2C2SCH3SFe2SFeS2HSFeS3HNHFe2SH2SHS2C6SH2C3HC3FeH3C6H4CHC3HC2H2NC2HC3SH2CH3SFeSH2CHC3NC3HC2H6CHNH3NC3SH3CHCHCH3CHCSHC4FeHCHC2H3CNHFeCH2CHFeCHC2SH4S2C2HCHS2HFeS2FeCSFeSFeS3C6H4CH2C2H2C4H2SHFeC8H2NH2SCHCHCH2C2H2SC2HC2FeH2FeNH2CH3CHCH2NH2NH2CHC3SC2HCH2C2HCHSFeS2FeS2FeS2HS3FeHS2HC2SH2NS2CSHFeSFeSC2HSCNHNCHFe2H3C2HC7H5C6H2SC6H4C6H4C6H6CH3CH2CFeHC3HCHCSFeHCHC2SHS2HCHCH5CHCH4CFeCNHCHFe2CHCHCHCHNH2CHC2HCH2NH2CH3CHCH3CHC4HCSHC2HNCHC2NHNH2CHC2SHFeCH2SHCHC3NFeSFeS2CFeCSCFeSFeS2H2FeS3HSCFeCS3CHS2CHC3H4NC6H2C8H4CH5CH3SHSCHFeC2SHC4HSHCH6CH2NC2H2C2H2CHCHFeHC2SHCH3CHCNHC2FeHCNC3HC2HCHC2HCHCH2CHCH3CH3C4HCSNHC2S3FeS2FeHFe2HFeS3C6H4CHC2SC2H2CH2C2H2C5H4CHSC3FeC2SCHCH2S2FeH2C2H2C2HNCSH2C2SCH2CH3SHFeS2FeS2FeSFeHS3FeCS4H5S2FeS2FeSFeSH2CS2C2HNCH2CHSHCSC7H4FeC6H3C6H4C6H4C5SH2CH3CSFeNHC3HNC2HC3H4FeH3C2H3CH2C2SC2H5NC6H6CH2C3H2NSHCFe2H2SNC2HNC2HCHC3HCH3C3HSH7CH2S2H2C2H2CHCH2NHCSCHC2HCH2CHCHC2HCH3SCH2SCH2CHFeSHFeSFeS2HSFeS3FeS2FeHSHCFeS3C6SHFeC3HC3H2CHC6H4NFeH2C2H5C2HC3HC7H3FeHSC2H4CH3CH2CHCSNC2SHCHC2NC6H6Fe2HCFeHCHS3FeS2FeSCFeCFeS3C6H2FeHC3HC2H3CNHC2FeC4H4SCH6SC2H2SC2HC2FeCSH2C2HCH2SHC2HCHCHC2H2C2
_chemical_formula_sum              "C768 Fe128 S256 H768 N64"
_cell_length_a       48.3406
_cell_length_b       47.1091
_cell_length_c       42.4113
_cell_angle_alpha    82.4441
_cell_angle_beta     88.0658
_cell_angle_gamma    124.842

_space_group_name_H-M_alt    "P 1"
_space_group_IT_number       1

loop_
  _space_group_symop_operation_xyz
  'x, y, z'

loop_
  _atom_site_type_symbol
  _atom_site_label
  _atom_site_symmetry_multiplicity
  _atom_site_fract_x
  _atom_site_fract_y
  _atom_site_fract_z
  _atom_site_occupancy
  C   C1        1.0  0.13022  0.12482  0.28351  1.0000
  Fe  Fe1       1.0  0.05716  0.20694  0.15226  1.0000
  S   S1        1.0  0.05434  0.19077  0.10369  1.0000
  S   S2        1.0  0.08603  0.25928  0.17072  1.0000
  Fe  Fe2       1.0  0.01205  0.13069  0.18529  1.0000
  S   S3        1.0  0.00622  0.10942  0.14018  1.0000
  C   C2        1.0  0.46203  0.34588  0.29400  1.0000
  Fe  Fe3       1.0  0.06251  0.15041  0.12808  1.0000
  S   S4        1.0  0.09581  0.13492  0.10676  1.0000
  Fe  Fe4       1.0  0.99778  0.15010  0.12124  1.0000
  S   S5        1.0  0.44108  0.11061  0.08919  1.0000
  S   S6        1.0  0.06855  0.16908  0.17506  1.0000
  S   S7        1.0  0.00047  0.16901  0.16755  1.0000
  S   S8        1.0  0.42136  0.18820  0.18182  1.0000
  Fe  Fe5       1.0  0.36770  0.22045  0.01407  1.0000
  H   H1        1.0  0.08793  0.10741  0.05024  1.0000
  S   S9        1.0  0.35057  0.21040  0.06735  1.0000
  H   H2        1.0  0.03941  0.13452  0.26134  1.0000
  C   C3        1.0  0.44416  0.28202  0.16660  1.0000
  C   C4        1.0  0.45089  0.28390  0.19827  1.0000
  C   C5        1.0  0.38052  0.12756  0.02567  1.0000
  H   H3        1.0  0.13670  0.01535  0.24166  1.0000
  H   H4        1.0  0.03627  0.13301  0.98499  1.0000
  H   H5        1.0  0.05729  0.47117  0.17312  1.0000
  N   N1        1.0  0.22102  0.41023  0.12670  1.0000
  S   S10       1.0  0.20301  0.01706  0.13040  1.0000
  S   S11       1.0  0.15435  0.42335  0.12451  1.0000
  H   H6        1.0  0.23220  0.00663  0.27513  1.0000
  S   S12       1.0  0.21400  0.02900  0.20430  1.0000
  H   H7        1.0  0.46170  0.16487  0.21172  1.0000
  Fe  Fe6       1.0  0.17458  0.01973  0.17193  1.0000
  S   S13       1.0  0.15388  0.05293  0.17744  1.0000
  Fe  Fe7       1.0  0.24062  0.02273  0.16384  1.0000
  S   S14       1.0  0.29805  0.06621  0.15582  1.0000
  H   H8        1.0  0.03305  0.12605  0.30427  1.0000
  C   C6        1.0  0.44188  0.08649  0.24508  1.0000
  C   C7        1.0  0.24642  0.42174  0.17543  1.0000
  C   C8        1.0  0.45783  0.14682  0.23385  1.0000
  H   H9        1.0  0.40379  0.15094  0.06618  1.0000
  H   H10       1.0  0.27463  0.05211  0.02438  1.0000
  H   H11       1.0  0.47480  0.05790  0.98069  1.0000
  S   S15       1.0  0.37107  0.12648  0.26571  1.0000
  C   C9        1.0  0.11488  0.98804  0.24658  1.0000
  S   S16       1.0  0.36819  0.19518  0.25243  1.0000
  C   C10       1.0  0.22134  0.99082  0.29895  1.0000
  H   H12       1.0  0.24889  0.41209  0.19908  1.0000
  H   H13       1.0  0.20402  0.45062  0.27616  1.0000
  Fe  Fe8       1.0  0.40031  0.17943  0.23348  1.0000
  C   C11       1.0  0.28861  0.08067  0.01458  1.0000
  H   H14       1.0  0.15155  0.14219  0.03417  1.0000
  H   H15       1.0  0.37218  0.05157  0.08648  1.0000
  N   N2        1.0  0.07107  0.12179  0.28311  1.0000
  C   C12       1.0  0.39943  0.11455  0.13219  1.0000
  C   C13       1.0  0.40269  0.19621  0.15000  1.0000
  C   C14       1.0  0.37567  0.19880  0.15585  1.0000
  C   C15       1.0  0.36086  0.20454  0.13010  1.0000
  C   C16       1.0  0.37294  0.20781  0.09833  1.0000
  C   C17       1.0  0.40103  0.20691  0.09235  1.0000
  C   C18       1.0  0.41560  0.20070  0.11815  1.0000
  H   H16       1.0  0.36598  0.19612  0.18021  1.0000
  H   H17       1.0  0.33956  0.20594  0.13484  1.0000
  H   H18       1.0  0.41084  0.20997  0.06791  1.0000
  H   H19       1.0  0.43668  0.19898  0.11343  1.0000
  C   C19       1.0  0.00685  0.25420  0.15994  1.0000
  S   S17       1.0  0.20806  0.46956  0.19458  1.0000
  C   C20       1.0  0.36752  0.10439  0.14624  1.0000
  C   C21       1.0  0.33709  0.07496  0.13936  1.0000
  C   C22       1.0  0.33897  0.05553  0.11817  1.0000
  C   C23       1.0  0.37100  0.06615  0.10353  1.0000
  C   C24       1.0  0.11787  0.12674  0.25458  1.0000
  H   H20       1.0  0.36647  0.11986  0.16226  1.0000
  H   H21       1.0  0.31581  0.03301  0.11234  1.0000
  H   H22       1.0  0.15808  0.03377  0.29435  1.0000
  C   C25       1.0  0.11114  0.11145  0.12701  1.0000
  C   C26       1.0  0.12394  0.09720  0.10901  1.0000
  C   C27       1.0  0.13672  0.07896  0.12385  1.0000
  C   C28       1.0  0.13712  0.07476  0.15709  1.0000
  C   C29       1.0  0.12459  0.08919  0.17509  1.0000
  C   C30       1.0  0.11179  0.10742  0.16024  1.0000
  H   H23       1.0  0.12372  0.09989  0.08341  1.0000
  H   H24       1.0  0.14622  0.06812  0.10955  1.0000
  H   H25       1.0  0.12429  0.08573  0.20083  1.0000
  H   H26       1.0  0.10212  0.11809  0.17456  1.0000
  C   C31       1.0  0.10301  0.30442  0.15757  1.0000
  C   C32       1.0  0.10126  0.31760  0.12673  1.0000
  C   C33       1.0  0.11598  0.35387  0.11741  1.0000
  C   C34       1.0  0.13264  0.37739  0.13872  1.0000
  C   C35       1.0  0.13397  0.36411  0.16968  1.0000
  C   C36       1.0  0.11924  0.32788  0.17899  1.0000
  H   H27       1.0  0.08895  0.29997  0.10994  1.0000
  H   H28       1.0  0.11492  0.36386  0.09334  1.0000
  H   H29       1.0  0.14675  0.38180  0.18633  1.0000
  H   H30       1.0  0.12060  0.31795  0.20296  1.0000
  C   C37       1.0  0.20017  0.38525  0.10597  1.0000
  S   S18       1.0  0.16125  0.47598  0.27215  1.0000
  H   H31       1.0  0.17938  0.35925  0.12036  1.0000
  C   C38       1.0  0.46033  0.09176  0.01682  1.0000
  C   C39       1.0  0.01916  0.06712  0.20517  1.0000
  C   C40       1.0  0.02691  0.04278  0.20435  1.0000
  H   H32       1.0  0.45846  0.27675  0.12045  1.0000
  N   N3        1.0  0.43676  0.11012  0.22951  1.0000
  H   H33       1.0  0.03612  0.09325  0.19121  1.0000
  H   H34       1.0  0.04973  0.05019  0.19006  1.0000
  H   H35       1.0  0.29346  0.08507  0.98796  1.0000
  N   N4        1.0  0.28113  0.12252  0.18997  1.0000
  C   C41       1.0  0.25419  0.11820  0.20726  1.0000
  C   C42       1.0  0.28522  0.12936  0.15714  1.0000
  C   C43       1.0  0.23039  0.12061  0.19169  1.0000
  C   C44       1.0  0.26214  0.13237  0.14075  1.0000
  C   C45       1.0  0.23443  0.12773  0.15821  1.0000
  C   C46       1.0  0.30497  0.11874  0.20710  1.0000
  H   H36       1.0  0.25076  0.11224  0.23326  1.0000
  H   H37       1.0  0.30631  0.13229  0.14340  1.0000
  H   H38       1.0  0.20838  0.11596  0.20541  1.0000
  H   H39       1.0  0.26559  0.13793  0.11472  1.0000
  H   H40       1.0  0.21565  0.12887  0.14590  1.0000
  H   H41       1.0  0.29198  0.09094  0.21932  1.0000
  H   H42       1.0  0.32732  0.12603  0.19073  1.0000
  H   H43       1.0  0.31441  0.13588  0.22533  1.0000
  Fe  Fe9       1.0  0.34067  0.14378  0.28756  1.0000
  H   H44       1.0  0.03790  0.10691  0.03948  1.0000
  H   H45       1.0  0.43908  0.41014  0.98071  1.0000
  H   H46       1.0  0.07773  0.12511  0.23248  1.0000
  C   C47       1.0  0.99058  0.05799  0.22515  1.0000
  H   H47       1.0  0.13089  0.12878  0.23217  1.0000
  S   S19       1.0  0.41967  0.24152  0.98942  1.0000
  H   H48       1.0  0.21002  0.37007  0.16559  1.0000
  H   H49       1.0  0.43632  0.07722  0.03368  1.0000
  C   C48       1.0  0.22442  0.39814  0.15642  1.0000
  H   H50       1.0  0.45388  0.09016  0.99194  1.0000
  C   C49       1.0  0.00576  0.25716  0.19219  1.0000
  C   C50       1.0  0.35011  0.10918  0.01241  1.0000
  H   H51       1.0  0.01785  0.09004  0.28308  1.0000
  C   C51       1.0  0.26516  0.45786  0.16373  1.0000
  C   C52       1.0  0.08790  0.12486  0.25487  1.0000
  H   H52       1.0  0.02585  0.25172  0.14909  1.0000
  C   C53       1.0  0.24211  0.09269  0.30279  1.0000
  S   S20       1.0  0.43900  0.20511  0.26676  1.0000
  H   H53       1.0  0.18776  0.39489  0.09084  1.0000
  H   H54       1.0  0.28232  0.47655  0.17817  1.0000
  H   H55       1.0  0.00571  0.38683  0.30547  1.0000
  C   C54       1.0  0.41077  0.09929  0.21134  1.0000
  C   C55       1.0  0.42174  0.05128  0.24148  1.0000
  C   C56       1.0  0.38992  0.06420  0.20734  1.0000
  C   C57       1.0  0.39566  0.04015  0.22235  1.0000
  N   N5        1.0  0.11499  0.13486  0.00338  1.0000
  H   H56       1.0  0.21621  0.38152  0.09020  1.0000
  H   H57       1.0  0.27218  0.08934  0.02023  1.0000
  H   H58       1.0  0.42652  0.03294  0.25343  1.0000
  H   H59       1.0  0.36950  0.05578  0.19265  1.0000
  C   C58       1.0  0.08580  0.46160  0.24312  1.0000
  C   C59       1.0  0.26116  0.46995  0.13361  1.0000
  C   C60       1.0  0.38043  0.13695  0.05547  1.0000
  C   C61       1.0  0.14441  0.13477  0.01041  1.0000
  C   C62       1.0  0.32004  0.10903  0.05799  1.0000
  Fe  Fe10      1.0  0.02848  0.98764  0.28276  1.0000
  S   S21       1.0  0.28274  0.10234  0.28990  1.0000
  H   H60       1.0  0.34958  0.13457  0.09506  1.0000
  H   H61       1.0  0.13824  0.10816  0.01024  1.0000
  H   H62       1.0  0.29649  0.10149  0.07115  1.0000
  H   H63       1.0  0.16703  0.15390  0.99223  1.0000
  H   H64       1.0  0.46194  0.09492  0.26017  1.0000
  C   C63       1.0  0.23879  0.44562  0.11531  1.0000
  C   C64       1.0  0.05920  0.11886  0.02065  1.0000
  C   C65       1.0  0.05840  0.13364  0.99025  1.0000
  H   H65       1.0  0.42249  0.13771  0.13737  1.0000
  N   N6        1.0  0.32045  0.10049  0.02845  1.0000
  H   H66       1.0  0.21571  0.05013  0.27646  1.0000
  S   S22       1.0  0.33885  0.17663  0.98601  1.0000
  H   H67       1.0  0.44542  0.15008  0.25404  1.0000
  H   H68       1.0  0.15270  0.12487  0.28389  1.0000
  H   H69       1.0  0.08281  0.44165  0.26186  1.0000
  C   C66       1.0  0.40141  0.09576  0.11045  1.0000
  H   H70       1.0  0.04892  0.42449  0.21618  1.0000
  S   S23       1.0  0.43057  0.27768  0.28456  1.0000
  H   H71       1.0  0.35055  0.10236  0.98902  1.0000
  C   C67       1.0  0.00641  0.00963  0.22383  1.0000
  C   C68       1.0  0.06704  0.45204  0.21738  1.0000
  C   C69       1.0  0.18300  0.47146  0.30284  1.0000
  C   C70       1.0  0.08774  0.11942  0.02671  1.0000
  C   C71       1.0  0.20182  0.45782  0.29881  1.0000
  Fe  Fe11      1.0  0.40789  0.15289  0.30063  1.0000
  Fe  Fe12      1.0  0.17796  0.46696  0.15438  1.0000
  H   H72       1.0  0.45991  0.35134  0.26897  1.0000
  C   C72       1.0  0.46415  0.27862  0.14493  1.0000
  Fe  Fe13      1.0  0.40557  0.21839  0.28815  1.0000
  H   H73       1.0  0.42321  0.28250  0.15900  1.0000
  C   C73       1.0  0.03886  0.11801  0.28299  1.0000
  C   C74       1.0  0.35004  0.12772  0.07172  1.0000
  H   H74       1.0  0.40612  0.11788  0.19984  1.0000
  H   H75       1.0  0.99762  0.33882  0.27917  1.0000
  H   H76       1.0  0.37984  0.01294  0.21923  1.0000
  H   H77       1.0  0.99057  0.19918  0.03603  1.0000
  H   H78       1.0  0.40400  0.13454  0.01288  1.0000
  H   H79       1.0  0.02400  0.25701  0.20637  1.0000
  C   C75       1.0  0.07188  0.47815  0.19314  1.0000
  H   H80       1.0  0.08766  0.99558  0.21104  1.0000
  S   S24       1.0  0.02219  0.98456  0.23135  1.0000
  C   C76       1.0  0.21293  0.06474  0.29240  1.0000
  S   S25       1.0  0.36174  0.25811  0.98158  1.0000
  S   S26       1.0  0.05507  0.03969  0.29853  1.0000
  H   H81       1.0  0.47547  0.11994  0.01916  1.0000
  H   H82       1.0  0.43531  0.28605  0.21550  1.0000
  H   H83       1.0  0.23552  0.45516  0.09203  1.0000
  C   C77       1.0  0.44939  0.31124  0.30850  1.0000
  S   S27       1.0  0.98297  0.08954  0.22865  1.0000
  C   C78       1.0  0.98327  0.25419  0.14186  1.0000
  H   H84       1.0  0.98363  0.25151  0.11685  1.0000
  C   C79       1.0  0.47764  0.28280  0.20781  1.0000
  C   C80       1.0  0.18009  0.05531  0.30250  1.0000
  N   N7        1.0  0.47968  0.07720  0.02453  1.0000
  S   S28       1.0  0.14812  0.48165  0.18121  1.0000
  H   H85       1.0  0.11443  0.47860  0.43729  1.0000
  H   H86       1.0  0.07253  0.40886  0.33525  1.0000
  H   H87       1.0  0.25987  0.13267  0.33175  1.0000
  N   N8        1.0  0.08240  0.43279  0.37712  1.0000
  S   S29       1.0  0.05402  0.47408  0.31583  1.0000
  H   H88       1.0  0.98740  0.10199  0.36433  1.0000
  Fe  Fe14      1.0  0.20494  0.99130  0.50247  1.0000
  C   C81       1.0  0.05307  0.26547  0.51525  1.0000
  Fe  Fe15      1.0  0.00598  0.09481  0.54528  1.0000
  N   N9        1.0  0.34834  0.04760  0.39179  1.0000
  Fe  Fe16      1.0  0.00253  0.44486  0.34510  1.0000
  C   C82       1.0  0.32682  0.01647  0.41273  1.0000
  H   H89       1.0  0.20199  0.11526  0.35062  1.0000
  H   H90       1.0  0.02971  0.39593  0.37383  1.0000
  S   S30       1.0  0.99496  0.04680  0.35503  1.0000
  H   H91       1.0  0.12141  0.11842  0.33488  1.0000
  S   S31       1.0  0.46458  0.01445  0.34327  1.0000
  S   S32       1.0  0.44109  0.13677  0.32311  1.0000
  C   C83       1.0  0.31256  0.08405  0.55004  1.0000
  H   H92       1.0  0.03024  0.17655  0.46969  1.0000
  S   S33       1.0  0.37612  0.16750  0.32509  1.0000
  S   S34       1.0  0.03651  0.99453  0.37051  1.0000
  Fe  Fe17      1.0  0.03233  0.10137  0.61110  1.0000
  S   S35       1.0  0.00795  0.05756  0.58250  1.0000
  Fe  Fe18      1.0  0.07879  0.15657  0.55221  1.0000
  S   S36       1.0  0.05779  0.11570  0.52030  1.0000
  S   S37       1.0  0.11969  0.21275  0.52550  1.0000
  H   H93       1.0  0.22944  0.01447  0.56576  1.0000
  H   H94       1.0  0.13035  0.48206  0.53866  1.0000
  Fe  Fe19      1.0  0.06155  0.08155  0.55974  1.0000
  S   S38       1.0  0.07162  0.04015  0.55310  1.0000
  S   S39       1.0  0.02691  0.13739  0.57512  1.0000
  S   S40       1.0  0.08595  0.12349  0.59042  1.0000
  C   C84       1.0  0.14848  0.00647  0.41533  1.0000
  S   S41       1.0  0.25666  0.01659  0.47435  1.0000
  H   H95       1.0  0.24587  0.07448  0.39964  1.0000
  Fe  Fe20      1.0  0.19112  0.41859  0.50324  1.0000
  H   H96       1.0  0.44259  0.27826  0.35258  1.0000
  S   S42       1.0  0.15400  0.36419  0.53511  1.0000
  C   C85       1.0  0.09555  0.45990  0.42383  1.0000
  S   S43       1.0  0.19737  0.03202  0.51766  1.0000
  C   C86       1.0  0.42121  0.06760  0.32465  1.0000
  H   H97       1.0  0.46882  0.32688  0.38387  1.0000
  S   S44       1.0  0.17237  0.43601  0.46215  1.0000
  S   S45       1.0  0.24225  0.44037  0.47591  1.0000
  C   C87       1.0  0.34945  0.01493  0.52786  1.0000
  C   C88       1.0  0.20489  0.10123  0.33406  1.0000
  C   C89       1.0  0.40305  0.02995  0.54697  1.0000
  C   C90       1.0  0.41854  0.06583  0.53594  1.0000
  C   C91       1.0  0.39931  0.07593  0.52033  1.0000
  C   C92       1.0  0.36517  0.05072  0.51605  1.0000
  C   C93       1.0  0.16514  0.02729  0.43827  1.0000
  H   H98       1.0  0.41728  0.02160  0.55906  1.0000
  H   H99       1.0  0.41095  0.10356  0.51155  1.0000
  H   H100      1.0  0.35090  0.05906  0.50404  1.0000
  C   C94       1.0  0.10712  0.03894  0.54237  1.0000
  C   C95       1.0  0.10100  0.00668  0.53814  1.0000
  H   H101      1.0  0.30049  0.99861  0.40910  1.0000
  C   C96       1.0  0.16184  0.03365  0.52678  1.0000
  C   C97       1.0  0.16795  0.06594  0.53082  1.0000
  C   C98       1.0  0.14089  0.06866  0.53840  1.0000
  H   H102      1.0  0.39605  0.06054  0.32146  1.0000
  Fe  Fe21      1.0  0.22452  0.46069  0.43613  1.0000
  H   H103      1.0  0.19387  0.08913  0.52815  1.0000
  H   H104      1.0  0.14621  0.09369  0.54149  1.0000
  C   C99       1.0  0.13042  0.25488  0.53029  1.0000
  C   C100      1.0  0.11297  0.25910  0.55410  1.0000
  C   C101      1.0  0.12131  0.29288  0.55579  1.0000
  C   C102      1.0  0.14691  0.32284  0.53356  1.0000
  C   C103      1.0  0.16467  0.31867  0.51003  1.0000
  C   C104      1.0  0.15654  0.28494  0.50853  1.0000
  H   H105      1.0  0.09297  0.23636  0.57113  1.0000
  H   H106      1.0  0.10749  0.29576  0.57420  1.0000
  H   H107      1.0  0.18448  0.34137  0.49283  1.0000
  H   H108      1.0  0.17037  0.28208  0.49011  1.0000
  C   C105      1.0  0.06089  0.44098  0.43472  1.0000
  C   C106      1.0  0.09520  0.28096  0.47151  1.0000
  C   C107      1.0  0.45217  0.30468  0.34101  1.0000
  S   S46       1.0  0.13461  0.06029  0.33977  1.0000
  H   H109      1.0  0.05520  0.17687  0.50054  1.0000
  H   H110      1.0  0.32105  0.06729  0.37317  1.0000
  H   H111      1.0  0.39825  0.09550  0.38084  1.0000
  C   C108      1.0  0.47695  0.37351  0.31166  1.0000
  C   C109      1.0  0.36878  0.00479  0.54309  1.0000
  H   H112      1.0  0.09183  0.23742  0.45641  1.0000
  H   H113      1.0  0.43761  0.46902  0.62238  1.0000
  H   H114      1.0  0.09386  0.31886  0.49369  1.0000
  H   H115      1.0  0.04303  0.27322  0.53287  1.0000
  H   H116      1.0  0.12110  0.98726  0.41983  1.0000
  H   H117      1.0  0.06840  0.11527  0.33410  1.0000
  H   H118      1.0  0.26612  0.07631  0.53711  1.0000
  C   C110      1.0  0.08150  0.29112  0.49313  1.0000
  C   C111      1.0  0.04839  0.41393  0.38776  1.0000
  C   C112      1.0  0.22496  0.98351  0.35656  1.0000
  H   H119      1.0  0.26257  0.02938  0.32163  1.0000
  H   H120      1.0  0.42023  0.07978  0.42661  1.0000
  S   S47       1.0  0.02174  0.48124  0.38131  1.0000
  H   H121      1.0  0.30941  0.99073  0.59429  1.0000
  C   C113      1.0  0.23860  0.00360  0.32540  1.0000
  C   C114      1.0  0.00524  0.01516  0.50726  1.0000
  C   C115      1.0  0.45951  0.04943  0.33411  1.0000
  C   C116      1.0  0.19531  0.47515  0.35817  1.0000
  H   H122      1.0  0.01000  0.40325  0.42441  1.0000
  C   C117      1.0  0.21769  0.45331  0.32429  1.0000
  C   C118      1.0  0.46710  0.33237  0.35871  1.0000
  N   N10       1.0  0.16646  0.01010  0.38766  1.0000
  Fe  Fe22      1.0  0.07975  0.02032  0.32987  1.0000
  C   C119      1.0  0.11267  0.12132  0.31222  1.0000
  C   C120      1.0  0.03710  0.41782  0.41660  1.0000
  C   C121      1.0  0.32650  0.06827  0.56649  1.0000
  C   C122      1.0  0.25680  0.02970  0.56575  1.0000
  C   C123      1.0  0.20098  0.03445  0.38188  1.0000
  C   C124      1.0  0.33842  0.00716  0.43919  1.0000
  C   C125      1.0  0.21846  0.05562  0.40430  1.0000
  C   C126      1.0  0.20037  0.05193  0.43269  1.0000
  C   C127      1.0  0.33538  0.05723  0.36472  1.0000
  C   C128      1.0  0.42707  0.04119  0.32951  1.0000
  C   C129      1.0  0.09395  0.42935  0.34635  1.0000
  C   C130      1.0  0.12806  0.00403  0.53028  1.0000
  H   H123      1.0  0.11820  0.30075  0.45521  1.0000
  H   H124      1.0  0.21358  0.06796  0.45048  1.0000
  C   C131      1.0  0.23785  0.11117  0.32344  1.0000
  C   C132      1.0  0.27745  0.06456  0.54974  1.0000
  C   C133      1.0  0.21433  0.46175  0.35411  1.0000
  S   S48       1.0  0.23645  0.45791  0.38480  1.0000
  N   N11       1.0  0.05200  0.22015  0.49377  1.0000
  C   C134      1.0  0.08020  0.24514  0.47234  1.0000
  C   C135      1.0  0.03855  0.22986  0.51528  1.0000
  H   H125      1.0  0.35382  0.08361  0.56667  1.0000
  N   N12       1.0  0.30607  0.03378  0.58157  1.0000
  H   H126      1.0  0.32884  0.11119  0.53761  1.0000
  C   C136      1.0  0.03684  0.18287  0.49383  1.0000
  H   H127      1.0  0.01686  0.21010  0.53295  1.0000
  H   H128      1.0  0.00388  0.00978  0.53316  1.0000
  H   H129      1.0  0.40615  0.01406  0.33009  1.0000
  Fe  Fe23      1.0  0.01108  0.01274  0.33795  1.0000
  H   H130      1.0  0.34865  0.03285  0.59207  1.0000
  C   C137      1.0  0.98438  0.35989  0.31436  1.0000
  H   H131      1.0  0.38160  0.02292  0.46446  1.0000
  S   S49       1.0  0.46092  0.09926  0.54231  1.0000
  C   C138      1.0  0.14829  0.98735  0.36446  1.0000
  H   H132      1.0  0.35627  0.07771  0.34553  1.0000
  H   H133      1.0  0.31775  0.03395  0.35374  1.0000
  H   H134      1.0  0.31588  0.01602  0.62551  1.0000
  H   H135      1.0  0.21537  0.03754  0.35995  1.0000
  C   C139      1.0  0.27162  0.01452  0.58141  1.0000
  C   C140      1.0  0.38136  0.07042  0.39689  1.0000
  H   H136      1.0  0.12914  0.99153  0.35602  1.0000
  C   C141      1.0  0.32074  0.01764  0.59935  1.0000
  S   S50       1.0  0.21111  0.46788  0.52441  1.0000
  H   H137      1.0  0.05255  0.44452  0.45699  1.0000
  C   C142      1.0  0.08282  0.11964  0.31161  1.0000
  C   C143      1.0  0.18030  0.48061  0.33240  1.0000
  H   H138      1.0  0.01110  0.03628  0.41537  1.0000
  C   C144      1.0  0.47945  0.36694  0.34423  1.0000
  H   H139      1.0  0.25542  0.98714  0.59323  1.0000
  C   C145      1.0  0.17574  0.07311  0.32385  1.0000
  C   C146      1.0  0.39392  0.06177  0.42287  1.0000
  H   H140      1.0  0.10705  0.45476  0.32921  1.0000
  C   C147      1.0  0.44759  0.10271  0.32516  1.0000
  H   H141      1.0  0.11191  0.42198  0.34975  1.0000
  H   H142      1.0  0.23256  0.44314  0.32095  1.0000
  S   S51       1.0  0.24750  0.00134  0.38900  1.0000
  C   C148      1.0  0.02982  0.02107  0.45430  1.0000
  S   S52       1.0  0.98492  0.47439  0.31673  1.0000
  H   H143      1.0  0.15094  0.02416  0.46037  1.0000
  H   H144      1.0  0.04742  0.02007  0.43874  1.0000
  C   C149      1.0  0.10588  0.45552  0.39475  1.0000
  C   C150      1.0  0.37227  0.02987  0.44407  1.0000
  C   C151      1.0  0.00914  0.03018  0.44122  1.0000
  H   H145      1.0  0.13282  0.47115  0.38608  1.0000
  H   H146      1.0  0.04395  0.00679  0.49811  1.0000
  C   C152      1.0  0.02780  0.01352  0.48755  1.0000
  H   H147      1.0  0.01315  0.16513  0.51114  1.0000
  C   C153      1.0  0.48000  0.11093  0.32970  1.0000
  H   H148      1.0  0.16586  0.99304  0.34312  1.0000
  N   N13       1.0  0.98684  0.03143  0.46071  1.0000
  H   H149      1.0  0.07509  0.98339  0.54126  1.0000
  C   C154      1.0  0.98494  0.02439  0.49338  1.0000
  H   H150      1.0  0.19325  0.48252  0.38078  1.0000
  H   H151      1.0  0.05788  0.02532  0.64255  1.0000
  H   H152      1.0  0.04088  0.05099  0.64155  1.0000
  S   S53       1.0  0.38567  0.23570  0.92268  1.0000
  S   S54       1.0  0.45386  0.33120  0.92759  1.0000
  C   C155      1.0  0.04761  0.17376  0.83536  1.0000
  Fe  Fe24      1.0  0.08847  0.09019  0.90844  1.0000
  S   S55       1.0  0.06522  0.04948  0.87648  1.0000
  S   S56       1.0  0.13097  0.09910  0.93831  1.0000
  Fe  Fe25      1.0  0.03287  0.10437  0.90136  1.0000
  C   C156      1.0  0.19493  0.12495  0.95538  1.0000
  C   C157      1.0  0.07395  0.04561  0.70743  1.0000
  Fe  Fe26      1.0  0.01425  0.02948  0.90247  1.0000
  H   H153      1.0  0.18039  0.16329  0.89080  1.0000
  Fe  Fe27      1.0  0.05899  0.08752  0.84475  1.0000
  S   S57       1.0  0.07984  0.10458  0.79132  1.0000
  S   S58       1.0  0.03759  0.06770  0.93664  1.0000
  S   S59       1.0  0.08545  0.12942  0.87530  1.0000
  C   C158      1.0  0.02959  0.09335  0.69897  1.0000
  C   C159      1.0  0.06493  0.11257  0.69761  1.0000
  C   C160      1.0  0.07984  0.11650  0.72619  1.0000
  C   C161      1.0  0.05968  0.10120  0.75639  1.0000
  C   C162      1.0  0.02436  0.08258  0.75779  1.0000
  H   H154      1.0  0.99608  0.00807  0.68491  1.0000
  H   H155      1.0  0.08075  0.12407  0.67456  1.0000
  H   H156      1.0  0.10720  0.13105  0.72486  1.0000
  C   C163      1.0  0.38442  0.38886  0.92494  1.0000
  H   H157      1.0  0.08543  0.15977  0.94254  1.0000
  C   C164      1.0  0.46316  0.37248  0.93351  1.0000
  C   C165      1.0  0.44542  0.37523  0.95828  1.0000
  H   H158      1.0  0.08500  0.04525  0.75646  1.0000
  H   H159      1.0  0.34822  0.33366  0.94349  1.0000
  H   H160      1.0  0.18158  0.10233  0.97467  1.0000
  S   S60       1.0  0.00627  0.06505  0.86856  1.0000
  H   H161      1.0  0.24442  0.14493  0.97047  1.0000
  H   H162      1.0  0.42006  0.35931  0.86445  1.0000
  C   C166      1.0  0.23067  0.14909  0.95307  1.0000
  C   C167      1.0  0.43773  0.15932  0.94243  1.0000
  H   H163      1.0  0.35820  0.29845  0.88012  1.0000
  H   H164      1.0  0.37520  0.39705  0.94288  1.0000
  C   C168      1.0  0.47238  0.00114  0.84260  1.0000
  C   C169      1.0  0.43811  0.13677  0.92393  1.0000
  Fe  Fe28      1.0  0.33600  0.21550  0.95188  1.0000
  H   H165      1.0  0.01490  0.19241  0.94195  1.0000
  C   C170      1.0  0.17634  0.12970  0.93301  1.0000
  C   C171      1.0  0.19412  0.15910  0.90821  1.0000
  C   C172      1.0  0.24849  0.17849  0.92823  1.0000
  H   H166      1.0  0.02428  0.00880  0.77988  1.0000
  H   H167      1.0  0.45212  0.24725  0.92390  1.0000
  N   N14       1.0  0.99748  0.17167  0.82770  1.0000
  C   C173      1.0  0.05862  0.04622  0.65284  1.0000
  C   C174      1.0  0.47812  0.43920  0.93979  1.0000
  S   S61       1.0  0.02255  0.14214  0.91927  1.0000
  N   N15       1.0  0.04922  0.03573  0.68777  1.0000
  C   C175      1.0  0.45304  0.40839  0.96149  1.0000
  C   C176      1.0  0.99156  0.17419  0.93281  1.0000
  H   H168      1.0  0.46428  0.11464  0.90921  1.0000
  H   H169      1.0  0.02987  0.19681  0.86275  1.0000
  C   C177      1.0  0.98786  0.14601  0.92047  1.0000
  S   S62       1.0  0.40451  0.16538  0.94025  1.0000
  C   C178      1.0  0.02518  0.18223  0.84343  1.0000
  H   H170      1.0  0.13532  0.16015  0.95451  1.0000
  H   H171      1.0  0.34347  0.28804  0.92207  1.0000
  C   C179      1.0  0.03118  0.01555  0.75400  1.0000
  C   C180      1.0  0.36945  0.35311  0.92526  1.0000
  H   H172      1.0  0.42487  0.44195  0.90226  1.0000
  H   H173      1.0  0.46394  0.19386  0.97585  1.0000
  H   H174      1.0  0.46016  0.22182  0.87836  1.0000
  C   C181      1.0  0.01563  0.01534  0.70049  1.0000
  C   C182      1.0  0.41220  0.41410  0.90201  1.0000
  H   H175      1.0  0.41809  0.12321  0.90924  1.0000
  C   C183      1.0  0.46436  0.13187  0.92381  1.0000
  C   C184      1.0  0.22988  0.18325  0.90589  1.0000
  Fe  Fe29      1.0  0.39078  0.20012  0.95909  1.0000
  N   N16       1.0  0.38187  0.34286  0.90327  1.0000
  S   S63       1.0  0.29368  0.21025  0.92403  1.0000
  H   H176      1.0  0.38502  0.29952  0.90929  1.0000
  H   H177      1.0  0.00803  0.45568  0.89334  1.0000
  S   S64       1.0  0.00919  0.08480  0.66386  1.0000
  C   C185      1.0  0.40938  0.36745  0.88097  1.0000
  C   C186      1.0  0.42481  0.40340  0.87986  1.0000
  Fe  Fe30      1.0  0.41140  0.27598  0.95457  1.0000
  H   H178      1.0  0.00913  0.12971  0.77539  1.0000
  C   C187      1.0  0.46380  0.17653  0.96135  1.0000
  C   C188      1.0  0.08605  0.14879  0.96642  1.0000
  C   C189      1.0  0.98630  0.43236  0.90833  1.0000
  C   C190      1.0  0.11426  0.14905  0.97339  1.0000
  H   H179      1.0  0.24324  0.20579  0.88653  1.0000
  H   H180      1.0  0.06913  0.18160  0.84839  1.0000
  C   C191      1.0  0.01372  0.14438  0.79465  1.0000
  H   H181      1.0  0.44725  0.42291  0.86280  1.0000
  C   C192      1.0  0.36636  0.30545  0.90375  1.0000
  H   H182      1.0  0.05910  0.14810  0.80427  1.0000
  H   H183      1.0  0.00851  0.07042  0.78083  1.0000
  C   C193      1.0  0.00945  0.07879  0.72920  1.0000
  C   C194      1.0  0.04183  0.15477  0.81078  1.0000
  H   H184      1.0  0.10058  0.06198  0.69742  1.0000
  C   C195      1.0  0.06533  0.03596  0.74082  1.0000
  H   H185      1.0  0.99243  0.39659  0.88723  1.0000
  H   H186      1.0  0.42587  0.35185  0.97502  1.0000
  H   H187      1.0  0.47216  0.02419  0.84096  1.0000
  C   C196      1.0  0.00610  0.00496  0.73376  1.0000
  H   H188      1.0  0.98917  0.46110  0.83574  1.0000
  H   H189      1.0  0.08447  0.07122  0.64617  1.0000
  C   C197      1.0  0.47951  0.26865  0.91650  1.0000
  H   H190      1.0  0.98207  0.06378  0.73047  1.0000
  C   C198      1.0  0.99162  0.15307  0.80350  1.0000
  C   C199      1.0  0.05964  0.94167  0.23550  1.0000
  Fe  Fe31      1.0  0.05261  0.70785  0.10160  1.0000
  S   S65       1.0  0.03824  0.66785  0.06917  1.0000
  S   S66       1.0  0.07250  0.76464  0.08101  1.0000
  Fe  Fe32      1.0  0.02602  0.65279  0.15986  1.0000
  S   S67       1.0  0.00874  0.60868  0.13329  1.0000
  S   S68       1.0  0.01692  0.63864  0.21294  1.0000
  Fe  Fe33      1.0  0.05958  0.64570  0.10310  1.0000
  S   S69       1.0  0.08399  0.61901  0.08631  1.0000
  Fe  Fe34      1.0  0.98852  0.63310  0.10214  1.0000
  N   N17       1.0  0.11300  0.52264  0.22089  1.0000
  S   S70       1.0  0.07834  0.68897  0.13210  1.0000
  S   S71       1.0  0.00126  0.67406  0.13193  1.0000
  S   S72       1.0  0.40446  0.67844  0.18255  1.0000
  Fe  Fe35      1.0  0.36926  0.72915  0.01216  1.0000
  H   H191      1.0  0.07137  0.88085  0.14260  1.0000
  S   S73       1.0  0.35427  0.72661  0.06431  1.0000
  C   C200      1.0  0.43898  0.60514  0.23931  1.0000
  H   H192      1.0  0.30820  0.64169  0.09611  1.0000
  H   H193      1.0  0.20131  0.57667  0.27009  1.0000
  Fe  Fe36      1.0  0.18168  0.48869  0.21947  1.0000
  H   H194      1.0  0.40217  0.53965  0.30532  1.0000
  C   C201      1.0  0.08752  0.97688  0.22917  1.0000
  H   H195      1.0  0.16312  0.56773  0.22034  1.0000
  H   H196      1.0  0.30612  0.62931  0.22510  1.0000
  S   S74       1.0  0.21776  0.52311  0.12877  1.0000
  S   S75       1.0  0.14595  0.91809  0.11757  1.0000
  H   H197      1.0  0.99069  0.94425  0.99579  1.0000
  S   S76       1.0  0.22126  0.54525  0.19856  1.0000
  H   H198      1.0  0.42764  0.69136  0.02002  1.0000
  Fe  Fe37      1.0  0.18930  0.53774  0.15858  1.0000
  S   S77       1.0  0.18238  0.58266  0.14871  1.0000
  Fe  Fe38      1.0  0.24620  0.52627  0.17074  1.0000
  S   S78       1.0  0.30207  0.54923  0.17561  1.0000
  C   C202      1.0  0.05939  0.91809  0.25949  1.0000
  C   C203      1.0  0.00856  0.55903  0.04215  1.0000
  C   C204      1.0  0.43678  0.81121  0.05417  1.0000
  N   N18       1.0  0.08599  0.92941  0.27696  1.0000
  H   H199      1.0  0.26019  0.63738  0.12474  1.0000
  C   C205      1.0  0.19917  0.57575  0.29574  1.0000
  H   H200      1.0  0.05290  0.82513  0.12607  1.0000
  H   H201      1.0  0.13519  0.97271  0.28377  1.0000
  H   H202      1.0  0.01197  0.67115  0.30818  1.0000
  H   H203      1.0  0.05190  0.53139  0.04186  1.0000
  H   H204      1.0  0.11191  0.67044  0.24677  1.0000
  C   C206      1.0  0.45060  0.82671  0.02202  1.0000
  C   C207      1.0  0.09213  0.66111  0.26650  1.0000
  S   S79       1.0  0.34292  0.68307  0.98669  1.0000
  N   N19       1.0  0.29499  0.62963  0.14688  1.0000
  C   C208      1.0  0.07030  0.67164  0.26469  1.0000
  H   H205      1.0  0.41331  0.59435  0.25153  1.0000
  C   C209      1.0  0.30733  0.62675  0.17477  1.0000
  H   H206      1.0  0.09053  0.88767  0.29155  1.0000
  C   C210      1.0  0.39142  0.69331  0.14992  1.0000
  C   C211      1.0  0.37194  0.70612  0.15436  1.0000
  C   C212      1.0  0.36078  0.71627  0.12785  1.0000
  C   C213      1.0  0.36962  0.71444  0.09667  1.0000
  C   C214      1.0  0.38983  0.70250  0.09210  1.0000
  C   C215      1.0  0.40047  0.69172  0.11870  1.0000
  H   H207      1.0  0.36493  0.70758  0.17829  1.0000
  H   H208      1.0  0.34506  0.72542  0.13156  1.0000
  H   H209      1.0  0.39649  0.70077  0.06819  1.0000
  H   H210      1.0  0.41509  0.68128  0.11530  1.0000
  C   C216      1.0  0.40730  0.60763  0.11427  1.0000
  C   C217      1.0  0.37789  0.59569  0.09921  1.0000
  C   C218      1.0  0.34549  0.57787  0.11743  1.0000
  C   C219      1.0  0.34214  0.57191  0.15101  1.0000
  C   C220      1.0  0.37155  0.58385  0.16600  1.0000
  C   C221      1.0  0.40385  0.60146  0.14778  1.0000
  H   H211      1.0  0.38013  0.59999  0.07329  1.0000
  H   H212      1.0  0.32322  0.56871  0.10543  1.0000
  H   H213      1.0  0.36941  0.57958  0.19192  1.0000
  C   C222      1.0  0.29616  0.63146  0.20314  1.0000
  C   C223      1.0  0.10905  0.60710  0.10637  1.0000
  C   C224      1.0  0.10963  0.57939  0.09804  1.0000
  C   C225      1.0  0.13099  0.57079  0.11135  1.0000
  C   C226      1.0  0.15294  0.59046  0.13265  1.0000
  C   C227      1.0  0.15230  0.61809  0.14105  1.0000
  C   C228      1.0  0.13026  0.62604  0.12842  1.0000
  H   H214      1.0  0.09359  0.56451  0.08100  1.0000
  H   H215      1.0  0.13113  0.54958  0.10442  1.0000
  H   H216      1.0  0.16914  0.63369  0.15737  1.0000
  H   H217      1.0  0.13048  0.64759  0.13501  1.0000
  C   C229      1.0  0.09410  0.80621  0.09383  1.0000
  C   C230      1.0  0.09908  0.83444  0.07228  1.0000
  C   C231      1.0  0.11518  0.86797  0.08024  1.0000
  C   C232      1.0  0.12705  0.87453  0.10994  1.0000
  C   C233      1.0  0.12227  0.84641  0.13196  1.0000
  C   C234      1.0  0.10571  0.81225  0.12394  1.0000
  H   H218      1.0  0.09040  0.83039  0.04902  1.0000
  H   H219      1.0  0.11856  0.88917  0.06299  1.0000
  H   H220      1.0  0.13131  0.85096  0.15501  1.0000
  H   H221      1.0  0.10218  0.79080  0.14087  1.0000
  C   C235      1.0  0.04258  0.55944  0.23196  1.0000
  H   H222      1.0  0.27516  0.49803  0.12469  1.0000
  S   S80       1.0  0.21305  0.96432  0.18126  1.0000
  C   C236      1.0  0.02833  0.60948  0.22094  1.0000
  C   C237      1.0  0.04896  0.60863  0.19767  1.0000
  C   C238      1.0  0.05582  0.58340  0.20303  1.0000
  H   H223      1.0  0.01265  0.54276  0.27814  1.0000
  H   H224      1.0  0.33208  0.62975  0.11808  1.0000
  H   H225      1.0  0.05957  0.62717  0.17537  1.0000
  H   H226      1.0  0.07121  0.58240  0.18469  1.0000
  Fe  Fe39      1.0  0.32658  0.64145  0.28824  1.0000
  H   H227      1.0  0.45857  0.81387  0.12701  1.0000
  C   C239      1.0  0.02310  0.56123  0.25576  1.0000
  C   C240      1.0  0.27192  0.63867  0.20302  1.0000
  H   H228      1.0  0.12310  0.50454  0.26465  1.0000
  S   S81       1.0  0.05079  0.52768  0.23852  1.0000
  H   H229      1.0  0.44975  0.59255  0.25284  1.0000
  C   C241      1.0  0.30201  0.52652  0.26216  1.0000
  H   H230      1.0  0.42614  0.61015  0.15958  1.0000
  N   N20       1.0  0.01925  0.54424  0.02394  1.0000
  Fe  Fe40      1.0  0.03803  0.50647  0.29082  1.0000
  C   C242      1.0  0.27657  0.53201  0.26166  1.0000
  H   H231      1.0  0.01317  0.82658  0.21664  1.0000
  C   C243      1.0  0.01180  0.81270  0.19758  1.0000
  H   H232      1.0  0.26285  0.64202  0.22503  1.0000
  C   C244      1.0  0.08464  0.90418  0.30237  1.0000
  S   S82       1.0  0.42146  0.76788  0.29166  1.0000
  S   S83       1.0  0.42185  0.74888  0.99148  1.0000
  Fe  Fe41      1.0  0.39696  0.70921  0.29224  1.0000
  S   S84       1.0  0.16756  0.94048  0.27087  1.0000
  H   H233      1.0  0.33711  0.52436  0.29076  1.0000
  C   C245      1.0  0.43761  0.67898  0.03512  1.0000
  H   H234      1.0  0.03797  0.93313  0.22252  1.0000
  N   N21       1.0  0.04411  0.65848  0.28869  1.0000
  C   C246      1.0  0.09533  0.51355  0.19514  1.0000
  H   H235      1.0  0.03748  0.89088  0.26463  1.0000
  C   C247      1.0  0.26670  0.53941  0.28900  1.0000
  C   C248      1.0  0.30638  0.62393  0.11744  1.0000
  H   H236      1.0  0.13411  0.57711  0.20548  1.0000
  H   H237      1.0  0.14428  0.54694  0.30153  1.0000
  H   H238      1.0  0.00587  0.50823  0.99181  1.0000
  N   N22       1.0  0.46105  0.64340  0.23709  1.0000
  C   C249      1.0  0.98326  0.75853  0.17691  1.0000
  H   H239      1.0  0.28835  0.59614  0.11473  1.0000
  H   H240      1.0  0.23954  0.64568  0.17430  1.0000
  N   N23       1.0  0.47438  0.70404  0.03464  1.0000
  C   C250      1.0  0.19032  0.95763  0.30339  1.0000
  Fe  Fe42      1.0  0.17334  0.95838  0.15069  1.0000
  C   C251      1.0  0.48043  0.65760  0.26092  1.0000
  C   C252      1.0  0.46130  0.66466  0.21167  1.0000
  H   H241      1.0  0.00002  0.71917  0.03644  1.0000
  Fe  Fe43      1.0  0.38728  0.67283  0.23494  1.0000
  H   H242      1.0  0.43689  0.59807  0.21510  1.0000
  H   H243      1.0  0.43433  0.82460  0.00408  1.0000
  C   C253      1.0  0.44242  0.79660  0.11032  1.0000
  C   C254      1.0  0.01915  0.66662  0.28518  1.0000
  H   H244      1.0  0.00041  0.58721  0.26817  1.0000
  C   C255      1.0  0.11380  0.96377  0.27040  1.0000
  H   H245      1.0  0.31030  0.52147  0.24084  1.0000
  C   C256      1.0  0.25904  0.64096  0.17460  1.0000
  C   C257      1.0  0.27081  0.63617  0.14660  1.0000
  N   N24       1.0  0.03560  0.82971  0.17078  1.0000
  C   C258      1.0  0.12374  0.66244  0.00385  1.0000
  C   C259      1.0  0.03395  0.81178  0.14718  1.0000
  Fe  Fe44      1.0  0.18424  0.97064  0.21934  1.0000
  H   H246      1.0  0.13066  0.65607  0.02644  1.0000
  H   H247      1.0  0.43994  0.77144  0.11547  1.0000
  H   H248      1.0  0.05776  0.88092  0.18233  1.0000
  H   H249      1.0  0.40960  0.79724  0.06081  1.0000
  H   H250      1.0  0.44528  0.65342  0.19323  1.0000
  H   H251      1.0  0.06485  0.55471  0.00070  1.0000
  C   C260      1.0  0.06414  0.86684  0.16797  1.0000
  C   C261      1.0  0.09239  0.65736  0.00299  1.0000
  N   N25       1.0  0.45722  0.81368  0.07682  1.0000
  C   C262      1.0  0.99776  0.52065  0.00571  1.0000
  S   S85       1.0  0.42542  0.69034  0.26988  1.0000
  C   C263      1.0  0.13653  0.55967  0.22369  1.0000
  H   H252      1.0  0.02909  0.69041  0.26662  1.0000
  S   S86       1.0  0.35119  0.61942  0.26497  1.0000
  S   S87       1.0  0.36071  0.69380  0.25520  1.0000
  H   H253      1.0  0.13062  0.56362  0.24758  1.0000
  C   C264      1.0  0.31696  0.52808  0.29006  1.0000
  S   S88       1.0  0.26903  0.61268  0.28673  1.0000
  H   H254      1.0  0.32635  0.62133  0.17517  1.0000
  H   H255      1.0  0.09814  0.53364  0.17677  1.0000
  S   S89       1.0  0.44773  0.63016  0.09035  1.0000
  H   H256      1.0  0.07346  0.68907  0.24322  1.0000
  S   S90       1.0  0.14272  0.96099  0.18983  1.0000
  H   H257      1.0  0.41672  0.79066  0.11554  1.0000
  H   H258      1.0  0.08677  0.86892  0.17610  1.0000
  C   C265      1.0  0.45636  0.83767  0.29626  1.0000
  H   H259      1.0  0.07088  0.57799  0.03279  1.0000
  C   C266      1.0  0.00790  0.77596  0.14989  1.0000
  H   H260      1.0  0.99138  0.89043  0.30079  1.0000
  H   H261      1.0  0.43195  0.65542  0.02581  1.0000
  H   H262      1.0  0.26467  0.53079  0.24021  1.0000
  H   H263      1.0  0.24671  0.54338  0.28839  1.0000
  C   C267      1.0  0.01601  0.58626  0.25020  1.0000
  H   H264      1.0  0.07497  0.64733  0.02494  1.0000
  H   H265      1.0  0.42368  0.66945  0.05977  1.0000
  H   H266      1.0  0.00706  0.76188  0.13116  1.0000
  C   C268      1.0  0.99398  0.92510  0.98823  1.0000
  H   H267      1.0  0.44768  0.84037  0.27361  1.0000
  H   H268      1.0  0.47089  0.70751  0.08412  1.0000
  H   H269      1.0  0.02501  0.57670  0.05758  1.0000
  C   C269      1.0  0.05336  0.55243  0.02493  1.0000
  C   C270      1.0  0.08723  0.63727  0.29323  1.0000
  Fe  Fe45      1.0  0.38763  0.63759  0.30175  1.0000
  H   H270      1.0  0.99586  0.64418  0.27766  1.0000
  H   H271      1.0  0.98762  0.67050  0.00853  1.0000
  H   H272      1.0  0.18671  0.62860  0.98277  1.0000
  H   H273      1.0  0.10342  0.62819  0.29458  1.0000
  C   C271      1.0  0.10876  0.49725  0.24449  1.0000
  H   H274      1.0  0.48020  0.64071  0.28103  1.0000
  C   C272      1.0  0.98513  0.77698  0.20091  1.0000
  C   C273      1.0  0.36291  0.54676  0.42294  1.0000
  N   N26       1.0  0.01275  0.54305  0.46107  1.0000
  C   C274      1.0  0.47330  0.59615  0.35531  1.0000
  Fe  Fe46      1.0  0.22870  0.97724  0.44201  1.0000
  S   S91       1.0  0.98239  0.96168  0.31923  1.0000
  C   C275      1.0  0.44581  0.53927  0.43258  1.0000
  C   C276      1.0  0.05207  0.51844  0.47530  1.0000
  H   H275      1.0  0.24734  0.54601  0.34382  1.0000
  H   H276      1.0  0.03706  0.55854  0.41286  1.0000
  H   H277      1.0  0.47212  0.93598  0.42051  1.0000
  C   C277      1.0  0.42530  0.58528  0.32790  1.0000
  H   H278      1.0  0.43456  0.85434  0.38722  1.0000
  H   H279      1.0  0.16146  0.75224  0.57785  1.0000
  C   C278      1.0  0.03481  0.54639  0.43725  1.0000
  C   C279      1.0  0.22545  0.58956  0.34412  1.0000
  S   S92       1.0  0.98671  0.88851  0.37016  1.0000
  C   C280      1.0  0.42237  0.55601  0.31883  1.0000
  H   H280      1.0  0.18304  0.93465  0.38495  1.0000
  H   H281      1.0  0.15276  0.91168  0.33825  1.0000
  H   H282      1.0  0.41997  0.57323  0.62632  1.0000
  S   S93       1.0  0.36083  0.65726  0.32709  1.0000
  Fe  Fe47      1.0  0.07243  0.51244  0.34963  1.0000
  Fe  Fe48      1.0  0.03494  0.60535  0.61112  1.0000
  S   S94       1.0  0.01102  0.55663  0.58926  1.0000
  Fe  Fe49      1.0  0.07444  0.65374  0.54679  1.0000
  S   S95       1.0  0.05355  0.60811  0.52015  1.0000
  S   S96       1.0  0.11848  0.71081  0.52517  1.0000
  H   H283      1.0  0.46198  0.57720  0.46370  1.0000
  S   S97       1.0  0.45187  0.54972  0.53447  1.0000
  Fe  Fe50      1.0  0.06306  0.58142  0.56203  1.0000
  S   S98       1.0  0.08081  0.54497  0.56269  1.0000
  S   S99       1.0  0.02303  0.63325  0.57224  1.0000
  S   S100      1.0  0.08729  0.62827  0.58692  1.0000
  H   H284      1.0  0.13693  0.70619  0.59216  1.0000
  N   N27       1.0  0.28167  0.54117  0.31618  1.0000
  H   H285      1.0  0.25004  0.56919  0.48143  1.0000
  Fe  Fe51      1.0  0.18496  0.91677  0.49849  1.0000
  Fe  Fe52      1.0  0.01162  0.94595  0.34743  1.0000
  S   S101      1.0  0.13923  0.85912  0.51541  1.0000
  H   H286      1.0  0.44138  0.94878  0.38584  1.0000
  H   H287      1.0  0.35812  0.55678  0.44328  1.0000
  S   S102      1.0  0.31291  0.53264  0.50883  1.0000
  H   H288      1.0  0.42378  0.50251  0.40023  1.0000
  S   S103      1.0  0.17707  0.95455  0.46810  1.0000
  S   S104      1.0  0.23497  0.93742  0.46966  1.0000
  C   C281      1.0  0.35105  0.53639  0.51631  1.0000
  C   C282      1.0  0.37855  0.56792  0.52420  1.0000
  C   C283      1.0  0.40945  0.57254  0.52990  1.0000
  C   C284      1.0  0.41335  0.54554  0.52795  1.0000
  C   C285      1.0  0.38588  0.51403  0.52000  1.0000
  C   C286      1.0  0.05506  0.69917  0.62760  1.0000
  S   S105      1.0  0.17542  0.52081  0.47709  1.0000
  H   H289      1.0  0.43029  0.59711  0.53560  1.0000
  H   H290      1.0  0.40205  0.54294  0.59900  1.0000
  C   C287      1.0  0.45683  0.90783  0.41810  1.0000
  C   C288      1.0  0.10639  0.53823  0.53775  1.0000
  C   C289      1.0  0.10836  0.50984  0.54825  1.0000
  H   H291      1.0  0.38849  0.49295  0.51821  1.0000
  C   C290      1.0  0.14759  0.52585  0.50061  1.0000
  C   C291      1.0  0.14498  0.55373  0.48970  1.0000
  C   C292      1.0  0.12480  0.56011  0.50821  1.0000
  Fe  Fe53      1.0  0.25962  0.97554  0.50393  1.0000
  H   H292      1.0  0.33431  0.48507  0.50808  1.0000
  H   H293      1.0  0.08283  0.67641  0.62743  1.0000
  H   H294      1.0  0.12352  0.58196  0.49962  1.0000
  C   C293      1.0  0.12319  0.75164  0.52100  1.0000
  C   C294      1.0  0.09569  0.75354  0.52693  1.0000
  C   C295      1.0  0.10107  0.78662  0.52448  1.0000
  C   C296      1.0  0.13392  0.81826  0.51611  1.0000
  C   C297      1.0  0.16136  0.81633  0.50986  1.0000
  C   C298      1.0  0.15597  0.78326  0.51222  1.0000
  H   H295      1.0  0.07029  0.72956  0.53350  1.0000
  H   H296      1.0  0.07959  0.78773  0.52918  1.0000
  H   H297      1.0  0.18675  0.84032  0.50333  1.0000
  H   H298      1.0  0.17745  0.78221  0.50733  1.0000
  C   C299      1.0  0.41557  0.56390  0.44521  1.0000
  H   H299      1.0  0.07256  0.53714  0.42512  1.0000
  C   C300      1.0  0.42941  0.87285  0.37657  1.0000
  C   C301      1.0  0.22882  0.59151  0.31082  1.0000
  C   C302      1.0  0.45883  0.80126  0.34017  1.0000
  H   H300      1.0  0.08838  0.78473  0.59739  1.0000
  C   C303      1.0  0.47618  0.86742  0.31070  1.0000
  C   C304      1.0  0.16671  0.55870  0.31350  1.0000
  H   H301      1.0  0.41271  0.93948  0.33734  1.0000
  H   H302      1.0  0.15777  0.73590  0.62014  1.0000
  N   N28       1.0  0.11381  0.73081  0.60564  1.0000
  C   C305      1.0  0.35503  0.50948  0.51414  1.0000
  C   C306      1.0  0.40695  0.89088  0.33483  1.0000
  H   H303      1.0  0.31846  0.53716  0.33847  1.0000
  C   C307      1.0  0.45123  0.60550  0.34602  1.0000
  C   C308      1.0  0.41305  0.86685  0.34908  1.0000
  C   C309      1.0  0.19328  0.54283  0.57662  1.0000
  S   S106      1.0  0.12272  0.53524  0.37012  1.0000
  H   H304      1.0  0.10355  0.91771  0.31899  1.0000
  H   H305      1.0  0.44611  0.58007  0.59067  1.0000
  C   C310      1.0  0.16331  0.55675  0.34675  1.0000
  H   H306      1.0  0.19062  0.57061  0.38769  1.0000
  H   H307      1.0  0.13906  0.78528  0.58590  1.0000
  H   H308      1.0  0.43762  0.89182  0.43972  1.0000
  S   S107      1.0  0.98584  0.54057  0.37012  1.0000
  Fe  Fe54      1.0  0.00243  0.58571  0.54859  1.0000
  S   S108      1.0  0.20970  0.95240  0.53469  1.0000
  H   H309      1.0  0.40573  0.84399  0.33865  1.0000
  H   H310      1.0  0.44226  0.52465  0.32010  1.0000
  C   C311      1.0  0.30640  0.53548  0.31701  1.0000
  H   H311      1.0  0.16542  0.56477  0.58494  1.0000
  C   C312      1.0  0.19379  0.95042  0.36110  1.0000
  C   C313      1.0  0.14409  0.73141  0.59882  1.0000
  C   C314      1.0  0.44516  0.54735  0.32722  1.0000
  N   N29       1.0  0.23252  0.56933  0.52788  1.0000
  C   C315      1.0  0.22428  0.59257  0.52049  1.0000
  C   C316      1.0  0.21740  0.54466  0.55553  1.0000
  C   C317      1.0  0.20047  0.59165  0.54115  1.0000
  H   H312      1.0  0.16705  0.49259  0.33517  1.0000
  C   C318      1.0  0.18484  0.56654  0.56933  1.0000
  C   C319      1.0  0.25788  0.57135  0.50585  1.0000
  H   H313      1.0  0.23550  0.61138  0.49809  1.0000
  H   H314      1.0  0.22358  0.52593  0.56123  1.0000
  H   H315      1.0  0.19320  0.60940  0.53479  1.0000
  H   H316      1.0  0.99534  0.56652  0.42819  1.0000
  H   H317      1.0  0.09415  0.49258  0.57095  1.0000
  H   H318      1.0  0.28312  0.59668  0.50470  1.0000
  C   C320      1.0  0.11567  0.76106  0.59808  1.0000
  H   H319      1.0  0.37598  0.58906  0.52582  1.0000
  N   N30       1.0  0.39131  0.54388  0.42671  1.0000
  H   H320      1.0  0.45219  0.77587  0.35174  1.0000
  H   H321      1.0  0.03150  0.67466  0.63913  1.0000
  H   H322      1.0  0.05903  0.88708  0.31693  1.0000
  N   N31       1.0  0.43989  0.90225  0.38919  1.0000
  C   C321      1.0  0.05485  0.53421  0.44400  1.0000
  C   C322      1.0  0.41695  0.92033  0.34834  1.0000
  C   C323      1.0  0.12886  0.50372  0.52993  1.0000
  S   S109      1.0  0.24660  0.51217  0.45207  1.0000
  H   H323      1.0  0.18071  0.52270  0.59812  1.0000
  H   H324      1.0  0.03390  0.72902  0.62395  1.0000
  H   H325      1.0  0.15911  0.57091  0.46694  1.0000
  C   C324      1.0  0.08420  0.70027  0.62077  1.0000
  H   H326      1.0  0.39474  0.88682  0.31323  1.0000
  C   C325      1.0  0.39419  0.52227  0.41043  1.0000
  H   H327      1.0  0.01875  0.62503  0.33406  1.0000
  C   C326      1.0  0.17663  0.93751  0.33458  1.0000
  H   H328      1.0  0.26079  0.54977  0.51344  1.0000
  H   H329      1.0  0.27207  0.53612  0.36673  1.0000
  H   H330      1.0  0.24787  0.60154  0.35618  1.0000
  C   C327      1.0  0.06089  0.62456  0.31787  1.0000
  H   H331      1.0  0.35705  0.97722  0.55231  1.0000
  C   C328      1.0  0.44744  0.80438  0.31089  1.0000
  S   S110      1.0  0.06040  0.54712  0.32210  1.0000
  H   H332      1.0  0.41356  0.58131  0.45790  1.0000
  C   C329      1.0  0.44308  0.56178  0.44854  1.0000
  C   C330      1.0  0.43012  0.51032  0.61642  1.0000
  C   C331      1.0  0.02954  0.51517  0.49941  1.0000
  C   C332      1.0  0.27286  0.55137  0.34393  1.0000
  Fe  Fe55      1.0  0.00799  0.51324  0.35011  1.0000
  H   H333      1.0  0.45345  0.62752  0.35402  1.0000
  C   C333      1.0  0.43339  0.92558  0.37575  1.0000
  H   H334      1.0  0.29169  0.57995  0.34334  1.0000
  C   C334      1.0  0.08701  0.76091  0.60453  1.0000
  C   C335      1.0  0.19288  0.57205  0.36195  1.0000
  H   H335      1.0  0.05638  0.60558  0.33860  1.0000
  H   H336      1.0  0.06764  0.50916  0.48099  1.0000
  H   H337      1.0  0.00046  0.57878  0.46708  1.0000
  C   C336      1.0  0.47062  0.56709  0.34594  1.0000
  N   N32       1.0  0.43577  0.53904  0.62740  1.0000
  H   H338      1.0  0.36855  0.56482  0.40010  1.0000
  Fe  Fe56      1.0  0.26118  0.49077  0.49387  1.0000
  C   C337      1.0  0.42542  0.55985  0.61008  1.0000
  H   H339      1.0  0.99275  0.52544  0.51078  1.0000
  H   H340      1.0  0.41749  0.50252  0.59527  1.0000
  C   C338      1.0  0.05647  0.72966  0.61921  1.0000
  H   H341      1.0  0.46721  0.53763  0.43464  1.0000
  Fe  Fe57      1.0  0.19548  0.48640  0.48149  1.0000
  C   C339      1.0  0.00996  0.52770  0.49183  1.0000
  H   H342      1.0  0.13543  0.95934  0.37578  1.0000
  C   C340      1.0  0.03949  0.63552  0.31516  1.0000
  C   C341      1.0  0.42125  0.51935  0.41340  1.0000
  S   S111      1.0  0.30553  0.98193  0.52594  1.0000
  H   H343      1.0  0.02764  0.50356  0.52398  1.0000
  H   H344      1.0  0.47479  0.90024  0.41702  1.0000
  H   H345      1.0  0.37564  0.50733  0.39486  1.0000
  H   H346      1.0  0.33894  0.52052  0.42273  1.0000
  S   S112      1.0  0.05681  0.97049  0.31004  1.0000
  S   S113      1.0  0.39355  0.59267  0.31936  1.0000
  C   C342      1.0  0.47854  0.83103  0.35473  1.0000
  C   C343      1.0  0.99250  0.55672  0.45417  1.0000
  H   H347      1.0  0.12273  0.97894  0.52742  1.0000
  C   C344      1.0  0.44146  0.49125  0.63165  1.0000
  H   H348      1.0  0.32119  0.98260  0.45596  1.0000
  S   S114      1.0  0.39307  0.73855  0.92181  1.0000
  S   S115      1.0  0.46067  0.83811  0.93158  1.0000
  H   H349      1.0  0.18709  0.70694  0.92189  1.0000
  Fe  Fe58      1.0  0.09390  0.59568  0.90830  1.0000
  S   S116      1.0  0.06826  0.54941  0.88278  1.0000
  S   S117      1.0  0.13632  0.61037  0.94014  1.0000
  Fe  Fe59      1.0  0.03836  0.60880  0.89780  1.0000
  C   C345      1.0  0.00040  0.68187  0.92788  1.0000
  S   S118      1.0  0.02281  0.60848  0.66283  1.0000
  Fe  Fe60      1.0  0.01870  0.53276  0.90880  1.0000
  S   S119      1.0  0.00896  0.56361  0.87108  1.0000
  Fe  Fe61      1.0  0.06028  0.58288  0.84613  1.0000
  S   S120      1.0  0.07165  0.58000  0.79420  1.0000
  S   S121      1.0  0.04446  0.57670  0.93708  1.0000
  S   S122      1.0  0.08950  0.63041  0.87008  1.0000
  C   C346      1.0  0.03853  0.60257  0.69865  1.0000
  C   C347      1.0  0.06009  0.59170  0.69955  1.0000
  C   C348      1.0  0.07058  0.58579  0.72888  1.0000
  C   C349      1.0  0.05966  0.59058  0.75767  1.0000
  C   C350      1.0  0.03857  0.60202  0.75668  1.0000
  C   C351      1.0  0.02811  0.60797  0.72733  1.0000
  H   H350      1.0  0.06835  0.58743  0.67775  1.0000
  H   H351      1.0  0.22082  0.56575  0.92736  1.0000
  H   H352      1.0  0.02998  0.60588  0.77855  1.0000
  H   H353      1.0  0.03684  0.96346  0.95257  1.0000
  C   C352      1.0  0.46714  0.87862  0.93563  1.0000
  H   H354      1.0  0.15182  0.67674  0.90261  1.0000
  H   H355      1.0  0.45865  0.57331  0.66119  1.0000
  C   C353      1.0  0.99476  0.65067  0.92077  1.0000
  C   C354      1.0  0.46453  0.68627  0.92213  1.0000
  H   H356      1.0  0.46775  0.71110  0.91596  1.0000
  H   H357      1.0  0.33432  0.61091  0.95576  1.0000
  C   C355      1.0  0.23562  0.67466  0.89725  1.0000
  C   C356      1.0  0.44865  0.91276  0.95424  1.0000
  C   C357      1.0  0.43662  0.65869  0.94390  1.0000
  C   C358      1.0  0.00160  0.49943  0.77565  1.0000
  H   H358      1.0  0.47908  0.54057  0.68894  1.0000
  H   H359      1.0  0.36865  0.65671  0.90728  1.0000
  S   S123      1.0  0.40564  0.66271  0.96271  1.0000
  H   H360      1.0  0.24916  0.68746  0.87324  1.0000
  Fe  Fe62      1.0  0.39572  0.70507  0.96297  1.0000
  C   C359      1.0  0.18170  0.63679  0.93264  1.0000
  C   C360      1.0  0.19968  0.65362  0.90180  1.0000
  C   C361      1.0  0.25419  0.67920  0.92335  1.0000
  C   C362      1.0  0.23622  0.66246  0.95421  1.0000
  C   C363      1.0  0.20026  0.64141  0.95876  1.0000
  C   C364      1.0  0.32201  0.61795  0.93869  1.0000
  C   C365      1.0  0.47312  0.91091  0.84819  1.0000
  C   C366      1.0  0.44243  0.87998  0.95201  1.0000
  H   H361      1.0  0.00487  0.51037  0.72399  1.0000
  H   H362      1.0  0.27841  0.64430  0.87922  1.0000
  N   N33       1.0  0.27162  0.61133  0.92283  1.0000
  H   H363      1.0  0.41178  0.60511  0.96842  1.0000
  H   H364      1.0  0.18592  0.65039  0.88140  1.0000
  S   S124      1.0  0.29950  0.70480  0.91566  1.0000
  C   C367      1.0  0.01990  0.93590  0.96383  1.0000
  H   H365      1.0  0.08695  0.57701  0.72933  1.0000
  C   C368      1.0  0.34134  0.64368  0.91141  1.0000
  H   H366      1.0  0.02619  0.70459  0.92754  1.0000
  C   C369      1.0  0.45191  0.97240  0.86742  1.0000
  H   H367      1.0  0.45358  0.59711  0.94332  1.0000
  H   H368      1.0  0.22607  0.60624  0.91190  1.0000
  C   C370      1.0  0.16100  0.69777  0.91712  1.0000
  C   C371      1.0  0.10660  0.67844  0.94578  1.0000
  H   H369      1.0  0.01149  0.61645  0.72694  1.0000
  H   H370      1.0  0.00052  0.85574  0.95661  1.0000
  S   S125      1.0  0.03057  0.64964  0.91172  1.0000
  C   C372      1.0  0.32547  0.65298  0.88982  1.0000
  C   C373      1.0  0.45684  0.62199  0.93731  1.0000
  H   H371      1.0  0.34037  0.67367  0.86900  1.0000
  C   C374      1.0  0.29032  0.63619  0.89576  1.0000
  C   C375      1.0  0.43312  0.62665  0.95150  1.0000
  Fe  Fe63      1.0  0.41554  0.78121  0.95197  1.0000
  H   H372      1.0  0.45513  0.88965  0.86870  1.0000
  H   H373      1.0  0.02512  0.50618  0.83443  1.0000
  Fe  Fe64      1.0  0.34183  0.71936  0.94743  1.0000
  N   N34       1.0  0.47282  0.94202  0.84657  1.0000
  H   H374      1.0  0.43626  0.92058  0.88836  1.0000
  H   H375      1.0  0.46572  0.89999  0.82583  1.0000
  C   C376      1.0  0.28699  0.60203  0.94413  1.0000
  H   H376      1.0  0.27222  0.58244  0.96564  1.0000
  H   H377      1.0  0.42934  0.91344  0.96704  1.0000
  H   H378      1.0  0.04189  0.91885  0.93300  1.0000
  C   C377      1.0  0.46473  0.53136  0.66897  1.0000
  H   H379      1.0  0.00183  0.95092  0.88245  1.0000
  C   C378      1.0  0.23483  0.59397  0.92915  1.0000
  H   H380      1.0  0.22791  0.59619  0.95352  1.0000
  H   H381      1.0  0.01903  0.49195  0.77473  1.0000
  N   N35       1.0  0.98843  0.49978  0.80454  1.0000
  H   H382      1.0  0.46871  0.48803  0.66962  1.0000
  H   H383      1.0  0.05913  0.66097  0.97265  1.0000
  N   N36       1.0  0.13755  0.68399  0.94692  1.0000
  H   H384      1.0  0.16265  0.72035  0.90284  1.0000
  H   H385      1.0  0.09951  0.68428  0.92310  1.0000
  C   C379      1.0  0.45893  0.50194  0.65808  1.0000
  H   H386      1.0  0.25000  0.66564  0.97458  1.0000
  C   C380      1.0  0.02270  0.91088  0.95285  1.0000
  C   C381      1.0  0.99936  0.87526  0.96642  1.0000
  C   C382      1.0  0.99366  0.50975  0.74690  1.0000
  S   S126      1.0  0.36453  0.76433  0.97461  1.0000
  C   C383      1.0  0.99718  0.48860  0.83416  1.0000
  C   C384      1.0  0.45222  0.94274  0.86890  1.0000
  H   H387      1.0  0.98756  0.89186  0.87820  1.0000
  C   C385      1.0  0.45305  0.54980  0.65315  1.0000
  H   H388      1.0  0.41842  0.85582  0.96285  1.0000
  H   H389      1.0  0.43633  0.97330  0.88574  1.0000
  C   C386      1.0  0.47928  0.94461  0.93957  1.0000
  C   C387      1.0  0.08360  0.66517  0.97377  1.0000
  H   H390      1.0  0.98454  0.48948  0.85607  1.0000
  C   C388      1.0  0.14610  0.67571  0.97539  1.0000
  H   H391      1.0  0.17013  0.67894  0.97617  1.0000
  S   S127      1.0  0.55671  0.02242  0.22696  1.0000
  Fe  Fe65      1.0  0.55814  0.21728  0.11178  1.0000
  S   S128      1.0  0.54203  0.18192  0.07454  1.0000
  S   S129      1.0  0.58493  0.27668  0.09567  1.0000
  Fe  Fe66      1.0  0.53057  0.15579  0.16480  1.0000
  S   S130      1.0  0.51156  0.11615  0.13274  1.0000
  S   S131      1.0  0.52319  0.13353  0.21632  1.0000
  Fe  Fe67      1.0  0.56239  0.15514  0.10320  1.0000
  S   S132      1.0  0.58777  0.13173  0.08169  1.0000
  S   S133      1.0  0.64402  0.98563  0.18710  1.0000
  H   H392      1.0  0.57708  0.40171  0.20363  1.0000
  S   S134      1.0  0.58262  0.19350  0.13715  1.0000
  S   S135      1.0  0.50707  0.18186  0.14274  1.0000
  S   S136      1.0  0.83826  0.16903  0.19949  1.0000
  Fe  Fe68      1.0  0.88824  0.21802  0.00821  1.0000
  H   H393      1.0  0.53345  0.29843  0.12103  1.0000
  S   S137      1.0  0.90711  0.21048  0.05499  1.0000
  S   S138      1.0  0.86555  0.24691  0.99101  1.0000
  H   H394      1.0  0.49717  0.07045  0.26219  1.0000
  C   C389      1.0  0.57329  0.42202  0.19575  1.0000
  C   C390      1.0  0.59208  0.44647  0.16760  1.0000
  S   S139      1.0  0.90151  0.09218  0.29598  1.0000
  H   H395      1.0  0.51749  0.27784  0.19319  1.0000
  H   H396      1.0  0.74788  0.12312  0.14408  1.0000
  N   N37       1.0  0.73143  0.09817  0.25089  1.0000
  S   S140      1.0  0.70305  0.01846  0.12601  1.0000
  S   S141      1.0  0.63407  0.40151  0.17458  1.0000
  C   C391      1.0  0.93729  0.10986  0.00191  1.0000
  S   S142      1.0  0.72033  0.05011  0.19277  1.0000
  H   H397      1.0  0.97993  0.14681  0.02391  1.0000
  Fe  Fe69      1.0  0.68241  0.03906  0.15811  1.0000
  S   S143      1.0  0.67363  0.08270  0.15145  1.0000
  Fe  Fe70      1.0  0.73914  0.02691  0.16265  1.0000
  S   S144      1.0  0.79768  0.05864  0.15778  1.0000
  C   C392      1.0  0.75726  0.12557  0.11959  1.0000
  C   C393      1.0  0.70678  0.19549  0.99969  1.0000
  H   H398      1.0  0.71556  0.21652  0.01414  1.0000
  S   S145      1.0  0.91298  0.18262  0.25480  1.0000
  C   C394      1.0  0.60351  0.14904  0.30894  1.0000
  N   N38       1.0  0.59184  0.15247  0.28076  1.0000
  H   H399      1.0  0.90543  0.16707  0.01234  1.0000
  N   N39       1.0  0.79556  0.12511  0.08249  1.0000
  C   C395      1.0  0.64651  0.17206  0.00785  1.0000
  H   H400      1.0  0.64646  0.03574  0.26317  1.0000
  Fe  Fe71      1.0  0.86026  0.16366  0.24470  1.0000
  Fe  Fe72      1.0  0.67581  0.46110  0.16670  1.0000
  H   H401      1.0  0.59336  0.15196  0.01312  1.0000
  H   H402      1.0  0.48338  0.15488  0.23941  1.0000
  H   H403      1.0  0.64872  0.07932  0.22099  1.0000
  C   C396      1.0  0.60188  0.14627  0.25348  1.0000
  C   C397      1.0  0.63661  0.13328  0.28248  1.0000
  H   H404      1.0  0.61038  0.44511  0.15361  1.0000
  C   C398      1.0  0.62409  0.13621  0.25395  1.0000
  C   C399      1.0  0.85873  0.18202  0.15966  1.0000
  C   C400      1.0  0.88660  0.18125  0.15202  1.0000
  C   C401      1.0  0.90107  0.19008  0.11979  1.0000
  C   C402      1.0  0.88809  0.20012  0.09500  1.0000
  C   C403      1.0  0.86054  0.20143  0.10268  1.0000
  C   C404      1.0  0.84596  0.19241  0.13491  1.0000
  H   H405      1.0  0.89655  0.17310  0.17081  1.0000
  H   H406      1.0  0.92212  0.18856  0.11404  1.0000
  H   H407      1.0  0.85045  0.20932  0.08382  1.0000
  H   H408      1.0  0.82452  0.19331  0.14066  1.0000
  H   H409      1.0  0.50515  0.03100  0.99515  1.0000
  C   C405      1.0  0.88106  0.08645  0.09733  1.0000
  C   C406      1.0  0.84706  0.07025  0.11088  1.0000
  C   C407      1.0  0.84007  0.07703  0.14022  1.0000
  C   C408      1.0  0.86758  0.09940  0.15613  1.0000
  C   C409      1.0  0.90153  0.11484  0.14302  1.0000
  C   C410      1.0  0.90074  0.06621  0.21841  1.0000
  H   H410      1.0  0.82629  0.05287  0.09840  1.0000
  H   H411      1.0  0.86265  0.10510  0.17871  1.0000
  S   S146      1.0  0.94831  0.26379  0.29150  1.0000
  C   C411      1.0  0.60973  0.11650  0.10271  1.0000
  C   C412      1.0  0.62678  0.13105  0.12850  1.0000
  C   C413      1.0  0.64573  0.11999  0.14321  1.0000
  C   C414      1.0  0.64750  0.09378  0.13283  1.0000
  C   C415      1.0  0.63033  0.07909  0.10710  1.0000
  C   C416      1.0  0.61194  0.09071  0.09193  1.0000
  H   H412      1.0  0.62576  0.15119  0.13688  1.0000
  H   H413      1.0  0.65904  0.13184  0.16285  1.0000
  H   H414      1.0  0.63168  0.05923  0.09852  1.0000
  H   H415      1.0  0.59927  0.07953  0.07176  1.0000
  C   C417      1.0  0.60057  0.31099  0.11858  1.0000
  C   C418      1.0  0.59145  0.30410  0.15182  1.0000
  C   C419      1.0  0.60225  0.33213  0.16849  1.0000
  C   C420      1.0  0.62309  0.36746  0.15244  1.0000
  C   C421      1.0  0.63277  0.37435  0.11934  1.0000
  C   C422      1.0  0.62127  0.34629  0.10253  1.0000
  H   H416      1.0  0.57568  0.27719  0.16460  1.0000
  H   H417      1.0  0.59459  0.32642  0.19409  1.0000
  H   H418      1.0  0.64855  0.40126  0.10652  1.0000
  H   H419      1.0  0.62842  0.35201  0.07684  1.0000
  C   C423      1.0  0.54273  0.04953  0.22064  1.0000
  C   C424      1.0  0.52003  0.04665  0.24444  1.0000
  C   C425      1.0  0.51369  0.07223  0.24297  1.0000
  C   C426      1.0  0.52905  0.10011  0.21695  1.0000
  C   C427      1.0  0.55038  0.10206  0.19220  1.0000
  C   C428      1.0  0.55719  0.07672  0.19406  1.0000
  H   H420      1.0  0.93440  0.06627  0.18376  1.0000
  H   H421      1.0  0.80459  0.03930  0.22528  1.0000
  H   H422      1.0  0.56287  0.12385  0.17221  1.0000
  H   H423      1.0  0.57457  0.07884  0.17561  1.0000
  H   H424      1.0  0.52002  0.06840  0.08465  1.0000
  H   H425      1.0  0.48297  0.28434  0.23245  1.0000
  C   C429      1.0  0.96889  0.02406  0.24308  1.0000
  H   H426      1.0  0.92095  0.08426  0.23123  1.0000
  H   H427      1.0  0.48824  0.09365  0.06982  1.0000
  H   H428      1.0  0.73161  0.00746  0.27430  1.0000
  C   C430      1.0  0.75506  0.13478  0.06270  1.0000
  H   H429      1.0  0.63095  0.13016  0.23246  1.0000
  H   H430      1.0  0.57220  0.17903  0.25745  1.0000
  C   C431      1.0  0.49212  0.08012  0.05331  1.0000
  Fe  Fe73      1.0  0.90387  0.20595  0.29394  1.0000
  H   H431      1.0  0.51738  0.25554  0.14383  1.0000
  C   C432      1.0  0.91434  0.15095  0.00958  1.0000
  C   C433      1.0  0.67056  0.06059  0.25355  1.0000
  C   C434      1.0  0.58766  0.47307  0.15803  1.0000
  H   H432      1.0  0.59247  0.14882  0.23121  1.0000
  C   C435      1.0  0.73306  0.12253  0.22792  1.0000
  H   H433      1.0  0.64654  0.16645  0.03351  1.0000
  C   C436      1.0  0.82285  0.12085  0.07631  1.0000
  S   S147      1.0  0.85212  0.17084  0.98669  1.0000
  Fe  Fe74      1.0  0.88904  0.13307  0.29223  1.0000
  H   H434      1.0  0.77880  0.13026  0.26807  1.0000
  C   C437      1.0  0.88207  0.03298  0.17555  1.0000
  H   H435      1.0  0.77776  0.10421  0.23973  1.0000
  C   C438      1.0  0.78339  0.12169  0.11337  1.0000
  C   C439      1.0  0.56691  0.16081  0.28006  1.0000
  S   S148      1.0  0.56022  0.05240  0.30608  1.0000
  H   H436      1.0  0.84112  0.14019  0.05512  1.0000
  S   S149      1.0  0.85237  0.18939  0.28158  1.0000
  S   S150      1.0  0.83677  0.11217  0.27833  1.0000
  H   H437      1.0  0.69947  0.04793  0.28133  1.0000
  C   C440      1.0  0.50999  0.27227  0.13186  1.0000
  H   H438      1.0  0.81190  0.09372  0.07240  1.0000
  C   C441      1.0  0.95624  0.13999  0.01561  1.0000
  H   H439      1.0  0.70466  0.13514  0.19820  1.0000
  H   H440      1.0  0.89179  0.07766  0.98050  1.0000
  H   H441      1.0  0.70211  0.17174  0.01500  1.0000
  H   H442      1.0  0.48613  0.39984  0.30015  1.0000
  H   H443      1.0  0.94035  0.25681  0.14223  1.0000
  C   C442      1.0  0.96456  0.19175  0.03344  1.0000
  H   H444      1.0  0.56722  0.17360  0.30038  1.0000
  C   C443      1.0  0.54598  0.45087  0.20330  1.0000
  H   H445      1.0  0.87114  0.11445  0.98736  1.0000
  H   H446      1.0  0.70089  0.45151  0.27722  1.0000
  H   H447      1.0  0.83784  0.12583  0.09680  1.0000
  H   H448      1.0  0.54100  0.13623  0.28122  1.0000
  C   C444      1.0  0.90637  0.10044  0.99189  1.0000
  Fe  Fe75      1.0  0.55000  0.00964  0.28011  1.0000
  C   C445      1.0  0.76305  0.10437  0.26036  1.0000
  N   N40       1.0  0.84142  0.03037  0.21238  1.0000
  H   H449      1.0  0.79795  0.99989  0.24780  1.0000
  C   C446      1.0  0.61633  0.16377  0.99648  1.0000
  H   H450      1.0  0.53561  0.40561  0.23599  1.0000
  Fe  Fe76      1.0  0.49236  0.14517  0.10751  1.0000
  Fe  Fe77      1.0  0.68273  0.99528  0.21977  1.0000
  C   C447      1.0  0.50181  0.04499  0.01160  1.0000
  H   H451      1.0  0.93673  0.27074  0.22611  1.0000
  C   C448      1.0  0.84853  0.02020  0.18627  1.0000
  H   H452      1.0  0.75826  0.08395  0.28070  1.0000
  C   C449      1.0  0.51489  0.04818  0.04080  1.0000
  H   H453      1.0  0.49554  0.25911  0.11238  1.0000
  C   C450      1.0  0.71852  0.99647  0.29857  1.0000
  H   H454      1.0  0.97989  0.26176  0.23124  1.0000
  N   N41       1.0  0.48956  0.27626  0.15477  1.0000
  H   H455      1.0  0.50785  0.02512  0.26455  1.0000
  H   H456      1.0  0.86139  0.06144  0.24873  1.0000
  C   C451      1.0  0.48440  0.06002  0.00367  1.0000
  H   H457      1.0  0.88788  0.02561  0.15446  1.0000
  C   C452      1.0  0.80633  0.01694  0.22378  1.0000
  C   C453      1.0  0.70074  0.06757  0.26369  1.0000
  H   H458      1.0  0.79034  0.13287  0.03284  1.0000
  C   C454      1.0  0.90857  0.10873  0.11334  1.0000
  H   H459      1.0  0.74402  0.13955  0.04263  1.0000
  H   H460      1.0  0.94619  0.01661  0.25762  1.0000
  N   N42       1.0  0.94481  0.16028  0.01895  1.0000
  H   H461      1.0  0.92226  0.13213  0.15559  1.0000
  H   H462      1.0  0.69961  0.12088  0.98832  1.0000
  C   C455      1.0  0.78140  0.13101  0.05732  1.0000
  H   H463      1.0  0.75757  0.14635  0.21719  1.0000
  H   H464      1.0  0.65342  0.12494  0.28355  1.0000
  H   H465      1.0  0.88606  0.08150  0.07436  1.0000
  C   C456      1.0  0.74309  0.13223  0.09404  1.0000
  H   H466      1.0  0.79426  0.11649  0.13340  1.0000
  C   C457      1.0  0.67188  0.08516  0.23009  1.0000
  H   H467      1.0  0.52886  0.03710  0.04713  1.0000
  H   H468      1.0  0.90645  0.23496  0.20711  1.0000
  H   H469      1.0  0.90833  0.03654  0.28840  1.0000
  C   C458      1.0  0.55014  0.42424  0.21385  1.0000
  H   H470      1.0  0.72258  0.13499  0.09854  1.0000
  C   C459      1.0  0.97704  0.99998  0.24277  1.0000
  C   C460      1.0  0.50995  0.06574  0.06186  1.0000
  C   C461      1.0  0.70331  0.11647  0.21727  1.0000
  C   C462      1.0  0.86700  0.05308  0.22835  1.0000
  H   H471      1.0  0.94668  0.09415  0.99882  1.0000
  C   C463      1.0  0.49690  0.27900  0.18558  1.0000
  S   S151      1.0  0.95111  0.12937  0.09473  1.0000
  H   H472      1.0  0.95151  0.18660  0.05776  1.0000
  C   C464      1.0  0.90826  0.05603  0.19186  1.0000
  C   C465      1.0  0.71055  0.46416  0.29768  1.0000
  H   H473      1.0  0.92791  0.28003  0.18692  1.0000
  N   N43       1.0  0.95791  0.26008  0.18801  1.0000
  C   C466      1.0  0.93098  0.26154  0.20279  1.0000
  H   H474      1.0  0.52805  0.45255  0.21755  1.0000
  C   C467      1.0  0.95886  0.25722  0.15637  1.0000
  C   C468      1.0  0.89468  0.12097  0.99588  1.0000
  N   N44       1.0  0.67553  0.18694  0.98698  1.0000
  H   H475      1.0  0.78839  0.00151  0.20710  1.0000
  N   N45       1.0  0.56432  0.47454  0.17549  1.0000
  H   H476      1.0  0.96671  0.21440  0.01863  1.0000
  H   H477      1.0  0.82840  0.00285  0.17309  1.0000
  C   C469      1.0  0.97968  0.33257  0.29944  1.0000
  H   H478      1.0  0.72771  0.20472  0.98025  1.0000
  C   C470      1.0  0.92545  0.05097  0.30506  1.0000
  C   C471      1.0  0.98087  0.25997  0.20599  1.0000
  S   S152      1.0  0.57850  0.99428  0.30949  1.0000
  H   H479      1.0  0.50985  0.18481  0.97624  1.0000
  Fe  Fe78      1.0  0.58480  0.03368  0.33841  1.0000
  C   C472      1.0  0.58241  0.04327  0.61224  1.0000
  H   H480      1.0  0.95244  0.12101  0.34143  1.0000
  H   H481      1.0  0.58643  0.98430  0.57820  1.0000
  S   S153      1.0  0.70458  0.43335  0.39312  1.0000
  H   H482      1.0  0.82481  0.03605  0.31692  1.0000
  C   C473      1.0  0.92916  0.28958  0.33693  1.0000
  H   H483      1.0  0.50053  0.13781  0.33062  1.0000
  C   C474      1.0  0.57108  0.27424  0.49306  1.0000
  C   C475      1.0  0.57202  0.24744  0.48372  1.0000
  C   C476      1.0  0.87597  0.07164  0.40305  1.0000
  N   N46       1.0  0.60503  0.47131  0.41304  1.0000
  Fe  Fe79      1.0  0.71489  0.45500  0.43932  1.0000
  S   S154      1.0  0.78070  0.10419  0.34846  1.0000
  Fe  Fe80      1.0  0.51010  0.01094  0.33575  1.0000
  S   S155      1.0  0.48627  0.47276  0.32259  1.0000
  S   S156      1.0  0.53509  0.99496  0.37140  1.0000
  C   C477      1.0  0.86711  0.03978  0.49603  1.0000
  Fe  Fe81      1.0  0.51857  0.45793  0.34599  1.0000
  C   C478      1.0  0.65056  0.05332  0.42774  1.0000
  S   S157      1.0  0.88259  0.15711  0.33194  1.0000
  C   C479      1.0  0.83324  0.08191  0.39338  1.0000
  Fe  Fe82      1.0  0.55510  0.10886  0.60809  1.0000
  S   S158      1.0  0.51792  0.06495  0.58289  1.0000
  Fe  Fe83      1.0  0.58494  0.16427  0.54605  1.0000
  S   S159      1.0  0.55085  0.12396  0.51649  1.0000
  S   S160      1.0  0.62708  0.22115  0.52248  1.0000
  H   H484      1.0  0.62185  0.42615  0.35288  1.0000
  H   H485      1.0  0.60761  0.00478  0.41742  1.0000
  Fe  Fe84      1.0  0.56233  0.08818  0.54404  1.0000
  S   S161      1.0  0.56958  0.05002  0.52253  1.0000
  S   S162      1.0  0.54311  0.14618  0.58542  1.0000
  S   S163      1.0  0.59951  0.12998  0.57020  1.0000
  H   H486      1.0  0.65777  0.03182  0.34262  1.0000
  S   S164      1.0  0.80246  0.99000  0.53147  1.0000
  C   C480      1.0  0.63450  0.02003  0.41972  1.0000
  Fe  Fe85      1.0  0.69120  0.42178  0.50966  1.0000
  C   C481      1.0  0.97008  0.08756  0.34780  1.0000
  S   S165      1.0  0.65548  0.36759  0.54205  1.0000
  S   S166      1.0  0.49797  0.40116  0.36745  1.0000
  S   S167      1.0  0.69356  0.03545  0.51007  1.0000
  C   C482      1.0  0.71527  0.45992  0.35505  1.0000
  H   H487      1.0  0.56526  0.41610  0.36077  1.0000
  S   S168      1.0  0.66734  0.43527  0.47143  1.0000
  S   S169      1.0  0.73782  0.43908  0.47690  1.0000
  C   C483      1.0  0.93423  0.31683  0.35223  1.0000
  H   H488      1.0  0.82025  0.09376  0.39856  1.0000
  C   C484      1.0  0.90169  0.03646  0.54680  1.0000
  C   C485      1.0  0.92070  0.05894  0.51770  1.0000
  C   C486      1.0  0.90312  0.06037  0.49235  1.0000
  H   H489      1.0  0.70284  0.01712  0.41160  1.0000
  H   H490      1.0  0.55248  0.22008  0.49419  1.0000
  H   H491      1.0  0.91461  0.03492  0.56658  1.0000
  H   H492      1.0  0.67000  0.30037  0.60538  1.0000
  N   N47       1.0  0.62675  0.02533  0.59889  1.0000
  C   C487      1.0  0.60487  0.04736  0.51780  1.0000
  C   C488      1.0  0.63722  0.07338  0.52448  1.0000
  C   C489      1.0  0.66405  0.06952  0.52127  1.0000
  C   C490      1.0  0.65896  0.03944  0.51180  1.0000
  C   C491      1.0  0.58540  0.43314  0.37420  1.0000
  C   C492      1.0  0.59991  0.01751  0.50786  1.0000
  H   H493      1.0  0.64156  0.09651  0.53208  1.0000
  H   H494      1.0  0.68892  0.08990  0.52648  1.0000
  C   C493      1.0  0.57978  0.44970  0.39610  1.0000
  C   C494      1.0  0.74019  0.08123  0.42688  1.0000
  C   C495      1.0  0.63476  0.26142  0.52921  1.0000
  C   C496      1.0  0.61295  0.26262  0.55067  1.0000
  C   C497      1.0  0.62001  0.29535  0.55470  1.0000
  C   C498      1.0  0.64866  0.32718  0.53716  1.0000
  C   C499      1.0  0.67072  0.32593  0.51614  1.0000
  C   C500      1.0  0.66380  0.29327  0.51226  1.0000
  H   H495      1.0  0.59060  0.23837  0.56398  1.0000
  H   H496      1.0  0.60286  0.29601  0.57115  1.0000
  H   H497      1.0  0.69317  0.35015  0.50288  1.0000
  H   H498      1.0  0.68102  0.29268  0.49583  1.0000
  C   C501      1.0  0.72012  0.98496  0.35623  1.0000
  H   H499      1.0  0.85142  0.99853  0.57311  1.0000
  H   H500      1.0  0.66704  0.46500  0.38440  1.0000
  H   H501      1.0  0.51099  0.09151  0.33770  1.0000
  H   H502      1.0  0.76068  0.15225  0.34274  1.0000
  H   H503      1.0  0.75299  0.07045  0.41644  1.0000
  C   C502      1.0  0.85959  0.08707  0.41024  1.0000
  H   H504      1.0  0.75280  0.10847  0.41339  1.0000
  H   H505      1.0  0.64107  0.36732  0.43157  1.0000
  H   H506      1.0  0.98074  0.07151  0.44347  1.0000
  S   S170      1.0  0.74444  0.98910  0.38787  1.0000
  H   H507      1.0  0.76385  0.01214  0.31992  1.0000
  S   S171      1.0  0.75489  0.01892  0.46916  1.0000
  C   C503      1.0  0.62662  0.01339  0.50514  1.0000
  H   H508      1.0  0.66865  0.21474  0.57872  1.0000
  Fe  Fe86      1.0  0.50880  0.10362  0.55695  1.0000
  C   C504      1.0  0.86572  0.01578  0.55043  1.0000
  C   C505      1.0  0.65099  0.35462  0.44641  1.0000
  S   S172      1.0  0.96626  0.08515  0.51129  1.0000
  H   H509      1.0  0.80289  0.05718  0.35677  1.0000
  C   C506      1.0  0.67659  0.08549  0.34388  1.0000
  C   C507      1.0  0.68012  0.05825  0.34201  1.0000
  C   C508      1.0  0.71252  0.06473  0.34156  1.0000
  C   C509      1.0  0.74191  0.09864  0.34151  1.0000
  H   H510      1.0  0.54702  0.00043  0.58922  1.0000
  S   S173      1.0  0.71566  0.47467  0.52537  1.0000
  H   H511      1.0  0.59719  0.33016  0.48862  1.0000
  C   C510      1.0  0.65937  0.22464  0.59469  1.0000
  H   H512      1.0  0.55072  0.26789  0.51076  1.0000
  H   H513      1.0  0.67567  0.03930  0.58156  1.0000
  H   H514      1.0  0.74398  0.08186  0.45254  1.0000
  H   H515      1.0  0.55508  0.44510  0.39939  1.0000
  H   H516      1.0  0.87825  0.03891  0.37387  1.0000
  H   H517      1.0  0.91749  0.07768  0.46977  1.0000
  C   C511      1.0  0.59736  0.30937  0.48039  1.0000
  H   H518      1.0  0.63613  0.06388  0.43197  1.0000
  H   H519      1.0  0.86726  0.10294  0.42884  1.0000
  N   N48       1.0  0.70376  0.06001  0.42419  1.0000
  C   C512      1.0  0.68818  0.02725  0.41659  1.0000
  C   C513      1.0  0.68538  0.07298  0.43008  1.0000
  H   H520      1.0  0.59488  0.15298  0.33080  1.0000
  H   H521      1.0  0.96778  0.02601  0.50892  1.0000
  C   C514      1.0  0.92797  0.08044  0.31298  1.0000
  C   C515      1.0  0.63711  0.05319  0.61397  1.0000
  H   H522      1.0  0.96013  0.03449  0.42275  1.0000
  H   H523      1.0  0.89659  0.07556  0.41586  1.0000
  C   C516      1.0  0.96829  0.05872  0.33899  1.0000
  H   H524      1.0  0.80265  0.99777  0.34896  1.0000
  C   C517      1.0  0.65332  0.00674  0.41429  1.0000
  H   H525      1.0  0.69766  0.09870  0.43660  1.0000
  Fe  Fe87      1.0  0.83151  0.13883  0.31568  1.0000
  H   H526      1.0  0.91666  0.31046  0.37291  1.0000
  C   C518      1.0  0.62460  0.29142  0.44924  1.0000
  C   C519      1.0  0.59891  0.25602  0.46166  1.0000
  S   S174      1.0  0.63612  0.07789  0.35063  1.0000
  H   H527      1.0  0.60044  0.23537  0.45518  1.0000
  C   C520      1.0  0.96178  0.35213  0.34105  1.0000
  H   H528      1.0  0.94203  0.03035  0.46224  1.0000
  H   H529      1.0  0.67228  0.35802  0.43128  1.0000
  H   H530      1.0  0.66184  0.36881  0.46658  1.0000
  C   C521      1.0  0.70604  0.11953  0.34335  1.0000
  H   H531      1.0  0.64575  0.29783  0.43264  1.0000
  C   C522      1.0  0.65010  0.01564  0.59259  1.0000
  N   N49       1.0  0.62368  0.31754  0.45884  1.0000
  H   H532      1.0  0.84599  0.01714  0.33195  1.0000
  C   C523      1.0  0.84807  0.01723  0.52518  1.0000
  C   C524      1.0  0.61700  0.43868  0.36983  1.0000
  Fe  Fe88      1.0  0.70330  0.99560  0.49664  1.0000
  H   H533      1.0  0.68627  0.41536  0.33150  1.0000
  C   C525      1.0  0.94542  0.04026  0.31790  1.0000
  N   N50       1.0  0.83951  0.04592  0.36294  1.0000
  C   C526      1.0  0.86543  0.05086  0.37929  1.0000
  C   C527      1.0  0.82359  0.06127  0.36959  1.0000
  C   C528      1.0  0.96642  0.04245  0.44653  1.0000
  H   H534      1.0  0.71470  0.04310  0.34218  1.0000
  C   C529      1.0  0.70241  0.44377  0.32842  1.0000
  C   C530      1.0  0.95029  0.09850  0.33477  1.0000
  H   H535      1.0  0.85403  0.04123  0.47640  1.0000
  C   C531      1.0  0.73850  0.12617  0.34180  1.0000
  H   H536      1.0  0.90791  0.26262  0.34593  1.0000
  C   C532      1.0  0.66002  0.27267  0.60960  1.0000
  C   C533      1.0  0.82759  0.02292  0.33905  1.0000
  H   H537      1.0  0.57504  0.99718  0.50260  1.0000
  C   C534      1.0  0.61511  0.06258  0.62087  1.0000
  H   H538      1.0  0.70370  0.14078  0.34517  1.0000
  C   C535      1.0  0.67315  0.26043  0.58985  1.0000
  H   H539      1.0  0.66257  0.06842  0.62059  1.0000
  H   H540      1.0  0.94310  0.01758  0.31154  1.0000
  C   C536      1.0  0.57202  0.01483  0.59701  1.0000
  H   H541      1.0  0.64130  0.99722  0.57529  1.0000
  C   C537      1.0  0.59456  0.00603  0.59064  1.0000
  H   H542      1.0  0.62218  0.99008  0.49788  1.0000
  H   H543      1.0  0.69324  0.27848  0.57015  1.0000
  H   H544      1.0  0.65251  0.00293  0.61525  1.0000
  C   C538      1.0  0.63275  0.20153  0.61952  1.0000
  H   H545      1.0  0.63569  0.13733  0.33249  1.0000
  H   H546      1.0  0.56527  0.05054  0.61713  1.0000
  H   H547      1.0  0.62215  0.17374  0.62319  1.0000
  C   C539      1.0  0.64240  0.46044  0.38748  1.0000
  C   C540      1.0  0.73673  0.99901  0.32451  1.0000
  C   C541      1.0  0.95204  0.29724  0.31057  1.0000
  C   C542      1.0  0.48607  0.08468  0.33366  1.0000
  H   H548      1.0  0.62323  0.08476  0.63270  1.0000
  C   C543      1.0  0.63317  0.24877  0.63406  1.0000
  S   S175      1.0  0.96794  0.38520  0.36233  1.0000
  N   N51       1.0  0.61992  0.21369  0.63873  1.0000
  H   H549      1.0  0.60128  0.47985  0.46042  1.0000
  C   C544      1.0  0.63593  0.47655  0.40913  1.0000
  C   C545      1.0  0.62651  0.14005  0.31008  1.0000
  S   S176      1.0  0.86828  0.22427  0.92047  1.0000
  S   S177      1.0  0.93957  0.32617  0.91877  1.0000
  S   S178      1.0  0.57201  0.10280  0.65691  1.0000
  Fe  Fe89      1.0  0.59605  0.10858  0.89449  1.0000
  S   S179      1.0  0.56248  0.06160  0.87036  1.0000
  S   S180      1.0  0.65451  0.13983  0.89021  1.0000
  Fe  Fe90      1.0  0.53655  0.11314  0.91496  1.0000
  H   H550      1.0  0.72743  0.18394  0.87638  1.0000
  Fe  Fe91      1.0  0.90353  0.26906  0.94625  1.0000
  Fe  Fe92      1.0  0.52394  0.04099  0.91422  1.0000
  H   H551      1.0  0.95419  0.10104  0.89907  1.0000
  Fe  Fe93      1.0  0.54083  0.09079  0.85048  1.0000
  S   S181      1.0  0.52103  0.09200  0.80224  1.0000
  S   S182      1.0  0.55861  0.08610  0.93944  1.0000
  S   S183      1.0  0.57640  0.13891  0.87158  1.0000
  C   C546      1.0  0.55708  0.09950  0.69714  1.0000
  C   C547      1.0  0.52825  0.09865  0.70499  1.0000
  C   C548      1.0  0.51778  0.09650  0.73723  1.0000
  C   C549      1.0  0.53600  0.09534  0.76201  1.0000
  C   C550      1.0  0.56488  0.09630  0.75413  1.0000
  C   C551      1.0  0.57530  0.09834  0.72190  1.0000
  H   H552      1.0  0.50265  0.40164  0.89293  1.0000
  H   H553      1.0  0.96894  0.20139  0.94241  1.0000
  H   H554      1.0  0.57923  0.09551  0.77285  1.0000
  H   H555      1.0  0.59774  0.09913  0.71615  1.0000
  C   C552      1.0  0.94974  0.36787  0.92476  1.0000
  H   H556      1.0  0.64551  0.19060  0.91671  1.0000
  C   C553      1.0  0.59193  0.18864  0.66445  1.0000
  C   C554      1.0  0.61596  0.17071  0.96355  1.0000
  S   S184      1.0  0.92862  0.24319  0.96539  1.0000
  C   C555      1.0  0.67546  0.19414  0.95465  1.0000
  C   C556      1.0  0.70584  0.13474  0.96385  1.0000
  H   H557      1.0  0.56771  0.25638  0.91962  1.0000
  H   H558      1.0  0.58244  0.20118  0.67728  1.0000
  C   C557      1.0  0.93528  0.15645  0.92100  1.0000
  H   H559      1.0  0.48921  0.28241  0.93715  1.0000
  H   H560      1.0  0.51387  0.09943  0.68631  1.0000
  C   C558      1.0  0.95753  0.12285  0.90864  1.0000
  C   C559      1.0  0.93148  0.12806  0.90896  1.0000
  H   H561      1.0  0.69830  0.20557  0.93794  1.0000
  H   H562      1.0  0.90819  0.11003  0.89961  1.0000
  C   C560      1.0  0.68672  0.14545  0.91395  1.0000
  C   C561      1.0  0.67925  0.12774  0.94567  1.0000
  C   C562      1.0  0.74032  0.15951  0.95076  1.0000
  C   C563      1.0  0.74774  0.17697  0.91901  1.0000
  C   C564      1.0  0.72117  0.16998  0.90083  1.0000
  H   H563      1.0  0.77399  0.19616  0.90848  1.0000
  H   H564      1.0  0.62290  0.25850  0.64904  1.0000
  H   H565      1.0  0.53803  0.28246  0.93465  1.0000
  H   H566      1.0  0.48206  0.28776  0.89609  1.0000
  C   C565      1.0  0.49056  0.14927  0.94250  1.0000
  H   H567      1.0  0.90939  0.34781  0.96314  1.0000
  S   S185      1.0  0.97629  0.47733  0.93559  1.0000
  C   C566      1.0  0.48865  0.40335  0.91214  1.0000
  C   C567      1.0  0.49602  0.43648  0.91514  1.0000
  C   C568      1.0  0.97427  0.18102  0.83596  1.0000
  Fe  Fe94      1.0  0.89145  0.19737  0.94301  1.0000
  C   C569      1.0  0.96550  0.17939  0.93313  1.0000
  C   C570      1.0  0.53097  0.22491  0.88939  1.0000
  S   S186      1.0  0.49986  0.06694  0.89289  1.0000
  C   C571      1.0  0.93083  0.37118  0.94785  1.0000
  H   H568      1.0  0.51538  0.45985  0.89827  1.0000
  C   C572      1.0  0.93937  0.40479  0.95084  1.0000
  H   H569      1.0  0.54329  0.21257  0.88344  1.0000
  H   H570      1.0  0.92427  0.40683  0.96857  1.0000
  S   S187      1.0  0.90192  0.16230  0.91953  1.0000
  S   S188      1.0  0.52436  0.14404  0.94339  1.0000
  Fe  Fe95      1.0  0.83140  0.20079  0.96619  1.0000
  H   H571      1.0  0.60046  0.17662  0.68228  1.0000
  H   H572      1.0  0.65300  0.10884  0.95626  1.0000
  C   C573      1.0  0.52749  0.26378  0.91845  1.0000
  C   C574      1.0  0.64565  0.18589  0.94245  1.0000
  H   H573      1.0  0.49533  0.09567  0.74304  1.0000
  H   H574      1.0  0.59265  0.16412  0.95440  1.0000
  C   C575      1.0  0.96708  0.43561  0.93108  1.0000
  C   C576      1.0  0.54454  0.24933  0.90988  1.0000
  H   H575      1.0  0.50978  0.02286  0.80094  1.0000
  N   N52       1.0  0.49757  0.25388  0.90712  1.0000
  C   C577      1.0  0.50076  0.21544  0.87756  1.0000
  S   S189      1.0  0.48490  0.98501  0.94208  1.0000
  H   H576      1.0  0.57022  0.16718  0.65437  1.0000
  H   H577      1.0  0.94752  0.15720  0.84063  1.0000
  C   C578      1.0  0.48989  0.17137  0.96146  1.0000
  C   C579      1.0  0.97750  0.39875  0.90505  1.0000
  S   S190      1.0  0.48449  0.47977  0.94355  1.0000
  C   C580      1.0  0.49343  0.00030  0.82003  1.0000
  H   H578      1.0  0.97964  0.19267  0.85809  1.0000
  H   H579      1.0  0.48952  0.19576  0.86232  1.0000
  C   C581      1.0  0.48430  0.23027  0.88672  1.0000
  H   H580      1.0  0.97662  0.20043  0.81606  1.0000
  H   H581      1.0  0.96977  0.14485  0.79089  1.0000
  H   H582      1.0  0.97951  0.98974  0.74378  1.0000
  S   S191      1.0  0.77269  0.16914  0.97585  1.0000
  H   H583      1.0  0.92805  0.62247  0.00503  1.0000
  Fe  Fe96      1.0  0.56909  0.72170  0.11121  1.0000
  S   S192      1.0  0.54904  0.68403  0.07610  1.0000
  S   S193      1.0  0.60349  0.78136  0.09322  1.0000
  Fe  Fe97      1.0  0.53567  0.66125  0.16678  1.0000
  S   S194      1.0  0.51229  0.61934  0.13648  1.0000
  S   S195      1.0  0.52747  0.64317  0.21965  1.0000
  Fe  Fe98      1.0  0.56417  0.65323  0.10722  1.0000
  S   S196      1.0  0.58983  0.62912  0.08711  1.0000
  Fe  Fe99      1.0  0.49903  0.65300  0.10908  1.0000
  H   H584      1.0  0.85335  0.61360  0.04548  1.0000
  S   S197      1.0  0.58800  0.69337  0.13934  1.0000
  S   S198      1.0  0.51842  0.69251  0.14190  1.0000
  S   S199      1.0  0.84027  0.64915  0.19939  1.0000
  Fe  Fe100     1.0  0.88630  0.72812  0.01258  1.0000
  C   C582      1.0  0.55572  0.94218  0.23910  1.0000
  S   S200      1.0  0.90663  0.74314  0.05979  1.0000
  S   S201      1.0  0.74543  0.52773  0.25516  1.0000
  S   S202      1.0  0.84073  0.61262  0.28400  1.0000
  S   S203      1.0  0.93775  0.59285  0.08628  1.0000
  H   H585      1.0  0.57930  0.91467  0.20490  1.0000
  H   H586      1.0  0.57493  0.52415  0.17891  1.0000
  H   H587      1.0  0.78345  0.63765  0.25387  1.0000
  H   H588      1.0  0.53285  0.49262  0.16981  1.0000
  H   H589      1.0  0.53297  0.75088  0.08270  1.0000
  S   S204      1.0  0.69064  0.50513  0.12529  1.0000
  S   S205      1.0  0.62198  0.90866  0.15279  1.0000
  Fe  Fe101     1.0  0.72009  0.51224  0.21038  1.0000
  S   S206      1.0  0.73712  0.55927  0.17272  1.0000
  S   S207      1.0  0.91186  0.60223  0.29599  1.0000
  Fe  Fe102     1.0  0.68313  0.53138  0.16224  1.0000
  S   S208      1.0  0.65818  0.56112  0.16233  1.0000
  Fe  Fe103     1.0  0.74410  0.53048  0.13886  1.0000
  S   S209      1.0  0.79403  0.56673  0.10490  1.0000
  H   H590      1.0  0.55818  0.92275  0.30041  1.0000
  H   H591      1.0  0.89293  0.67085  0.05549  1.0000
  C   C583      1.0  0.92346  0.58919  0.19459  1.0000
  S   S210      1.0  0.85322  0.67525  0.99861  1.0000
  S   S211      1.0  0.72983  0.48474  0.17708  1.0000
  C   C584      1.0  0.56001  0.50259  0.16524  1.0000
  C   C585      1.0  0.89752  0.58378  0.09829  1.0000
  H   H592      1.0  0.57765  0.97042  0.23453  1.0000
  N   N53       1.0  0.59659  0.64554  0.98774  1.0000
  C   C586      1.0  0.54423  0.75217  0.03278  1.0000
  H   H593      1.0  0.87024  0.53185  0.08663  1.0000
  H   H594      1.0  0.53326  0.86067  0.02948  1.0000
  C   C587      1.0  0.91359  0.67053  0.04528  1.0000
  H   H595      1.0  0.70960  0.54984  0.28766  1.0000
  S   S212      1.0  0.91473  0.68472  0.25680  1.0000
  H   H596      1.0  0.54493  0.93552  0.21628  1.0000
  C   C588      1.0  0.94705  0.69809  0.04765  1.0000
  S   S213      1.0  0.52531  0.50773  0.23241  1.0000
  C   C589      1.0  0.53066  0.73905  0.00528  1.0000
  C   C590      1.0  0.85900  0.67617  0.16100  1.0000
  C   C591      1.0  0.89056  0.70886  0.15619  1.0000
  C   C592      1.0  0.90473  0.72908  0.12502  1.0000
  C   C593      1.0  0.88748  0.71683  0.09848  1.0000
  C   C594      1.0  0.85582  0.68419  0.10335  1.0000
  C   C595      1.0  0.84163  0.66408  0.13454  1.0000
  H   H597      1.0  0.90387  0.71861  0.17647  1.0000
  H   H598      1.0  0.92913  0.75442  0.12146  1.0000
  H   H599      1.0  0.84233  0.67445  0.08314  1.0000
  H   H600      1.0  0.81735  0.63865  0.13819  1.0000
  Fe  Fe104     1.0  0.89371  0.63802  0.29677  1.0000
  C   C596      1.0  0.86800  0.55137  0.09477  1.0000
  C   C597      1.0  0.83563  0.54455  0.10012  1.0000
  C   C598      1.0  0.83234  0.57027  0.10870  1.0000
  C   C599      1.0  0.86185  0.60234  0.11313  1.0000
  C   C600      1.0  0.89421  0.60886  0.10855  1.0000
  C   C601      1.0  0.73210  0.50083  0.29341  1.0000
  H   H601      1.0  0.81342  0.52021  0.09553  1.0000
  H   H602      1.0  0.85995  0.62286  0.11883  1.0000
  H   H603      1.0  0.86587  0.61733  0.00383  1.0000
  C   C602      1.0  0.60891  0.61042  0.10835  1.0000
  C   C603      1.0  0.61856  0.59211  0.09268  1.0000
  C   C604      1.0  0.63374  0.57698  0.10859  1.0000
  C   C605      1.0  0.63964  0.58005  0.14049  1.0000
  C   C606      1.0  0.63017  0.59848  0.15606  1.0000
  C   C607      1.0  0.61511  0.61367  0.14013  1.0000
  H   H604      1.0  0.61396  0.58932  0.06812  1.0000
  H   H605      1.0  0.64069  0.56284  0.09619  1.0000
  H   H606      1.0  0.63417  0.60084  0.18078  1.0000
  H   H607      1.0  0.60821  0.62786  0.15251  1.0000
  C   C608      1.0  0.60960  0.81578  0.11241  1.0000
  C   C609      1.0  0.58498  0.81015  0.13579  1.0000
  C   C610      1.0  0.58954  0.83878  0.14821  1.0000
  C   C611      1.0  0.61909  0.87329  0.13811  1.0000
  C   C612      1.0  0.64408  0.87875  0.11535  1.0000
  C   C613      1.0  0.63912  0.85026  0.10232  1.0000
  H   H608      1.0  0.56206  0.78391  0.14372  1.0000
  H   H609      1.0  0.56993  0.83420  0.16566  1.0000
  H   H610      1.0  0.66677  0.90507  0.10703  1.0000
  H   H611      1.0  0.65828  0.85504  0.08413  1.0000
  C   C614      1.0  0.52213  0.54305  0.22709  1.0000
  C   C615      1.0  0.53974  0.56936  0.19995  1.0000
  C   C616      1.0  0.54185  0.60040  0.19813  1.0000
  C   C617      1.0  0.52541  0.60465  0.22291  1.0000
  C   C618      1.0  0.52253  0.74112  0.06114  1.0000
  S   S214      1.0  0.65984  0.97717  0.27231  1.0000
  H   H612      1.0  0.68913  0.61682  0.20405  1.0000
  H   H613      1.0  0.55698  0.62138  0.17779  1.0000
  C   C619      1.0  0.50579  0.54732  0.25202  1.0000
  H   H614      1.0  0.59887  0.65760  0.22951  1.0000
  H   H615      1.0  0.56372  0.60894  0.02984  1.0000
  H   H616      1.0  0.86837  0.58879  0.03446  1.0000
  C   C620      1.0  0.96895  0.83676  0.29451  1.0000
  S   S215      1.0  0.94293  0.76949  0.28504  1.0000
  Fe  Fe105     1.0  0.66623  0.96453  0.15818  1.0000
  N   N54       1.0  0.97432  0.86495  0.99067  1.0000
  H   H617      1.0  0.65063  0.52743  0.27904  1.0000
  C   C621      1.0  0.50297  0.71604  0.23260  1.0000
  C   C622      1.0  0.93324  0.64349  0.01733  1.0000
  C   C623      1.0  0.48747  0.71679  0.06171  1.0000
  H   H618      1.0  0.94869  0.49458  0.98891  1.0000
  N   N55       1.0  0.85883  0.57460  0.19688  1.0000
  C   C624      1.0  0.88306  0.60059  0.21160  1.0000
  C   C625      1.0  0.86649  0.55634  0.18037  1.0000
  H   H619      1.0  0.55875  0.64139  0.27519  1.0000
  C   C626      1.0  0.89892  0.56343  0.17887  1.0000
  C   C627      1.0  0.93704  0.56238  0.30432  1.0000
  C   C628      1.0  0.82506  0.56757  0.19735  1.0000
  H   H620      1.0  0.87731  0.61573  0.22391  1.0000
  H   H621      1.0  0.84766  0.53653  0.16781  1.0000
  H   H622      1.0  0.77738  0.60123  0.23752  1.0000
  H   H623      1.0  0.60336  0.88274  0.22484  1.0000
  Fe  Fe106     1.0  0.86130  0.66092  0.24674  1.0000
  H   H624      1.0  0.82506  0.58475  0.17671  1.0000
  H   H625      1.0  0.80513  0.53966  0.19613  1.0000
  H   H626      1.0  0.81762  0.57281  0.21981  1.0000
  C   C629      1.0  0.97122  0.88928  0.00144  1.0000
  C   C630      1.0  0.67181  0.55177  0.26446  1.0000
  H   H627      1.0  0.60320  0.49268  0.13671  1.0000
  H   H628      1.0  0.96615  0.76376  0.22210  1.0000
  H   H629      1.0  0.92940  0.52268  0.02070  1.0000
  C   C631      1.0  0.50747  0.57818  0.24998  1.0000
  H   H630      1.0  0.53570  0.93854  0.25642  1.0000
  H   H631      1.0  0.97396  0.84355  0.26861  1.0000
  C   C632      1.0  0.59277  0.89068  0.24174  1.0000
  C   C633      1.0  0.56744  0.91346  0.28377  1.0000
  S   S216      1.0  0.66555  0.48636  0.20303  1.0000
  C   C634      1.0  0.76699  0.60861  0.25598  1.0000
  C   C635      1.0  0.56680  0.62627  0.00834  1.0000
  H   H632      1.0  0.93023  0.55709  0.28066  1.0000
  H   H633      1.0  0.93074  0.81534  0.98602  1.0000
  H   H634      1.0  0.96787  0.56357  0.05550  1.0000
  H   H635      1.0  0.96110  0.97424  0.25785  1.0000
  H   H636      1.0  0.96283  0.73076  0.17929  1.0000
  N   N56       1.0  0.75179  0.61230  0.06041  1.0000
  C   C636      1.0  0.72907  0.61699  0.04686  1.0000
  C   C637      1.0  0.75841  0.61799  0.09092  1.0000
  C   C638      1.0  0.71314  0.62876  0.06357  1.0000
  C   C639      1.0  0.74264  0.62936  0.10849  1.0000
  C   C640      1.0  0.72000  0.63495  0.09460  1.0000
  C   C641      1.0  0.76776  0.59919  0.04300  1.0000
  H   H637      1.0  0.72329  0.61183  0.02292  1.0000
  H   H638      1.0  0.77591  0.61365  0.10187  1.0000
  H   H639      1.0  0.69543  0.63283  0.05258  1.0000
  H   H640      1.0  0.74779  0.63353  0.13278  1.0000
  H   H641      1.0  0.70743  0.64359  0.10799  1.0000
  H   H642      1.0  0.75367  0.57031  0.05098  1.0000
  C   C642      1.0  0.53976  0.62836  0.00190  1.0000
  H   H643      1.0  0.56853  0.51359  0.13920  1.0000
  H   H644      1.0  0.51772  0.70523  0.27753  1.0000
  C   C643      1.0  0.97615  0.55156  0.04121  1.0000
  C   C644      1.0  0.96526  0.51273  0.00406  1.0000
  C   C645      1.0  0.50609  0.84678  0.03624  1.0000
  H   H645      1.0  0.74794  0.63834  0.21327  1.0000
  H   H646      1.0  0.79452  0.61192  0.04764  1.0000
  N   N57       1.0  0.90705  0.64342  0.03069  1.0000
  S   S217      1.0  0.70356  0.97218  0.19261  1.0000
  H   H647      1.0  0.95201  0.71941  0.05938  1.0000
  C   C646      1.0  0.72657  0.61429  0.22806  1.0000
  Fe  Fe107     1.0  0.53083  0.50239  0.28404  1.0000
  Fe  Fe108     1.0  0.90328  0.70949  0.29279  1.0000
  H   H648      1.0  0.93445  0.62788  0.22353  1.0000
  H   H649      1.0  0.91670  0.63403  0.11119  1.0000
  S   S218      1.0  0.85033  0.68760  0.28013  1.0000
  N   N58       1.0  0.56698  0.92031  0.25149  1.0000
  C   C647      1.0  0.69346  0.60233  0.22281  1.0000
  C   C648      1.0  0.91555  0.60793  0.21108  1.0000
  H   H650      1.0  0.55277  0.56631  0.18092  1.0000
  N   N59       1.0  0.73204  0.59577  0.25144  1.0000
  C   C649      1.0  0.66594  0.57087  0.24117  1.0000
  C   C650      1.0  0.49542  0.71494  0.00663  1.0000
  H   H651      1.0  0.51625  0.61310  0.01838  1.0000
  C   C651      1.0  0.70523  0.56467  0.26929  1.0000
  H   H652      1.0  0.94863  0.59476  0.19389  1.0000
  C   C652      1.0  0.87191  0.61443  0.02853  1.0000
  C   C653      1.0  0.97391  0.69800  0.03467  1.0000
  C   C654      1.0  0.50194  0.69411  0.25889  1.0000
  H   H653      1.0  0.76823  0.59694  0.27993  1.0000
  C   C655      1.0  0.94924  0.82734  0.00330  1.0000
  H   H654      1.0  0.49211  0.52697  0.27312  1.0000
  H   H655      1.0  0.63653  0.65951  0.23438  1.0000
  H   H656      1.0  0.90515  0.54940  0.16522  1.0000
  C   C656      1.0  0.60891  0.64414  0.24299  1.0000
  C   C657      1.0  0.57919  0.90894  0.23056  1.0000
  C   C658      1.0  0.96701  0.67066  0.01920  1.0000
  H   H657      1.0  0.50761  0.83256  0.08608  1.0000
  S   S219      1.0  0.55763  0.55213  0.30341  1.0000
  H   H658      1.0  0.93506  0.82247  0.02687  1.0000
  H   H659      1.0  0.76839  0.60506  0.01660  1.0000
  H   H660      1.0  0.64013  0.56106  0.23705  1.0000
  H   H661      1.0  0.57156  0.77055  0.03236  1.0000
  H   H662      1.0  0.51940  0.74439  0.23072  1.0000
  H   H663      1.0  0.95047  0.88101  0.01962  1.0000
  H   H664      1.0  0.62599  0.63961  0.02072  1.0000
  C   C659      1.0  0.95451  0.52848  0.02181  1.0000
  H   H665      1.0  0.59592  0.61730  0.23723  1.0000
  H   H666      1.0  0.64917  0.66537  0.98204  1.0000
  S   S220      1.0  0.86126  0.75001  0.98516  1.0000
  S   S221      1.0  0.49882  0.96866  0.30769  1.0000
  H   H667      1.0  0.49496  0.58145  0.26933  1.0000
  H   H668      1.0  0.60460  0.87029  0.28357  1.0000
  C   C660      1.0  0.59346  0.88373  0.27461  1.0000
  C   C661      1.0  0.58041  0.89485  0.29585  1.0000
  H   H669      1.0  0.49641  0.85671  0.98814  1.0000
  H   H670      1.0  0.54731  0.74734  0.98312  1.0000
  C   C662      1.0  0.62413  0.64203  0.99454  1.0000
  H   H671      1.0  0.61939  0.61844  0.98610  1.0000
  C   C663      1.0  0.57535  0.63960  0.29055  1.0000
  H   H672      1.0  0.48489  0.70473  0.98525  1.0000
  H   H673      1.0  0.96179  0.81364  0.00693  1.0000
  N   N60       1.0  0.60280  0.64145  0.27770  1.0000
  H   H674      1.0  0.64408  0.63816  0.28732  1.0000
  C   C664      1.0  0.68345  0.97991  0.30417  1.0000
  S   S222      1.0  0.56168  0.48523  0.30545  1.0000
  C   C665      1.0  0.62306  0.63806  0.29731  1.0000
  H   H675      1.0  0.71103  0.63723  0.30462  1.0000
  C   C666      1.0  0.49142  0.83091  0.06819  1.0000
  C   C667      1.0  0.48227  0.70125  0.20898  1.0000
  H   H676      1.0  0.48239  0.89265  0.29927  1.0000
  C   C668      1.0  0.95216  0.80134  0.30945  1.0000
  H   H677      1.0  0.95789  0.53196  0.30879  1.0000
  H   H678      1.0  0.48208  0.71784  0.18879  1.0000
  C   C669      1.0  0.48547  0.84463  0.01306  1.0000
  H   H679      1.0  0.82205  0.54004  0.30945  1.0000
  C   C670      1.0  0.82735  0.52471  0.32719  1.0000
  H   H680      1.0  0.80432  0.49709  0.33292  1.0000
  C   C671      1.0  0.65235  0.78721  0.59341  1.0000
  C   C672      1.0  0.86248  0.54577  0.40485  1.0000
  H   H681      1.0  0.95082  0.81300  0.38718  1.0000
  C   C673      1.0  0.64159  0.51885  0.53580  1.0000
  H   H682      1.0  0.54547  0.63212  0.33386  1.0000
  H   H683      1.0  0.67189  0.95698  0.38606  1.0000
  H   H684      1.0  0.64116  0.98100  0.40781  1.0000
  S   S223      1.0  0.81502  0.53607  0.49919  1.0000
  C   C674      1.0  0.72190  0.87463  0.54439  1.0000
  H   H685      1.0  0.78554  0.61003  0.42396  1.0000
  H   H686      1.0  0.96506  0.53568  0.46224  1.0000
  S   S224      1.0  0.78346  0.60529  0.35273  1.0000
  C   C675      1.0  0.65670  0.76444  0.57966  1.0000
  H   H687      1.0  0.71378  0.54469  0.37151  1.0000
  H   H688      1.0  0.72400  0.82483  0.52338  1.0000
  C   C676      1.0  0.95533  0.57582  0.36499  1.0000
  H   H689      1.0  0.64790  0.50157  0.54690  1.0000
  Fe  Fe109     1.0  0.75884  0.98102  0.50341  1.0000
  S   S225      1.0  0.88572  0.66401  0.33380  1.0000
  H   H690      1.0  0.74450  0.88709  0.55737  1.0000
  Fe  Fe110     1.0  0.54114  0.61709  0.60894  1.0000
  S   S226      1.0  0.51874  0.56608  0.59156  1.0000
  Fe  Fe111     1.0  0.57422  0.66035  0.54160  1.0000
  S   S227      1.0  0.55413  0.61176  0.51935  1.0000
  S   S228      1.0  0.61104  0.71548  0.51099  1.0000
  H   H691      1.0  0.82146  0.58520  0.40108  1.0000
  S   S229      1.0  0.95320  0.55132  0.52588  1.0000
  Fe  Fe112     1.0  0.56974  0.59220  0.56167  1.0000
  S   S230      1.0  0.59295  0.56063  0.56614  1.0000
  S   S231      1.0  0.52352  0.63835  0.56972  1.0000
  S   S232      1.0  0.59297  0.64219  0.58196  1.0000
  Fe  Fe113     1.0  0.52759  0.95632  0.33999  1.0000
  S   S233      1.0  0.74139  0.50991  0.44885  1.0000
  S   S234      1.0  0.51044  0.90054  0.36021  1.0000
  Fe  Fe114     1.0  0.68382  0.91996  0.50135  1.0000
  H   H692      1.0  0.66971  0.84087  0.59143  1.0000
  S   S235      1.0  0.64202  0.86385  0.52726  1.0000
  H   H693      1.0  0.63162  0.62905  0.34614  1.0000
  C   C677      1.0  0.82404  0.55764  0.36562  1.0000
  Fe  Fe115     1.0  0.83338  0.64074  0.31828  1.0000
  S   S236      1.0  0.70921  0.96062  0.53310  1.0000
  S   S237      1.0  0.67453  0.95371  0.46663  1.0000
  S   S238      1.0  0.73351  0.93819  0.47387  1.0000
  C   C678      1.0  0.85268  0.53898  0.50749  1.0000
  C   C679      1.0  0.87911  0.56896  0.51841  1.0000
  C   C680      1.0  0.90967  0.57300  0.52466  1.0000
  C   C681      1.0  0.91463  0.54733  0.51960  1.0000
  C   C682      1.0  0.88836  0.51757  0.50827  1.0000
  C   C683      1.0  0.85758  0.51326  0.50248  1.0000
  S   S239      1.0  0.67327  0.52186  0.47757  1.0000
  H   H694      1.0  0.92950  0.59615  0.53315  1.0000
  Fe  Fe116     1.0  0.72625  0.97484  0.44141  1.0000
  C   C684      1.0  0.74298  0.62319  0.32466  1.0000
  C   C685      1.0  0.61526  0.55029  0.54084  1.0000
  C   C686      1.0  0.62404  0.52798  0.55461  1.0000
  H   H695      1.0  0.63964  0.95327  0.34036  1.0000
  C   C687      1.0  0.65075  0.53201  0.50279  1.0000
  C   C688      1.0  0.64231  0.55459  0.48902  1.0000
  C   C689      1.0  0.62463  0.56360  0.50781  1.0000
  H   H696      1.0  0.74561  0.50930  0.37133  1.0000
  H   H697      1.0  0.80872  0.56217  0.35063  1.0000
  C   C690      1.0  0.68282  0.77812  0.55453  1.0000
  H   H698      1.0  0.61827  0.58087  0.49679  1.0000
  C   C691      1.0  0.61708  0.75600  0.51408  1.0000
  C   C692      1.0  0.59757  0.75841  0.53727  1.0000
  C   C693      1.0  0.60493  0.79151  0.54023  1.0000
  C   C694      1.0  0.63192  0.82264  0.52022  1.0000
  C   C695      1.0  0.65096  0.82017  0.49657  1.0000
  C   C696      1.0  0.64347  0.78704  0.49349  1.0000
  H   H699      1.0  0.57713  0.73483  0.55321  1.0000
  H   H700      1.0  0.58994  0.79306  0.55853  1.0000
  H   H701      1.0  0.67165  0.84378  0.48087  1.0000
  H   H702      1.0  0.65860  0.78549  0.47534  1.0000
  N   N61       1.0  0.83624  0.53948  0.35662  1.0000
  Fe  Fe117     1.0  0.51497  0.52209  0.34391  1.0000
  H   H703      1.0  0.58156  0.62541  0.36981  1.0000
  H   H704      1.0  0.61702  0.51751  0.58010  1.0000
  C   C697      1.0  0.94532  0.79294  0.34300  1.0000
  C   C698      1.0  0.85507  0.53327  0.37590  1.0000
  H   H705      1.0  0.76643  0.64843  0.31479  1.0000
  H   H706      1.0  0.87744  0.54085  0.42013  1.0000
  H   H707      1.0  0.93269  0.76595  0.35496  1.0000
  H   H708      1.0  0.63910  0.73615  0.58760  1.0000
  H   H709      1.0  0.83777  0.49012  0.49397  1.0000
  C   C699      1.0  0.73599  0.49660  0.35091  1.0000
  C   C700      1.0  0.93982  0.59048  0.34890  1.0000
  H   H710      1.0  0.70853  0.88722  0.54740  1.0000
  C   C701      1.0  0.83109  0.57065  0.39429  1.0000
  C   C702      1.0  0.85041  0.56460  0.41403  1.0000
  C   C703      1.0  0.56772  0.63446  0.32377  1.0000
  H   H711      1.0  0.93508  0.60690  0.36014  1.0000
  C   C704      1.0  0.61607  0.63278  0.33069  1.0000
  C   C705      1.0  0.95284  0.54806  0.32025  1.0000
  C   C706      1.0  0.96269  0.55514  0.35047  1.0000
  C   C707      1.0  0.68167  0.55823  0.35050  1.0000
  C   C708      1.0  0.71325  0.56488  0.35673  1.0000
  C   C709      1.0  0.74412  0.59733  0.34366  1.0000
  C   C710      1.0  0.71145  0.61681  0.31908  1.0000
  H   H712      1.0  0.64949  0.56532  0.46360  1.0000
  H   H713      1.0  0.63150  0.77672  0.61233  1.0000
  H   H714      1.0  0.87591  0.58922  0.52226  1.0000
  Fe  Fe118     1.0  0.50429  0.58863  0.55042  1.0000
  H   H715      1.0  0.96250  0.58136  0.38850  1.0000
  S   S240      1.0  0.49710  0.55452  0.36125  1.0000
  C   C711      1.0  0.97893  0.86345  0.31271  1.0000
  C   C712      1.0  0.97277  0.85521  0.34629  1.0000
  H   H716      1.0  0.73048  0.88033  0.51828  1.0000
  H   H717      1.0  0.61895  0.51799  0.42923  1.0000
  H   H718      1.0  0.89173  0.49748  0.50416  1.0000
  H   H719      1.0  0.65600  0.49374  0.42240  1.0000
  C   C713      1.0  0.74465  0.51694  0.32010  1.0000
  H   H720      1.0  0.86469  0.51879  0.36882  1.0000
  H   H721      1.0  0.65816  0.53315  0.36021  1.0000
  H   H722      1.0  0.68547  0.76042  0.54292  1.0000
  C   C714      1.0  0.68060  0.58432  0.33186  1.0000
  H   H723      1.0  0.49216  0.61117  0.37052  1.0000
  H   H724      1.0  0.76112  0.54532  0.31694  1.0000
  C   C715      1.0  0.58805  0.63073  0.34395  1.0000
  H   H725      1.0  0.48693  0.82822  0.37753  1.0000
  C   C716      1.0  0.68499  0.96830  0.36182  1.0000
  S   S241      1.0  0.54383  0.50467  0.37196  1.0000
  N   N62       1.0  0.69931  0.83658  0.55652  1.0000
  C   C717      1.0  0.67403  0.82344  0.58147  1.0000
  C   C718      1.0  0.70421  0.81450  0.54336  1.0000
  S   S242      1.0  0.64180  0.57799  0.32327  1.0000
  H   H726      1.0  0.85594  0.57433  0.43647  1.0000
  C   C719      1.0  0.66677  0.96599  0.33587  1.0000
  H   H727      1.0  0.75913  0.62512  0.42616  1.0000
  C   C720      1.0  0.93077  0.58404  0.31825  1.0000
  C   C721      1.0  0.48721  0.86421  0.34015  1.0000
  N   N63       1.0  0.75747  0.59604  0.47028  1.0000
  C   C722      1.0  0.77405  0.58350  0.48530  1.0000
  C   C723      1.0  0.73584  0.59978  0.48787  1.0000
  C   C724      1.0  0.76908  0.57424  0.51877  1.0000
  C   C725      1.0  0.73022  0.59070  0.52139  1.0000
  C   C726      1.0  0.74688  0.57772  0.53686  1.0000
  C   C727      1.0  0.76073  0.60291  0.43512  1.0000
  H   H728      1.0  0.79083  0.57996  0.47149  1.0000
  H   H729      1.0  0.72159  0.60831  0.47597  1.0000
  H   H730      1.0  0.78194  0.56379  0.53048  1.0000
  H   H731      1.0  0.71211  0.59258  0.53511  1.0000
  H   H732      1.0  0.74221  0.56989  0.56278  1.0000
  H   H733      1.0  0.73998  0.57907  0.42671  1.0000
  Fe  Fe119     1.0  0.58503  0.53257  0.32928  1.0000
  Fe  Fe120     1.0  0.69504  0.48913  0.48421  1.0000
  H   H734      1.0  0.58116  0.89002  0.32142  1.0000
  C   C728      1.0  0.95578  0.81976  0.36126  1.0000
  Fe  Fe121     1.0  0.76105  0.49296  0.48948  1.0000
  H   H735      1.0  0.84879  0.52559  0.31536  1.0000
  C   C729      1.0  0.59936  0.48910  0.43561  1.0000
  H   H736      1.0  0.57398  0.48418  0.43549  1.0000
  S   S243      1.0  0.86970  0.71638  0.92459  1.0000
  S   S244      1.0  0.93757  0.82220  0.91331  1.0000
  S   S245      1.0  0.53061  0.62315  0.65977  1.0000
  Fe  Fe122     1.0  0.59196  0.60513  0.90132  1.0000
  S   S246      1.0  0.56930  0.55500  0.88166  1.0000
  S   S247      1.0  0.64654  0.64671  0.91069  1.0000
  Fe  Fe123     1.0  0.52770  0.60474  0.89486  1.0000
  S   S248      1.0  0.97136  0.97268  0.92610  1.0000
  C   C730      1.0  0.96097  0.93097  0.92026  1.0000
  Fe  Fe124     1.0  0.52055  0.53486  0.91252  1.0000
  C   C731      1.0  0.64684  0.58668  0.80010  1.0000
  Fe  Fe125     1.0  0.55026  0.57689  0.84475  1.0000
  S   S249      1.0  0.55708  0.56873  0.79377  1.0000
  S   S250      1.0  0.54444  0.58382  0.93500  1.0000
  S   S251      1.0  0.57639  0.62825  0.86201  1.0000
  C   C732      1.0  0.53932  0.60878  0.69658  1.0000
  C   C733      1.0  0.55258  0.58896  0.69830  1.0000
  C   C734      1.0  0.55783  0.57698  0.72824  1.0000
  C   C735      1.0  0.55000  0.58471  0.75678  1.0000
  C   C736      1.0  0.53703  0.60478  0.75504  1.0000
  C   C737      1.0  0.53162  0.61660  0.72511  1.0000
  H   H737      1.0  0.55859  0.58267  0.67659  1.0000
  H   H738      1.0  0.56784  0.56144  0.72928  1.0000
  Fe  Fe126     1.0  0.83075  0.69806  0.96753  1.0000
  H   H739      1.0  0.65705  0.66121  0.83892  1.0000
  C   C738      1.0  0.94483  0.86343  0.91571  1.0000
  C   C739      1.0  0.92510  0.86672  0.93780  1.0000
  C   C740      1.0  0.93306  0.90025  0.93992  1.0000
  H   H740      1.0  0.71574  0.70512  0.91121  1.0000
  C   C741      1.0  0.65467  0.64072  0.82751  1.0000
  C   C742      1.0  0.50394  0.94326  0.92306  1.0000
  H   H741      1.0  0.62735  0.60308  0.76274  1.0000
  H   H742      1.0  0.64276  0.56505  0.78949  1.0000
  H   H743      1.0  0.57578  0.68478  0.93034  1.0000
  C   C743      1.0  0.93949  0.65526  0.93506  1.0000
  N   N64       1.0  0.64246  0.63516  0.79863  1.0000
  H   H744      1.0  0.70400  0.59912  0.96726  1.0000
  C   C744      1.0  0.96121  0.62159  0.92132  1.0000
  C   C745      1.0  0.93385  0.62390  0.92847  1.0000
  Fe  Fe127     1.0  0.90166  0.76701  0.94421  1.0000
  C   C746      1.0  0.97303  0.68421  0.93492  1.0000
  C   C747      1.0  0.68140  0.64882  0.92655  1.0000
  C   C748      1.0  0.67847  0.61904  0.94239  1.0000
  C   C749      1.0  0.73840  0.65540  0.95182  1.0000
  H   H745      1.0  0.53083  0.61092  0.77674  1.0000
  H   H746      1.0  0.95631  0.59739  0.91598  1.0000
  H   H747      1.0  0.52771  0.96747  0.91181  1.0000
  H   H748      1.0  0.51008  0.97003  0.80497  1.0000
  S   S252      1.0  0.90363  0.65611  0.94424  1.0000
  C   C750      1.0  0.70670  0.62239  0.95506  1.0000
  H   H749      1.0  0.64790  0.68385  0.78782  1.0000
  H   H750      1.0  0.51747  0.90980  0.90895  1.0000
  H   H751      1.0  0.52126  0.63184  0.72409  1.0000
  H   H752      1.0  0.90806  0.60128  0.92855  1.0000
  H   H753      1.0  0.63332  0.65784  0.75681  1.0000
  H   H754      1.0  0.76539  0.71070  0.93308  1.0000
  S   S253      1.0  0.51589  0.64564  0.89683  1.0000
  C   C751      1.0  0.48833  0.68165  0.90804  1.0000
  C   C752      1.0  0.74136  0.68510  0.93571  1.0000
  H   H755      1.0  0.50969  0.70314  0.89111  1.0000
  H   H756      1.0  0.60484  0.64452  0.79267  1.0000
  S   S254      1.0  0.92817  0.74756  0.97260  1.0000
  C   C753      1.0  0.95942  0.52152  0.77740  1.0000
  C   C754      1.0  0.66385  0.61975  0.84307  1.0000
  H   H757      1.0  0.66622  0.57568  0.84150  1.0000
  C   C755      1.0  0.71302  0.68181  0.92337  1.0000
  C   C756      1.0  0.59998  0.66640  0.96003  1.0000
  Fe  Fe128     1.0  0.89361  0.69603  0.95646  1.0000
  C   C757      1.0  0.65977  0.59250  0.82930  1.0000
  S   S255      1.0  0.50037  0.55439  0.87467  1.0000
  H   H758      1.0  0.94357  0.53094  0.77833  1.0000
  H   H759      1.0  0.67359  0.62428  0.86593  1.0000
  C   C758      1.0  0.63838  0.60846  0.78495  1.0000
  C   C759      1.0  0.63173  0.65650  0.78324  1.0000
  H   H760      1.0  0.65445  0.59345  0.94508  1.0000
  C   C760      1.0  0.57335  0.66889  0.95269  1.0000
  H   H761      1.0  0.62315  0.68080  0.94314  1.0000
  H   H762      1.0  0.90372  0.84347  0.95327  1.0000
  S   S256      1.0  0.77258  0.65788  0.96973  1.0000
  H   H763      1.0  0.91772  0.90245  0.95722  1.0000
  C   C761      1.0  0.49802  0.91047  0.92146  1.0000
  C   C762      1.0  0.97221  0.89407  0.89547  1.0000
  H   H764      1.0  0.97789  0.70849  0.94000  1.0000
  C   C763      1.0  0.48458  0.64944  0.91529  1.0000
  H   H765      1.0  0.95764  0.51160  0.82857  1.0000
  C   C764      1.0  0.96766  0.51074  0.80571  1.0000
  H   H766      1.0  0.52207  0.65098  0.96807  1.0000
  C   C765      1.0  0.54311  0.64977  0.97383  1.0000
  C   C766      1.0  0.49344  0.97039  0.82247  1.0000
  H   H767      1.0  0.49894  0.91802  0.85149  1.0000
  H   H768      1.0  0.96715  0.53017  0.72562  1.0000
  C   C767      1.0  0.98036  0.92764  0.89779  1.0000
  C   C768      1.0  0.97248  0.52091  0.74784  1.0000
