data_image0
_chemical_formula_structural       SCHCSC2H2SFeS2FeS2FeCFeS2H2C6SH3CHCH2CH3C6H7CSCNCFeC3HCH2CH2C2H2C2HSH2CNC3HC2H3CFeCSFeHCHCNS2NH5SFeS2FeS2FeSFeS3FeS2FeSFeSFeS3H2CNS2CSFe2S2H4SC3SCNFeHC7H4C6H4C6H4C4H4C6H4CHSCHNC5H5C2HSNHCFe2NH2NCHCH4CSH3C2H2NC2HC2H2CHCHCH3SNHCHC2HC3HFeC2H2CH3C2H3CH2CH2SCH3C3H2CHCH3C3H2CHCFeCH3FeS2FeS2FeSFeS3C2SFeC3SFeS2HSHFeSFeS3FeS2FeS2FeSFeHS2HSHCSH2FeS2FeS2FeSFeS3NCHCH3C4HNH2C4FeH3CH2CHC8HSH2C6H4C6H4NCH2C7H2C7H4C6H4C6H4C6H2CNC5H4CNC6H9CHFeHNHCH3SCH2CH3C2H3CH3NCFeCFeC2NHC2HC2HC2SH2C2H2NSH2CH2C2H2CH3C2H2CHC2H2CSFeH2SCH3CH2CH5SHC2H4C2H2C3SFeSN2H2SFeS2FeSFeS3FeS2FeS2FeSFeS3FeHSFeS2NFeCS2CH2C6H3C7H4C6H4FeH4C6H4C6H4CHC2SNHNH2FeC4H4SCHNC6H7C2H3CHCH2CHCHCS2CH2C2HC2H2CSNHC2FeC2HCH4C3H6CNCNC6HC2FeH3CH2CH5S2HCHFeH2C2H4CH4C3HCH2C2HC5H2SFeS2FeS2FeSFeS3H2NS2Fe2SFeS2HCS2FeSHFeS2FeSFeS3CHCH2C6H5C4H6CH5CHC7H4C6H4C6H4C2H2C2HN2HNCHSHC2SHC2H4CHCH2C2SC4H3CH2CH2CSCHSHFeH2NC5H4CH2C2H2C3HCHC2HC2NH4C2FeC2FeC4H2FeCSFeSFeS2CFeCSFeS2FeSNS2FeS2FeSFeSFeS3H2SHS2C2HCH2C4H3C6H4C6H4C6H4C7H2CHC3H2C2SHNHCHNHC3HCHCH2C2H4CHCH2CH2C2H2NHC2HCSHC2HCH2SFeCHCHCH2CH3NC3H4SCHCH3C2SCHC2SFeS2FeC2FeHS2HSFeS2FeSFeS3NSFeSHFeSFeS4CSH2C6H4C6H4C6H3SCSH2C6H4C6H3CSHC2H2C3H2C2NC3NCH2CH3CH2CH2CHCHCHCH7C2HCH2CHCHCNH3C2FeH3C2NH2C3H4CH2C2HCNH6C3HCFeSHC2H2FeCH2NH2FeS2FeSHFeSFeS4CSCHSHCFeHSCHSCFeS2FeS2FeSFeS3C4SC6H4C2H2CHCHC2N2H2C6H4C6H4C6H4CH2C3HCN2HCHCNC2HC2HCHCH4SH2SFeCH3CHCFeH3CHFeHC3NCH4CNHC2H6CHC2H3CHCHCH2CSH2FeH4CSHC2HCH2NCH2C2S2HSHFeSCH2SFeS2FeSFeS3FeS2FeS2FeSFeS3HSFeS2FeCFeSCSC3H2C2HC2HC3SH2C6H4C6H5C6H4C6H5CHC7H4C3H3NH6NHFe2HC2H2C2HN2H3CHNC6H7SHCH3FeHCNH2NH4CH2C6HC2HCSC2HCHCH2C2HC2HC3H3C4HC2H3NHSHFeHCFeS2FeS2FeSFeS3HCSFeHFeS2FeSFeHS2FeCFeS2FeSCSFe2CSH2S2FeS2FeS2FeSFeS3CS3C2H3CH2CH2C6H4C6H4C7HCHCHCHNHC2H4C7H4C6H4C6H4C6H6CHCSH2NC6H3CH4NC5FeH4CHC2NC3HSCSC3HCH2NHCHCHC2H2CSH3C2HCNCH4SNH2CHCH2CHFeCH4CHNC2H2CHC2HCH3CHC2H2CH5CHCFeH2FeS2FeSCS2HSC2FeH2NH2SCFeS2FeS2FeSFeS3FeSFeS2FeSFeS5FeSH2C6H4C6H4CSHCHCHC4H3C6H5NC2H2C2FeHC3H2C6H4C4SH3CNC6H8C2SNCHSH2C3NC5H2CH2SCFeH2CH2SHNC6H8NC6H7CH2C2HCH4SFeH2C2H2C4SC3SFeSHFeSFeSCH3C4H2FeHCH3C7H4SCHNHSHC3H2CSH2S2HC2H5CH2C3HCNC2HCHC2NH3C3H2CH2C4HCS2HCH2C2H2NHC3H6CSC2FeS2FeS2FeSFeS3HSCFeS2FeHCFeSFeCS3HCSFeS2FeHFeSCSNSCFeHSFeS2FeS2FeSFeS3C7H3C7H4C6H5C2HCSHCHC3NH2CHCHC8H4C6H4C6H4C6H4NC6H3C4HNC6H4NH4NH2C4H2CHSHN2C3H9SH5SCHNC3H2C3H6CHCHFeC2HCHCH2NHC2HC3H3SC2SHFeHC2HCH2SCHFeH3SH2CH2C2H2C6H2CH7CHCHFeCSFeH2FeSCFeSC2SFeSFeSCSFeS2FeS2FeSFeS3C2FeS2FeSFeS4CSCHSCHCHSC3H3C6H4C6H4C6H4C3H3C6H4CH2C4H3FeH2C3HCNH3C4H4SH2NH2SH3CHCHCH3CHC3HNC6H8C2HCH2CFeHC2SHNSC2HFeCHCHSHSH2C3H2CHNCSH2CH4NCFeH4FeS2CSFeSFeS2HC2NCS2CHC2HFeNC2H3CNC6H2C6H4CH2CH5SCH3CHCH4CH4CHC5NCH3C4H2C2HSH2C3HSCH2CHSHFeHSFeS2FeSHS2FeS2FeSHFeSFeS3FeSFeS2FeSFeS4HCH3S2CHC2H3SHC6H2NHC6H4C6H4C6H4C6H4NHC3HFeCNC6H8CNCH5CH2CH2FeCH3C2SHSNC6H5CHFeHC7NHCSC3H6CHC3HC2H4FeS2FeS2FeSFeS2HSFeHC3HFeS2CNSHFeS2FeS2FeSFeS3H2CH4CHC7H4C2NCH2NH2SC6H4C6H4C6H4CHC2HCSNC4NHC5H2CH3FeHC2H2C2H2CHNC4H7SHCH2CHSFeCHCH2CSH2CH3C2HFeC5SHCHCH2C4H3NH2NH2C3H2SHC2HFeSFeS2FeSHSC2Fe2SNHCHSFeHSFeSHFeHS2FeS2FeS2FeSFeS3HC6H3SC6H7SHSHCNC4H2CSHC6SH3C6H4C6H6CHC2SCHCSCH3NCH4FeC2H2CHCHCHFeC3HSC2H2NC6H8NC5H2SCNCHCHC5NH2CH2C2HCHCHCH2CH2C3H2CH2SNCSH3C2H4FeH4C2HNSFeS2FeSFeSFeSFeHSCFeSFeS2FeS2FeSFeS5FeSHFeSFeS3CSCSHC3H2NC7H4C2SH3C8H3C7H2C8H4C7H5C5H2C2H3CFeH2CHC2H2CH2CHSH2C2HSHNCH4C3H2CH2CH3CHC2SC2HCFeH3NC6H8C2NCHFeCHSNHCH2CHCH9NHCH2SHC2H3C3H2C2H2SH3CHFeSCFeS2FeSFeS4HC2SHCSFeCFeS2FeS2FeS2FeSFeS3C3SCSH6SC6H4C6H4NC2H3C6H4C7H2CHC6H6SHFeH3C3H3CSC2H2NC6H4CH3CH2CHNC6H9CFeHCHCSHNCNHFeC2HCH2C2FeSC4SH2S2FeHSFeS2NFeS3CSFeSFeSFeSNFeS2FeSFeSFeCS2HSCSH6C6H4C6H2C6H4C2HC3SCH3CH2C7H3CHC6H3C2HCHC3H4NCHCHNHFeH2CHC3H3C3HCHSHC2SCH2C2HCHSHCHCH5FeH5NHFeCH10NFe2HFeSNHSFeSFeSCSCSH3FeC6H6C2H2C4H3CHSCHC2HCSH3S2H2C2NC6H2SHSH3CHCHCHFeHCHCS2HCHCS3FeSH2CHFeC2FeSHFeSFeSFeS2FeS2FeSFeS3FeSCFeS2FeSFeS3CFeHCH2CSC6H4C5H3C6H5CH2CH2C6H4C2H2C7H8NHCHCSC2HCSH4NC6H8NC6H4CH2CH2NH3C4SC2HSH2CN2C6H2C2H2CHSHCH2NCH2C2SCH2C2H2CNHCH3CH4CFeS2FeS2FeSFeS3HCHFeS2FeS2FeSFeS3HSHFeSFeS2FeSHSHFeSHFeSC2FeS2FeS2FeSFeS3H4CHC3HC5H3C6H5SC8H4C5H2SC2H3C2H3C6H4C6H4C6H4C6H3NC6H8NC2H2C2FeCHNCHC6HC3NH6CHCNC6H3C3HCH2CH4CHCH3NH4C3HCHCNCHCFeCHCHC3HC2SCHN2C2SC2H2C3HNH6CHC2SCHCH5NH7SC2S
_chemical_formula_sum              "S656 C1968 H1968 Fe328 N164"
_cell_length_a       70.2881
_cell_length_b       70.6438
_cell_length_c       71.0106
_cell_angle_alpha    85.5057
_cell_angle_beta     84.613
_cell_angle_gamma    84.2462

_space_group_name_H-M_alt    "P 1"
_space_group_IT_number       1

loop_
  _space_group_symop_operation_xyz
  'x, y, z'

loop_
  _atom_site_type_symbol
  _atom_site_label
  _atom_site_symmetry_multiplicity
  _atom_site_fract_x
  _atom_site_fract_y
  _atom_site_fract_z
  _atom_site_occupancy
  S   S1        1.0  0.35845  0.22735  0.01508  1.0000
  C   C1        1.0  0.42287  0.10535  0.33017  1.0000
  H   H1        1.0  0.45929  0.17897  0.32748  1.0000
  C   C2        1.0  0.30155  0.02374  0.00523  1.0000
  S   S2        1.0  0.39964  0.02931  0.23377  1.0000
  C   C3        1.0  0.07721  0.01760  0.28929  1.0000
  C   C4        1.0  0.39473  0.14951  0.31144  1.0000
  H   H2        1.0  0.34806  0.25072  0.05266  1.0000
  H   H3        1.0  0.39609  0.23244  0.09180  1.0000
  S   S3        1.0  0.48755  0.22004  0.17072  1.0000
  Fe  Fe1       1.0  0.46072  0.15249  0.26297  1.0000
  S   S4        1.0  0.48756  0.14769  0.27858  1.0000
  S   S5        1.0  0.44998  0.18051  0.24732  1.0000
  Fe  Fe2       1.0  0.44710  0.11316  0.27775  1.0000
  S   S6        1.0  0.47312  0.10585  0.29389  1.0000
  S   S7        1.0  0.42278  0.09366  0.28361  1.0000
  Fe  Fe3       1.0  0.46843  0.13592  0.30330  1.0000
  C   C5        1.0  0.40202  0.13043  0.31436  1.0000
  Fe  Fe4       1.0  0.48976  0.11811  0.26806  1.0000
  S   S8        1.0  0.44160  0.14258  0.28842  1.0000
  S   S9        1.0  0.46385  0.12361  0.25109  1.0000
  H   H4        1.0  0.41364  0.09518  0.32522  1.0000
  H   H5        1.0  0.40509  0.22232  0.17918  1.0000
  C   C6        1.0  0.46151  0.19188  0.22677  1.0000
  C   C7        1.0  0.45362  0.20989  0.21979  1.0000
  C   C8        1.0  0.46161  0.21891  0.20285  1.0000
  C   C9        1.0  0.47763  0.21000  0.19274  1.0000
  C   C10       1.0  0.48568  0.19213  0.19988  1.0000
  C   C11       1.0  0.47768  0.18310  0.21678  1.0000
  S   S10       1.0  0.01319  0.01955  0.01563  1.0000
  H   H6        1.0  0.45526  0.23265  0.19754  1.0000
  H   H7        1.0  0.42392  0.22515  0.14805  1.0000
  H   H8        1.0  0.48388  0.16925  0.22197  1.0000
  C   C12       1.0  0.42303  0.19791  0.18962  1.0000
  H   H9        1.0  0.31707  0.03226  0.31638  1.0000
  C   C13       1.0  0.44987  0.18754  0.16795  1.0000
  H   H10       1.0  0.04006  0.01773  0.32342  1.0000
  H   H11       1.0  0.00612  0.02718  0.26901  1.0000
  C   C14       1.0  0.25894  0.05137  0.01157  1.0000
  H   H12       1.0  0.44176  0.01970  0.24029  1.0000
  H   H13       1.0  0.26366  0.06495  0.00570  1.0000
  H   H14       1.0  0.46290  0.17823  0.16517  1.0000
  C   C15       1.0  0.40606  0.04693  0.24798  1.0000
  C   C16       1.0  0.42030  0.05881  0.24061  1.0000
  C   C17       1.0  0.42585  0.07296  0.25140  1.0000
  C   C18       1.0  0.41706  0.07550  0.26965  1.0000
  C   C19       1.0  0.40292  0.06350  0.27706  1.0000
  C   C20       1.0  0.39752  0.04923  0.26636  1.0000
  H   H15       1.0  0.42696  0.05721  0.22639  1.0000
  H   H16       1.0  0.43667  0.08212  0.24547  1.0000
  H   H17       1.0  0.39598  0.06537  0.29113  1.0000
  H   H18       1.0  0.38650  0.04026  0.27219  1.0000
  H   H19       1.0  0.47069  0.20581  0.13867  1.0000
  H   H20       1.0  0.44987  0.21555  0.12706  1.0000
  H   H21       1.0  0.45582  0.19019  0.12887  1.0000
  C   C21       1.0  0.00312  0.02217  0.28367  1.0000
  S   S11       1.0  0.47896  0.24598  0.12255  1.0000
  C   C22       1.0  0.05449  0.01471  0.31678  1.0000
  N   N1        1.0  0.41399  0.12500  0.32834  1.0000
  C   C23       1.0  0.09117  0.00701  0.29949  1.0000
  Fe  Fe5       1.0  0.37921  0.00648  0.24307  1.0000
  C   C24       1.0  0.01413  0.00596  0.29117  1.0000
  C   C25       1.0  0.30634  0.01877  0.02392  1.0000
  C   C26       1.0  0.39982  0.16304  0.32290  1.0000
  H   H22       1.0  0.39468  0.17796  0.32049  1.0000
  C   C27       1.0  0.24923  0.01567  0.02603  1.0000
  H   H23       1.0  0.39089  0.23063  0.05785  1.0000
  H   H24       1.0  0.41509  0.19670  0.20347  1.0000
  C   C28       1.0  0.40597  0.23847  0.08088  1.0000
  H   H25       1.0  0.04769  0.02968  0.29022  1.0000
  H   H26       1.0  0.44114  0.21681  0.22743  1.0000
  C   C29       1.0  0.40294  0.23749  0.06163  1.0000
  C   C30       1.0  0.41750  0.21231  0.17607  1.0000
  H   H27       1.0  0.38570  0.15381  0.29998  1.0000
  H   H28       1.0  0.27884  0.01266  0.30194  1.0000
  C   C31       1.0  0.05876  0.02158  0.29800  1.0000
  C   C32       1.0  0.25833  0.02680  0.03716  1.0000
  H   H29       1.0  0.27113  0.05317  0.03808  1.0000
  S   S12       1.0  0.41257  0.24461  0.02284  1.0000
  H   H30       1.0  0.49810  0.18514  0.19219  1.0000
  H   H31       1.0  0.31325  0.02871  0.03122  1.0000
  C   C33       1.0  0.42174  0.24705  0.08614  1.0000
  N   N2        1.0  0.44431  0.20163  0.15471  1.0000
  C   C34       1.0  0.43922  0.18534  0.18551  1.0000
  C   C35       1.0  0.45571  0.20338  0.13640  1.0000
  C   C36       1.0  0.26322  0.04478  0.02992  1.0000
  H   H32       1.0  0.41481  0.00591  0.26441  1.0000
  C   C37       1.0  0.44428  0.00417  0.23824  1.0000
  C   C38       1.0  0.42830  0.21390  0.15852  1.0000
  H   H33       1.0  0.39856  0.12012  0.30495  1.0000
  H   H34       1.0  0.08065  0.02255  0.27463  1.0000
  H   H35       1.0  0.44393  0.17444  0.19618  1.0000
  C   C39       1.0  0.31142  0.02520  0.32957  1.0000
  Fe  Fe6       1.0  0.47636  0.24735  0.15433  1.0000
  C   C40       1.0  0.41566  0.24515  0.04738  1.0000
  S   S13       1.0  0.42491  0.24779  0.11063  1.0000
  Fe  Fe7       1.0  0.38814  0.23627  0.00683  1.0000
  H   H36       1.0  0.43681  0.10426  0.32134  1.0000
  C   C41       1.0  0.00826  0.00420  0.06852  1.0000
  H   H37       1.0  0.26232  0.02115  0.05105  1.0000
  C   C42       1.0  0.24513  0.02273  0.00773  1.0000
  N   N3        1.0  0.06808  0.00380  0.32646  1.0000
  S   S14       1.0  0.34896  0.00525  0.23512  1.0000
  S   S15       1.0  0.31592  0.00417  0.28241  1.0000
  N   N4        1.0  0.24982  0.04046  0.00081  1.0000
  H   H38       1.0  0.00859  0.01845  0.06071  1.0000
  H   H39       1.0  0.04258  0.00972  0.05077  1.0000
  H   H40       1.0  0.10556  0.00366  0.29286  1.0000
  H   H41       1.0  0.28632  0.04502  0.33275  1.0000
  H   H42       1.0  0.15472  0.04233  0.64037  1.0000
  S   S16       1.0  0.22626  0.04220  0.39406  1.0000
  Fe  Fe8       1.0  0.25956  0.12557  0.50597  1.0000
  S   S17       1.0  0.23822  0.11605  0.48795  1.0000
  S   S18       1.0  0.25201  0.12311  0.53791  1.0000
  Fe  Fe9       1.0  0.28377  0.14269  0.47149  1.0000
  S   S19       1.0  0.26352  0.13437  0.45131  1.0000
  S   S20       1.0  0.30843  0.15788  0.45533  1.0000
  Fe  Fe10      1.0  0.23973  0.14501  0.47246  1.0000
  S   S21       1.0  0.21181  0.16118  0.46393  1.0000
  Fe  Fe11      1.0  0.26372  0.10631  0.46843  1.0000
  S   S22       1.0  0.26951  0.07675  0.45684  1.0000
  S   S23       1.0  0.25971  0.15525  0.49143  1.0000
  S   S24       1.0  0.28533  0.11385  0.48764  1.0000
  Fe  Fe12      1.0  0.41168  0.19855  0.45800  1.0000
  S   S25       1.0  0.44083  0.18651  0.44560  1.0000
  S   S26       1.0  0.38909  0.18179  0.47564  1.0000
  Fe  Fe13      1.0  0.42091  0.23982  0.44793  1.0000
  S   S27       1.0  0.45046  0.23094  0.43474  1.0000
  Fe  Fe14      1.0  0.43627  0.20856  0.42134  1.0000
  S   S28       1.0  0.44312  0.20620  0.38930  1.0000
  Fe  Fe15      1.0  0.45313  0.20959  0.45995  1.0000
  S   S29       1.0  0.48152  0.20199  0.47394  1.0000
  S   S30       1.0  0.40634  0.21918  0.43292  1.0000
  S   S31       1.0  0.42447  0.21985  0.47397  1.0000
  H   H43       1.0  0.11212  0.11318  0.66368  1.0000
  H   H44       1.0  0.49255  0.21013  0.43404  1.0000
  C   C43       1.0  0.46032  0.15690  0.35011  1.0000
  N   N5        1.0  0.36223  0.23003  0.47570  1.0000
  S   S32       1.0  0.02913  0.21912  0.62832  1.0000
  S   S33       1.0  0.22719  0.02442  0.62342  1.0000
  C   C44       1.0  0.48397  0.22719  0.58686  1.0000
  S   S34       1.0  0.24353  0.05565  0.64901  1.0000
  Fe  Fe16      1.0  0.21824  0.03790  0.65119  1.0000
  Fe  Fe17      1.0  0.25335  0.04051  0.62240  1.0000
  S   S35       1.0  0.26786  0.04846  0.59313  1.0000
  S   S36       1.0  0.27060  0.01711  0.63860  1.0000
  H   H45       1.0  0.47524  0.24057  0.58447  1.0000
  H   H46       1.0  0.20907  0.14179  0.52965  1.0000
  H   H47       1.0  0.18198  0.03848  0.44512  1.0000
  H   H48       1.0  0.30425  0.12538  0.42980  1.0000
  S   S37       1.0  0.11764  0.24848  0.49465  1.0000
  C   C45       1.0  0.16323  0.19479  0.51811  1.0000
  C   C46       1.0  0.48806  0.21474  0.57233  1.0000
  C   C47       1.0  0.30876  0.10984  0.43188  1.0000
  S   S38       1.0  0.17491  0.24018  0.49448  1.0000
  C   C48       1.0  0.48313  0.22620  0.50320  1.0000
  N   N6        1.0  0.28626  0.02266  0.35478  1.0000
  Fe  Fe18      1.0  0.04799  0.24313  0.62659  1.0000
  H   H49       1.0  0.25939  0.00633  0.59680  1.0000
  C   C49       1.0  0.19618  0.03919  0.43697  1.0000
  C   C50       1.0  0.20295  0.18432  0.47065  1.0000
  C   C51       1.0  0.18522  0.19250  0.46473  1.0000
  C   C52       1.0  0.17678  0.21003  0.47123  1.0000
  C   C53       1.0  0.18602  0.21952  0.48379  1.0000
  C   C54       1.0  0.20402  0.21162  0.48926  1.0000
  C   C55       1.0  0.21247  0.19413  0.48272  1.0000
  H   H50       1.0  0.17776  0.18503  0.45536  1.0000
  H   H51       1.0  0.16292  0.21592  0.46693  1.0000
  H   H52       1.0  0.21129  0.21890  0.49892  1.0000
  H   H53       1.0  0.22615  0.18808  0.48732  1.0000
  C   C56       1.0  0.26241  0.06904  0.57783  1.0000
  C   C57       1.0  0.25066  0.08490  0.58406  1.0000
  C   C58       1.0  0.24751  0.10128  0.57163  1.0000
  C   C59       1.0  0.25580  0.10188  0.55279  1.0000
  C   C60       1.0  0.26723  0.08587  0.54645  1.0000
  C   C61       1.0  0.27063  0.06962  0.55896  1.0000
  H   H54       1.0  0.24432  0.08471  0.59855  1.0000
  H   H55       1.0  0.23871  0.11361  0.57669  1.0000
  H   H56       1.0  0.27377  0.08616  0.53204  1.0000
  H   H57       1.0  0.27981  0.05747  0.55403  1.0000
  C   C62       1.0  0.33089  0.16407  0.46138  1.0000
  C   C63       1.0  0.33679  0.16073  0.47971  1.0000
  C   C64       1.0  0.35477  0.16597  0.48370  1.0000
  C   C65       1.0  0.36706  0.17464  0.46948  1.0000
  C   C66       1.0  0.36123  0.17779  0.45111  1.0000
  C   C67       1.0  0.34327  0.17252  0.44711  1.0000
  H   H58       1.0  0.32747  0.15421  0.49082  1.0000
  H   H59       1.0  0.35914  0.16345  0.49797  1.0000
  H   H60       1.0  0.37049  0.18446  0.44003  1.0000
  H   H61       1.0  0.33888  0.17514  0.43286  1.0000
  C   C68       1.0  0.45740  0.15304  0.36989  1.0000
  C   C69       1.0  0.45149  0.16781  0.38207  1.0000
  C   C70       1.0  0.44879  0.18672  0.37463  1.0000
  C   C71       1.0  0.45154  0.19054  0.35485  1.0000
  H   H62       1.0  0.05910  0.18335  0.66354  1.0000
  H   H63       1.0  0.45977  0.13851  0.37584  1.0000
  H   H64       1.0  0.44941  0.16461  0.39724  1.0000
  H   H65       1.0  0.44951  0.20511  0.34890  1.0000
  C   C72       1.0  0.23885  0.05174  0.41114  1.0000
  C   C73       1.0  0.23445  0.07095  0.41521  1.0000
  C   C74       1.0  0.24377  0.07891  0.42904  1.0000
  C   C75       1.0  0.25786  0.06781  0.43872  1.0000
  C   C76       1.0  0.26256  0.04872  0.43434  1.0000
  C   C77       1.0  0.25296  0.04065  0.42081  1.0000
  H   H66       1.0  0.22362  0.07969  0.40774  1.0000
  H   H67       1.0  0.24002  0.09364  0.43220  1.0000
  H   H68       1.0  0.27341  0.03999  0.44175  1.0000
  H   H69       1.0  0.25649  0.02586  0.41790  1.0000
  C   C78       1.0  0.10662  0.08379  0.66357  1.0000
  H   H70       1.0  0.15667  0.07586  0.63648  1.0000
  S   S39       1.0  0.46793  0.13766  0.33555  1.0000
  C   C79       1.0  0.21806  0.01387  0.45105  1.0000
  H   H71       1.0  0.37399  0.24854  0.45331  1.0000
  N   N7        1.0  0.32174  0.10626  0.44704  1.0000
  C   C80       1.0  0.33580  0.11813  0.44794  1.0000
  C   C81       1.0  0.32008  0.09090  0.45988  1.0000
  C   C82       1.0  0.34800  0.11542  0.46259  1.0000
  C   C83       1.0  0.33204  0.08773  0.47473  1.0000
  C   C84       1.0  0.34597  0.10020  0.47615  1.0000
  H   H72       1.0  0.33718  0.13025  0.43768  1.0000
  H   H73       1.0  0.30910  0.08131  0.45905  1.0000
  H   H74       1.0  0.35863  0.12536  0.46363  1.0000
  H   H75       1.0  0.33023  0.07591  0.48524  1.0000
  H   H76       1.0  0.35509  0.09816  0.48780  1.0000
  C   C85       1.0  0.23331  0.03978  0.47140  1.0000
  C   C86       1.0  0.06457  0.23560  0.42831  1.0000
  H   H77       1.0  0.49575  0.17610  0.44505  1.0000
  S   S40       1.0  0.04649  0.24459  0.65841  1.0000
  N   N8        1.0  0.49974  0.19821  0.57492  1.0000
  H   H78       1.0  0.10596  0.23707  0.57768  1.0000
  C   C87       1.0  0.18087  0.16535  0.50897  1.0000
  Fe  Fe19      1.0  0.02550  0.22225  0.65963  1.0000
  Fe  Fe20      1.0  0.22628  0.01044  0.39023  1.0000
  N   N9        1.0  0.21157  0.03279  0.44924  1.0000
  H   H79       1.0  0.34822  0.21036  0.49528  1.0000
  H   H80       1.0  0.38429  0.21961  0.49322  1.0000
  N   N10       1.0  0.13163  0.06300  0.64841  1.0000
  C   C88       1.0  0.34847  0.21789  0.48135  1.0000
  H   H81       1.0  0.25593  0.02342  0.35730  1.0000
  C   C89       1.0  0.41191  0.15735  0.33720  1.0000
  H   H82       1.0  0.47392  0.22885  0.39428  1.0000
  H   H83       1.0  0.49311  0.16128  0.38777  1.0000
  H   H84       1.0  0.01104  0.18343  0.64537  1.0000
  H   H85       1.0  0.20533  0.18668  0.53842  1.0000
  C   C90       1.0  0.17787  0.19765  0.52926  1.0000
  S   S41       1.0  0.18917  0.05441  0.65894  1.0000
  H   H86       1.0  0.17715  0.21065  0.53659  1.0000
  H   H87       1.0  0.15122  0.20560  0.51670  1.0000
  H   H88       1.0  0.22468  0.16067  0.52533  1.0000
  C   C91       1.0  0.45713  0.17574  0.34264  1.0000
  C   C92       1.0  0.07208  0.24928  0.43821  1.0000
  H   H89       1.0  0.32423  0.20462  0.47349  1.0000
  H   H90       1.0  0.49907  0.22805  0.38595  1.0000
  N   N11       1.0  0.19530  0.16841  0.51972  1.0000
  C   C93       1.0  0.29395  0.03221  0.33879  1.0000
  C   C94       1.0  0.16465  0.17848  0.50798  1.0000
  H   H91       1.0  0.19694  0.03025  0.42468  1.0000
  C   C95       1.0  0.48878  0.22506  0.39843  1.0000
  C   C96       1.0  0.49490  0.16634  0.41711  1.0000
  H   H92       1.0  0.41627  0.16778  0.34600  1.0000
  H   H93       1.0  0.38654  0.24337  0.48268  1.0000
  C   C97       1.0  0.21878  0.04566  0.45945  1.0000
  H   H94       1.0  0.36850  0.23952  0.50186  1.0000
  C   C98       1.0  0.34988  0.23572  0.44512  1.0000
  H   H95       1.0  0.26629  0.02584  0.37920  1.0000
  C   C99       1.0  0.36303  0.23897  0.45786  1.0000
  H   H96       1.0  0.48929  0.19556  0.37739  1.0000
  H   H97       1.0  0.48250  0.21877  0.55870  1.0000
  H   H98       1.0  0.21372  0.06068  0.45798  1.0000
  S   S42       1.0  0.09508  0.24386  0.44688  1.0000
  N   N12       1.0  0.49118  0.20483  0.40497  1.0000
  H   H99       1.0  0.49123  0.23447  0.40963  1.0000
  C   C100      1.0  0.11761  0.09916  0.65921  1.0000
  H   H100      1.0  0.07242  0.22171  0.42705  1.0000
  C   C101      1.0  0.33573  0.22342  0.45081  1.0000
  C   C102      1.0  0.19384  0.18416  0.53002  1.0000
  H   H101      1.0  0.21697  0.15008  0.50573  1.0000
  C   C103      1.0  0.49283  0.19950  0.42375  1.0000
  C   C104      1.0  0.33491  0.21454  0.46908  1.0000
  C   C105      1.0  0.49327  0.17190  0.39799  1.0000
  H   H102      1.0  0.19760  0.05401  0.43082  1.0000
  Fe  Fe21      1.0  0.25857  0.03065  0.66524  1.0000
  C   C106      1.0  0.49190  0.21082  0.49327  1.0000
  C   C107      1.0  0.09570  0.24868  0.57336  1.0000
  H   H103      1.0  0.10542  0.05372  0.66196  1.0000
  H   H104      1.0  0.31601  0.10467  0.41844  1.0000
  C   C108      1.0  0.21228  0.15458  0.52021  1.0000
  H   H105      1.0  0.10550  0.24223  0.39850  1.0000
  H   H106      1.0  0.18229  0.15313  0.50040  1.0000
  H   H107      1.0  0.29540  0.10261  0.43543  1.0000
  C   C109      1.0  0.13875  0.04401  0.64238  1.0000
  C   C110      1.0  0.49173  0.22255  0.60419  1.0000
  H   H108      1.0  0.15368  0.17649  0.49874  1.0000
  H   H109      1.0  0.46951  0.23314  0.49925  1.0000
  H   H110      1.0  0.13294  0.04163  0.62886  1.0000
  C   C111      1.0  0.49210  0.23278  0.51817  1.0000
  H   H111      1.0  0.32557  0.22054  0.44103  1.0000
  H   H112      1.0  0.04165  0.22917  0.41212  1.0000
  C   C112      1.0  0.37607  0.23333  0.48901  1.0000
  H   H113      1.0  0.48893  0.23218  0.61550  1.0000
  H   H114      1.0  0.14447  0.10811  0.64601  1.0000
  S   S43       1.0  0.07631  0.24119  0.60824  1.0000
  C   C113      1.0  0.14243  0.07806  0.64382  1.0000
  H   H115      1.0  0.35079  0.24260  0.43090  1.0000
  H   H116      1.0  0.26498  0.04548  0.36188  1.0000
  H   H117      1.0  0.42874  0.13393  0.35051  1.0000
  C   C114      1.0  0.04713  0.23979  0.41981  1.0000
  C   C115      1.0  0.13566  0.09632  0.64927  1.0000
  C   C116      1.0  0.26748  0.02968  0.36368  1.0000
  H   H118      1.0  0.23948  0.05018  0.47891  1.0000
  H   H119      1.0  0.25185  0.01589  0.48189  1.0000
  C   C117      1.0  0.11388  0.06569  0.65807  1.0000
  H   H120      1.0  0.06498  0.00768  0.35592  1.0000
  C   C118      1.0  0.49126  0.19133  0.39216  1.0000
  H   H121      1.0  0.42554  0.10088  0.34511  1.0000
  H   H122      1.0  0.26200  0.01421  0.57211  1.0000
  H   H123      1.0  0.49613  0.15134  0.42189  1.0000
  C   C119      1.0  0.23263  0.00750  0.46280  1.0000
  C   C120      1.0  0.41892  0.13816  0.33971  1.0000
  C   C121      1.0  0.49469  0.18020  0.43009  1.0000
  H   H124      1.0  0.49438  0.18824  0.54836  1.0000
  H   H125      1.0  0.13451  0.03276  0.65339  1.0000
  C   C122      1.0  0.29532  0.00584  0.36169  1.0000
  H   H126      1.0  0.48520  0.24480  0.52556  1.0000
  C   C123      1.0  0.24034  0.02058  0.47296  1.0000
  Fe  Fe22      1.0  0.00471  0.24211  0.62613  1.0000
  C   C124      1.0  0.32089  0.00823  0.33670  1.0000
  H   H127      1.0  0.21211  0.00355  0.44330  1.0000
  H   H128      1.0  0.00421  0.25320  0.55724  1.0000
  H   H129      1.0  0.24057  0.00360  0.58230  1.0000
  Fe  Fe23      1.0  0.13867  0.11713  0.90238  1.0000
  S   S44       1.0  0.11403  0.12372  0.92415  1.0000
  S   S45       1.0  0.16925  0.12475  0.90379  1.0000
  Fe  Fe24      1.0  0.11222  0.10572  0.87352  1.0000
  S   S46       1.0  0.08542  0.11132  0.89323  1.0000
  S   S47       1.0  0.11823  0.09632  0.84317  1.0000
  Fe  Fe25      1.0  0.09834  0.13784  0.90000  1.0000
  S   S48       1.0  0.08047  0.16658  0.90020  1.0000
  Fe  Fe26      1.0  0.10293  0.09676  0.91616  1.0000
  S   S49       1.0  0.09410  0.07559  0.94052  1.0000
  S   S50       1.0  0.12364  0.13331  0.87864  1.0000
  S   S51       1.0  0.12896  0.08919  0.89610  1.0000
  C   C125      1.0  0.42169  0.24846  0.93289  1.0000
  C   C126      1.0  0.06031  0.12740  0.93853  1.0000
  S   S52       1.0  0.35276  0.22808  0.96917  1.0000
  Fe  Fe27      1.0  0.36381  0.20695  0.99171  1.0000
  C   C127      1.0  0.32240  0.08465  0.71274  1.0000
  C   C128      1.0  0.08923  0.12657  0.77374  1.0000
  C   C129      1.0  0.03795  0.12652  0.76360  1.0000
  S   S53       1.0  0.39449  0.21385  0.98568  1.0000
  Fe  Fe28      1.0  0.35867  0.04605  0.79053  1.0000
  S   S54       1.0  0.37042  0.06327  0.76459  1.0000
  S   S55       1.0  0.33384  0.05808  0.81048  1.0000
  H   H130      1.0  0.31781  0.02178  0.85573  1.0000
  S   S56       1.0  0.39522  0.02379  0.75221  1.0000
  H   H131      1.0  0.17049  0.08680  0.92386  1.0000
  Fe  Fe29      1.0  0.39921  0.04766  0.77023  1.0000
  S   S57       1.0  0.43032  0.05477  0.76880  1.0000
  Fe  Fe30      1.0  0.36545  0.03797  0.74872  1.0000
  S   S58       1.0  0.35443  0.04184  0.71922  1.0000
  S   S59       1.0  0.38766  0.03242  0.79737  1.0000
  S   S60       1.0  0.35220  0.02167  0.77419  1.0000
  Fe  Fe31      1.0  0.26872  0.07594  0.93894  1.0000
  S   S61       1.0  0.29049  0.05009  0.94026  1.0000
  S   S62       1.0  0.23781  0.06951  0.93657  1.0000
  Fe  Fe32      1.0  0.29818  0.10305  0.94684  1.0000
  S   S63       1.0  0.32159  0.07915  0.94894  1.0000
  S   S64       1.0  0.30253  0.13471  0.94733  1.0000
  Fe  Fe33      1.0  0.31074  0.06889  0.92293  1.0000
  S   S65       1.0  0.33414  0.05844  0.90039  1.0000
  Fe  Fe34      1.0  0.29950  0.06221  0.96599  1.0000
  H   H132      1.0  0.28901  0.01422  0.98158  1.0000
  S   S66       1.0  0.28841  0.09379  0.91975  1.0000
  S   S67       1.0  0.27670  0.08706  0.96572  1.0000
  H   H133      1.0  0.17683  0.01708  0.67327  1.0000
  S   S68       1.0  0.46551  0.13513  0.75504  1.0000
  H   H134      1.0  0.19760  0.06565  0.93631  1.0000
  C   C130      1.0  0.31719  0.07156  0.76495  1.0000
  S   S69       1.0  0.27193  0.03015  0.69361  1.0000
  H   H135      1.0  0.28364  0.06860  0.75108  1.0000
  H   H136      1.0  0.15604  0.18510  0.92535  1.0000
  Fe  Fe35      1.0  0.06659  0.07292  0.75122  1.0000
  S   S70       1.0  0.09100  0.08083  0.73017  1.0000
  S   S71       1.0  0.06118  0.08088  0.78204  1.0000
  Fe  Fe36      1.0  0.04516  0.05607  0.72141  1.0000
  S   S72       1.0  0.06798  0.06327  0.69818  1.0000
  S   S73       1.0  0.01923  0.04307  0.71170  1.0000
  Fe  Fe37      1.0  0.08936  0.05224  0.71884  1.0000
  S   S74       1.0  0.11392  0.03104  0.70834  1.0000
  Fe  Fe38      1.0  0.06799  0.09150  0.71079  1.0000
  S   S75       1.0  0.07363  0.11814  0.69144  1.0000
  S   S76       1.0  0.06659  0.04317  0.74150  1.0000
  S   S77       1.0  0.04354  0.08546  0.73240  1.0000
  N   N13       1.0  0.48746  0.16397  0.82489  1.0000
  C   C131      1.0  0.30412  0.08231  0.70767  1.0000
  H   H137      1.0  0.30435  0.07347  0.77524  1.0000
  C   C132      1.0  0.06711  0.11624  0.95401  1.0000
  H   H138      1.0  0.03123  0.08045  0.98086  1.0000
  H   H139      1.0  0.09748  0.12518  0.78604  1.0000
  H   H140      1.0  0.01545  0.16240  0.70396  1.0000
  C   C133      1.0  0.46893  0.16616  0.79177  1.0000
  C   C134      1.0  0.13620  0.03756  0.69712  1.0000
  C   C135      1.0  0.14023  0.05661  0.69431  1.0000
  C   C136      1.0  0.15727  0.06140  0.68371  1.0000
  H   H141      1.0  0.02328  0.01268  0.74245  1.0000
  N   N14       1.0  0.47640  0.22710  0.95326  1.0000
  H   H142      1.0  0.13001  0.06770  0.69991  1.0000
  H   H143      1.0  0.03069  0.13232  0.75084  1.0000
  C   C137      1.0  0.05847  0.13968  0.68829  1.0000
  C   C138      1.0  0.04038  0.14255  0.69825  1.0000
  C   C139      1.0  0.02929  0.16023  0.69598  1.0000
  C   C140      1.0  0.03594  0.17510  0.68352  1.0000
  Fe  Fe39      1.0  0.38315  0.23637  0.96460  1.0000
  H   H144      1.0  0.15997  0.07623  0.68116  1.0000
  H   H145      1.0  0.03494  0.13120  0.70771  1.0000
  H   H146      1.0  0.48760  0.24618  0.97032  1.0000
  C   C141      1.0  0.49690  0.16254  0.84258  1.0000
  H   H147      1.0  0.48471  0.19443  0.82231  1.0000
  H   H148      1.0  0.34087  0.08230  0.73537  1.0000
  C   C142      1.0  0.01161  0.00998  0.73443  1.0000
  H   H149      1.0  0.33250  0.19002  0.96493  1.0000
  C   C143      1.0  0.12713  0.21692  0.90104  1.0000
  C   C144      1.0  0.17046  0.04726  0.67577  1.0000
  C   C145      1.0  0.33177  0.03736  0.71222  1.0000
  C   C146      1.0  0.32827  0.04048  0.69297  1.0000
  C   C147      1.0  0.31011  0.03825  0.68691  1.0000
  C   C148      1.0  0.29523  0.03291  0.70012  1.0000
  C   C149      1.0  0.29883  0.02949  0.71932  1.0000
  C   C150      1.0  0.31700  0.03163  0.72535  1.0000
  H   H150      1.0  0.33961  0.04493  0.68269  1.0000
  S   S78       1.0  0.35713  0.17570  0.99516  1.0000
  H   H151      1.0  0.09463  0.12886  0.72552  1.0000
  H   H152      1.0  0.35197  0.16854  0.92027  1.0000
  C   C151      1.0  0.43968  0.07733  0.76492  1.0000
  C   C152      1.0  0.42788  0.09432  0.76234  1.0000
  C   C153      1.0  0.43602  0.11188  0.75930  1.0000
  C   C154      1.0  0.45599  0.11265  0.75878  1.0000
  C   C155      1.0  0.46779  0.09567  0.76140  1.0000
  C   C156      1.0  0.45965  0.07811  0.76446  1.0000
  H   H153      1.0  0.41251  0.09393  0.76266  1.0000
  H   H154      1.0  0.42678  0.12494  0.75728  1.0000
  H   H155      1.0  0.48316  0.09607  0.76102  1.0000
  H   H156      1.0  0.46888  0.06505  0.76645  1.0000
  C   C157      1.0  0.33450  0.05945  0.83531  1.0000
  C   C158      1.0  0.35133  0.05445  0.84432  1.0000
  C   C159      1.0  0.35103  0.05481  0.86417  1.0000
  C   C160      1.0  0.33395  0.06010  0.87529  1.0000
  C   C161      1.0  0.31716  0.06529  0.86626  1.0000
  C   C162      1.0  0.31747  0.06500  0.84637  1.0000
  H   H157      1.0  0.36455  0.05021  0.83601  1.0000
  H   H158      1.0  0.36412  0.05082  0.87100  1.0000
  H   H159      1.0  0.30390  0.06935  0.87461  1.0000
  H   H160      1.0  0.30437  0.06893  0.83956  1.0000
  N   N15       1.0  0.05876  0.12759  0.76072  1.0000
  C   C163      1.0  0.00630  0.02290  0.71944  1.0000
  H   H161      1.0  0.06222  0.12514  0.79036  1.0000
  H   H162      1.0  0.14691  0.00853  0.69218  1.0000
  C   C164      1.0  0.16688  0.02813  0.67935  1.0000
  C   C165      1.0  0.34025  0.16514  0.98306  1.0000
  C   C166      1.0  0.33057  0.17512  0.96845  1.0000
  C   C167      1.0  0.31860  0.16570  0.95812  1.0000
  C   C168      1.0  0.31635  0.14617  0.96205  1.0000
  C   C169      1.0  0.32566  0.13629  0.97695  1.0000
  C   C170      1.0  0.33740  0.14579  0.98748  1.0000
  H   H163      1.0  0.32768  0.08107  0.76884  1.0000
  H   H164      1.0  0.32389  0.12133  0.98030  1.0000
  C   C171      1.0  0.02945  0.11512  0.94590  1.0000
  C   C172      1.0  0.07194  0.06538  0.94511  1.0000
  C   C173      1.0  0.06934  0.05263  0.96117  1.0000
  C   C174      1.0  0.05158  0.04514  0.96618  1.0000
  C   C175      1.0  0.03614  0.05046  0.95523  1.0000
  C   C176      1.0  0.03879  0.06301  0.93901  1.0000
  C   C177      1.0  0.05662  0.07041  0.93392  1.0000
  H   H165      1.0  0.08112  0.04865  0.96990  1.0000
  H   H166      1.0  0.04972  0.03557  0.97875  1.0000
  H   H167      1.0  0.02692  0.06721  0.93046  1.0000
  H   H168      1.0  0.05842  0.08020  0.92153  1.0000
  C   C178      1.0  0.10207  0.09177  0.82653  1.0000
  C   C179      1.0  0.08215  0.09383  0.83064  1.0000
  C   C180      1.0  0.06994  0.09012  0.81695  1.0000
  C   C181      1.0  0.07742  0.08435  0.79899  1.0000
  C   C182      1.0  0.09735  0.08237  0.79483  1.0000
  C   C183      1.0  0.10957  0.08607  0.80853  1.0000
  H   H169      1.0  0.07615  0.09816  0.84441  1.0000
  H   H170      1.0  0.05455  0.09169  0.82034  1.0000
  H   H171      1.0  0.10333  0.07797  0.78109  1.0000
  H   H172      1.0  0.12495  0.08438  0.80519  1.0000
  C   C184      1.0  0.08430  0.18587  0.91357  1.0000
  C   C185      1.0  0.07532  0.20412  0.90889  1.0000
  C   C186      1.0  0.07880  0.22004  0.91843  1.0000
  C   C187      1.0  0.09110  0.21780  0.93300  1.0000
  C   C188      1.0  0.09958  0.19943  0.93810  1.0000
  C   C189      1.0  0.09634  0.18357  0.92835  1.0000
  H   H173      1.0  0.06588  0.20603  0.89756  1.0000
  H   H174      1.0  0.07215  0.23406  0.91437  1.0000
  H   H175      1.0  0.10898  0.19751  0.94945  1.0000
  H   H176      1.0  0.10323  0.16961  0.93221  1.0000
  C   C190      1.0  0.18780  0.10970  0.91421  1.0000
  C   C191      1.0  0.20640  0.11570  0.91293  1.0000
  C   C192      1.0  0.22180  0.10374  0.92001  1.0000
  C   C193      1.0  0.21876  0.08560  0.92843  1.0000
  C   C194      1.0  0.20012  0.07966  0.92983  1.0000
  C   C195      1.0  0.18470  0.09163  0.92280  1.0000
  H   H177      1.0  0.20898  0.12964  0.90631  1.0000
  H   H178      1.0  0.23606  0.10851  0.91882  1.0000
  C   C196      1.0  0.44459  0.22800  0.97969  1.0000
  N   N16       1.0  0.36705  0.13189  0.95051  1.0000
  C   C197      1.0  0.36503  0.14998  0.94206  1.0000
  C   C198      1.0  0.35902  0.11738  0.94340  1.0000
  C   C199      1.0  0.35426  0.15403  0.92639  1.0000
  C   C200      1.0  0.34823  0.12092  0.92771  1.0000
  C   C201      1.0  0.34569  0.13940  0.91930  1.0000
  H   H179      1.0  0.36047  0.10305  0.95015  1.0000
  H   H180      1.0  0.14610  0.16364  0.90292  1.0000
  H   H181      1.0  0.34127  0.10956  0.92250  1.0000
  H   H182      1.0  0.33661  0.14244  0.90769  1.0000
  C   C202      1.0  0.46130  0.21703  0.95075  1.0000
  N   N17       1.0  0.17556  0.09324  0.86340  1.0000
  C   C203      1.0  0.19225  0.09259  0.87200  1.0000
  C   C204      1.0  0.16608  0.07722  0.86352  1.0000
  C   C205      1.0  0.19958  0.07574  0.88153  1.0000
  C   C206      1.0  0.17283  0.06020  0.87318  1.0000
  C   C207      1.0  0.18964  0.05953  0.88232  1.0000
  C   C208      1.0  0.16829  0.11108  0.85346  1.0000
  H   H183      1.0  0.19967  0.10534  0.87208  1.0000
  H   H184      1.0  0.15294  0.07763  0.85651  1.0000
  H   H185      1.0  0.21253  0.07548  0.88883  1.0000
  H   H186      1.0  0.16489  0.04773  0.87376  1.0000
  H   H187      1.0  0.19489  0.04656  0.89018  1.0000
  H   H188      1.0  0.16930  0.12336  0.86210  1.0000
  H   H189      1.0  0.17665  0.11322  0.83954  1.0000
  H   H190      1.0  0.15291  0.11104  0.85099  1.0000
  H   H191      1.0  0.30758  0.04085  0.67209  1.0000
  C   C209      1.0  0.48178  0.18143  0.81639  1.0000
  H   H192      1.0  0.13786  0.21775  0.94238  1.0000
  Fe  Fe40      1.0  0.34885  0.24901  0.99194  1.0000
  H   H193      1.0  0.32358  0.05657  0.76672  1.0000
  N   N18       1.0  0.03623  0.10425  0.96109  1.0000
  H   H194      1.0  0.06037  0.09578  0.97698  1.0000
  C   C210      1.0  0.29004  0.07671  0.72159  1.0000
  H   H195      1.0  0.05955  0.12860  0.73056  1.0000
  H   H196      1.0  0.23429  0.04071  0.97617  1.0000
  H   H197      1.0  0.31949  0.02913  0.74018  1.0000
  S   S79       1.0  0.01284  0.04352  0.96246  1.0000
  C   C211      1.0  0.05479  0.10473  0.96525  1.0000
  H   H198      1.0  0.37111  0.16156  0.94789  1.0000
  H   H199      1.0  0.32547  0.01619  0.82181  1.0000
  C   C212      1.0  0.06503  0.15448  0.67568  1.0000
  H   H200      1.0  0.35135  0.01874  0.88960  1.0000
  H   H201      1.0  0.06971  0.13638  0.92967  1.0000
  H   H202      1.0  0.03490  0.11139  0.76675  1.0000
  C   C213      1.0  0.08767  0.12848  0.73984  1.0000
  C   C214      1.0  0.02322  0.09280  0.97350  1.0000
  H   H203      1.0  0.44281  0.01878  0.74871  1.0000
  H   H204      1.0  0.03161  0.13482  0.77569  1.0000
  H   H205      1.0  0.13998  0.23723  0.92492  1.0000
  C   C215      1.0  0.33562  0.01088  0.83205  1.0000
  H   H206      1.0  0.24278  0.06293  0.97996  1.0000
  H   H207      1.0  0.25954  0.04369  0.97172  1.0000
  H   H208      1.0  0.12097  0.23165  0.90105  1.0000
  N   N19       1.0  0.13960  0.20975  0.91409  1.0000
  C   C216      1.0  0.14648  0.19090  0.91475  1.0000
  Fe  Fe41      1.0  0.00667  0.01968  0.98517  1.0000
  C   C217      1.0  0.14091  0.17868  0.90210  1.0000
  Fe  Fe42      1.0  0.49733  0.13941  0.75332  1.0000
  C   C218      1.0  0.33140  0.01404  0.85127  1.0000
  C   C219      1.0  0.12813  0.18587  0.88881  1.0000
  N   N20       1.0  0.34450  0.00810  0.86410  1.0000
  H   H209      1.0  0.46843  0.19661  0.79271  1.0000
  C   C220      1.0  0.12125  0.20511  0.88819  1.0000
  C   C221      1.0  0.14488  0.22195  0.92818  1.0000
  H   H210      1.0  0.48801  0.15526  0.85415  1.0000
  C   C222      1.0  0.06773  0.12837  0.74277  1.0000
  C   C223      1.0  0.04140  0.12681  0.93436  1.0000
  H   H211      1.0  0.08199  0.11607  0.95702  1.0000
  C   C224      1.0  0.29270  0.01068  0.99596  1.0000
  C   C225      1.0  0.47488  0.14844  0.80047  1.0000
  S   S80       1.0  0.02151  0.19720  0.68160  1.0000
  H   H212      1.0  0.12304  0.17645  0.87943  1.0000
  H   H213      1.0  0.37881  0.14091  0.97469  1.0000
  C   C226      1.0  0.37834  0.12786  0.96696  1.0000
  C   C227      1.0  0.29449  0.07352  0.74045  1.0000
  H   H214      1.0  0.27601  0.07413  0.71763  1.0000
  H   H215      1.0  0.43080  0.23653  0.90612  1.0000
  N   N21       1.0  0.31242  0.07600  0.74532  1.0000
  S   S81       1.0  0.09761  0.23762  0.94408  1.0000
  H   H216      1.0  0.11073  0.21065  0.87842  1.0000
  H   H217      1.0  0.48926  0.13379  0.82349  1.0000
  C   C228      1.0  0.14981  0.02333  0.68996  1.0000
  H   H218      1.0  0.47242  0.13545  0.79422  1.0000
  H   H219      1.0  0.31134  0.17352  0.94673  1.0000
  C   C229      1.0  0.47254  0.18278  0.79966  1.0000
  C   C230      1.0  0.43460  0.24519  0.91686  1.0000
  H   H220      1.0  0.49933  0.17679  0.84702  1.0000
  H   H221      1.0  0.11400  0.12699  0.75342  1.0000
  C   C231      1.0  0.06924  0.12664  0.77611  1.0000
  H   H222      1.0  0.16069  0.22072  0.92878  1.0000
  H   H223      1.0  0.37170  0.11728  0.97732  1.0000
  H   H224      1.0  0.46188  0.16696  0.77872  1.0000
  C   C232      1.0  0.09848  0.12745  0.75546  1.0000
  C   C233      1.0  0.33997  0.01123  0.88427  1.0000
  H   H225      1.0  0.30106  0.08416  0.69290  1.0000
  H   H226      1.0  0.28743  0.02527  0.72964  1.0000
  C   C234      1.0  0.24644  0.04722  0.98126  1.0000
  H   H227      1.0  0.33372  0.08817  0.70195  1.0000
  C   C235      1.0  0.32636  0.08131  0.73173  1.0000
  C   C236      1.0  0.48431  0.14760  0.81704  1.0000
  H   H228      1.0  0.43205  0.22866  0.98981  1.0000
  H   H229      1.0  0.39322  0.12227  0.96232  1.0000
  C   C237      1.0  0.44516  0.21736  0.96387  1.0000
  S   S82       1.0  0.30600  0.04680  0.99464  1.0000
  Fe  Fe43      1.0  0.38235  0.00944  0.77891  1.0000
  H   H230      1.0  0.43290  0.20996  0.96145  1.0000
  H   H231      1.0  0.46144  0.20910  0.93826  1.0000
  S   S83       1.0  0.39983  0.23776  0.93569  1.0000
  C   C238      1.0  0.46000  0.23829  0.98212  1.0000
  H   H232      1.0  0.42872  0.01419  0.78186  1.0000
  H   H233      1.0  0.01476  0.11468  0.94256  1.0000
  H   H234      1.0  0.03612  0.13531  0.92220  1.0000
  C   C239      1.0  0.05379  0.17206  0.67320  1.0000
  H   H235      1.0  0.01297  0.08665  0.96519  1.0000
  H   H236      1.0  0.32630  0.02044  0.88687  1.0000
  C   C240      1.0  0.47591  0.23770  0.96866  1.0000
  H   H237      1.0  0.05732  0.02067  0.70542  1.0000
  H   H238      1.0  0.46242  0.25012  0.90249  1.0000
  H   H239      1.0  0.45934  0.24698  0.99415  1.0000
  H   H240      1.0  0.09263  0.08592  0.67134  1.0000
  H   H241      1.0  0.03749  0.01331  0.68193  1.0000
  S   S84       1.0  0.23278  0.01371  0.66854  1.0000
  H   H242      1.0  0.48872  0.22859  0.92479  1.0000
  C   C241      1.0  0.49327  0.22614  0.93943  1.0000
  C   C242      1.0  0.06115  0.00531  0.70939  1.0000
  H   H243      1.0  0.06228  0.00416  0.72495  1.0000
  H   H244      1.0  0.01505  0.10169  0.98428  1.0000
  H   H245      1.0  0.34458  0.13800  0.99893  1.0000
  H   H246      1.0  0.07895  0.15242  0.66785  1.0000
  C   C243      1.0  0.45248  0.25288  0.91476  1.0000
  C   C244      1.0  0.44596  0.00533  0.75683  1.0000
  H   H247      1.0  0.23866  0.01373  0.99894  1.0000
  H   H248      1.0  0.50165  0.21203  0.94102  1.0000
  C   C245      1.0  0.44143  0.36831  0.24303  1.0000
  C   C246      1.0  0.21058  0.45067  0.05762  1.0000
  C   C247      1.0  0.45528  0.43976  0.27896  1.0000
  S   S85       1.0  0.22734  0.38827  0.04343  1.0000
  Fe  Fe44      1.0  0.45783  0.28883  0.15207  1.0000
  S   S86       1.0  0.44247  0.31141  0.17124  1.0000
  N   N22       1.0  0.45166  0.35293  0.23230  1.0000
  N   N23       1.0  0.18551  0.47915  0.31641  1.0000
  H   H249      1.0  0.44664  0.26133  0.07571  1.0000
  H   H250      1.0  0.47076  0.44200  0.27815  1.0000
  S   S87       1.0  0.45851  0.29016  0.12018  1.0000
  Fe  Fe45      1.0  0.26541  0.46127  0.11010  1.0000
  S   S88       1.0  0.24526  0.48697  0.11712  1.0000
  S   S89       1.0  0.26913  0.45021  0.08046  1.0000
  Fe  Fe46      1.0  0.28485  0.46098  0.14737  1.0000
  S   S90       1.0  0.30747  0.44237  0.16361  1.0000
  Fe  Fe47      1.0  0.24166  0.47300  0.14679  1.0000
  S   S91       1.0  0.21048  0.47565  0.15947  1.0000
  S   S92       1.0  0.26002  0.44620  0.13894  1.0000
  S   S93       1.0  0.29141  0.47415  0.11796  1.0000
  Fe  Fe48      1.0  0.42340  0.42141  0.24439  1.0000
  S   S94       1.0  0.45413  0.42157  0.23241  1.0000
  S   S95       1.0  0.42045  0.40273  0.27193  1.0000
  Fe  Fe49      1.0  0.40865  0.44632  0.21056  1.0000
  S   S96       1.0  0.43878  0.44861  0.19689  1.0000
  S   S97       1.0  0.38485  0.46357  0.19475  1.0000
  Fe  Fe50      1.0  0.44301  0.41691  0.20465  1.0000
  S   S98       1.0  0.45942  0.39647  0.18409  1.0000
  Fe  Fe51      1.0  0.44740  0.45316  0.22589  1.0000
  S   S99       1.0  0.46457  0.47485  0.23820  1.0000
  S   S100      1.0  0.41268  0.41447  0.21686  1.0000
  S   S101      1.0  0.41688  0.45304  0.23920  1.0000
  Fe  Fe52      1.0  0.14465  0.47257  0.25724  1.0000
  H   H251      1.0  0.43915  0.47545  0.27519  1.0000
  S   S102      1.0  0.17581  0.46578  0.24570  1.0000
  Fe  Fe53      1.0  0.10667  0.45526  0.27070  1.0000
  S   S103      1.0  0.09485  0.48112  0.28602  1.0000
  S   S104      1.0  0.09122  0.42819  0.27189  1.0000
  N   N24       1.0  0.21991  0.44896  0.03840  1.0000
  Fe  Fe54      1.0  0.12436  0.48104  0.29618  1.0000
  C   C248      1.0  0.12029  0.42585  0.22841  1.0000
  S   S105      1.0  0.11701  0.47157  0.24390  1.0000
  S   S106      1.0  0.13535  0.45382  0.28294  1.0000
  C   C249      1.0  0.48335  0.48974  0.22993  1.0000
  H   H252      1.0  0.30957  0.44879  0.08572  1.0000
  H   H253      1.0  0.33153  0.43775  0.09468  1.0000
  C   C250      1.0  0.20142  0.47368  0.18369  1.0000
  C   C251      1.0  0.21314  0.46726  0.19819  1.0000
  C   C252      1.0  0.20512  0.46527  0.21714  1.0000
  C   C253      1.0  0.18540  0.46990  0.22183  1.0000
  C   C254      1.0  0.17373  0.47661  0.20737  1.0000
  C   C255      1.0  0.18169  0.47837  0.18841  1.0000
  H   H254      1.0  0.22831  0.46353  0.19479  1.0000
  H   H255      1.0  0.02536  0.39377  0.19302  1.0000
  H   H256      1.0  0.15854  0.48027  0.21077  1.0000
  C   C256      1.0  0.04507  0.32609  0.00594  1.0000
  C   C257      1.0  0.32848  0.44882  0.17288  1.0000
  C   C258      1.0  0.33463  0.46711  0.16950  1.0000
  C   C259      1.0  0.35166  0.47140  0.17666  1.0000
  C   C260      1.0  0.36281  0.45753  0.18729  1.0000
  C   C261      1.0  0.35663  0.43925  0.19073  1.0000
  C   C262      1.0  0.33961  0.43494  0.18353  1.0000
  H   H257      1.0  0.32627  0.47797  0.16137  1.0000
  H   H258      1.0  0.35625  0.48560  0.17391  1.0000
  H   H259      1.0  0.36500  0.42842  0.19888  1.0000
  H   H260      1.0  0.33498  0.42076  0.18632  1.0000
  C   C263      1.0  0.44661  0.33563  0.17300  1.0000
  C   C264      1.0  0.46296  0.34346  0.16418  1.0000
  C   C265      1.0  0.46648  0.36221  0.16745  1.0000
  C   C266      1.0  0.45377  0.37332  0.17963  1.0000
  C   C267      1.0  0.43716  0.36568  0.18807  1.0000
  C   C268      1.0  0.43363  0.34697  0.18474  1.0000
  H   H261      1.0  0.47308  0.33494  0.15511  1.0000
  H   H262      1.0  0.47930  0.36802  0.16074  1.0000
  H   H263      1.0  0.42715  0.37407  0.19732  1.0000
  H   H264      1.0  0.42092  0.34106  0.19161  1.0000
  Fe  Fe55      1.0  0.27070  0.49885  0.12679  1.0000
  H   H265      1.0  0.01982  0.33499  0.18746  1.0000
  H   H266      1.0  0.45150  0.37781  0.24772  1.0000
  H   H267      1.0  0.19835  0.45077  0.31338  1.0000
  H   H268      1.0  0.11778  0.44040  0.20080  1.0000
  C   C269      1.0  0.24027  0.40426  0.05406  1.0000
  C   C270      1.0  0.25465  0.41397  0.04371  1.0000
  C   C271      1.0  0.26359  0.42767  0.05222  1.0000
  C   C272      1.0  0.25820  0.43191  0.07109  1.0000
  C   C273      1.0  0.24428  0.42176  0.08169  1.0000
  C   C274      1.0  0.23539  0.40797  0.07318  1.0000
  H   H269      1.0  0.25864  0.41118  0.02903  1.0000
  H   H270      1.0  0.27449  0.43531  0.04395  1.0000
  H   H271      1.0  0.24010  0.42478  0.09629  1.0000
  H   H272      1.0  0.22434  0.40043  0.08133  1.0000
  C   C275      1.0  0.07028  0.42566  0.26042  1.0000
  C   C276      1.0  0.06383  0.43899  0.24624  1.0000
  C   C277      1.0  0.04779  0.43588  0.23672  1.0000
  C   C278      1.0  0.03784  0.41961  0.24147  1.0000
  C   C279      1.0  0.04413  0.40641  0.25582  1.0000
  C   C280      1.0  0.06036  0.40936  0.26510  1.0000
  H   H273      1.0  0.07132  0.45159  0.24245  1.0000
  H   H274      1.0  0.04309  0.44617  0.22561  1.0000
  H   H275      1.0  0.03664  0.39382  0.25965  1.0000
  H   H276      1.0  0.06524  0.39896  0.27605  1.0000
  C   C281      1.0  0.05927  0.31300  0.01307  1.0000
  H   H277      1.0  0.37122  0.42691  0.15301  1.0000
  C   C282      1.0  0.14696  0.43744  0.20846  1.0000
  C   C283      1.0  0.22146  0.43592  0.00801  1.0000
  S   S107      1.0  0.48845  0.27590  0.15321  1.0000
  N   N25       1.0  0.44463  0.45071  0.29386  1.0000
  H   H278      1.0  0.38575  0.45753  0.15091  1.0000
  N   N26       1.0  0.34993  0.27748  0.03636  1.0000
  H   H279      1.0  0.41575  0.47117  0.16530  1.0000
  H   H280      1.0  0.23992  0.46913  0.04139  1.0000
  Fe  Fe56      1.0  0.44900  0.26046  0.12353  1.0000
  C   C284      1.0  0.39590  0.43494  0.31476  1.0000
  C   C285      1.0  0.40240  0.42905  0.29654  1.0000
  C   C286      1.0  0.41193  0.41088  0.29450  1.0000
  C   C287      1.0  0.41491  0.39873  0.31083  1.0000
  H   H281      1.0  0.15271  0.44467  0.19541  1.0000
  H   H282      1.0  0.38852  0.44901  0.31620  1.0000
  H   H283      1.0  0.39986  0.43850  0.28411  1.0000
  H   H284      1.0  0.42217  0.38460  0.30941  1.0000
  S   S108      1.0  0.26594  0.48675  0.15708  1.0000
  C   C288      1.0  0.03859  0.34077  0.20804  1.0000
  H   H285      1.0  0.39183  0.39638  0.15777  1.0000
  N   N27       1.0  0.30717  0.42168  0.10020  1.0000
  C   C289      1.0  0.30702  0.42153  0.11949  1.0000
  C   C290      1.0  0.29594  0.41031  0.09221  1.0000
  C   C291      1.0  0.29568  0.40953  0.13131  1.0000
  C   C292      1.0  0.28421  0.39833  0.10360  1.0000
  C   C293      1.0  0.28413  0.39795  0.12328  1.0000
  C   C294      1.0  0.31844  0.43501  0.08807  1.0000
  H   H286      1.0  0.31549  0.43093  0.12588  1.0000
  H   H287      1.0  0.29549  0.41095  0.07694  1.0000
  H   H288      1.0  0.29548  0.40966  0.14662  1.0000
  H   H289      1.0  0.27493  0.38976  0.09716  1.0000
  H   H290      1.0  0.27491  0.38894  0.13232  1.0000
  H   H291      1.0  0.20573  0.43677  0.06363  1.0000
  H   H292      1.0  0.32308  0.42933  0.07405  1.0000
  C   C295      1.0  0.48899  0.50246  0.24226  1.0000
  C   C296      1.0  0.42699  0.47972  0.30366  1.0000
  H   H293      1.0  0.17557  0.49552  0.29203  1.0000
  H   H294      1.0  0.17673  0.42484  0.25378  1.0000
  H   H295      1.0  0.17422  0.43291  0.22023  1.0000
  C   C297      1.0  0.24320  0.45881  0.01349  1.0000
  H   H296      1.0  0.16288  0.47510  0.30004  1.0000
  C   C298      1.0  0.44374  0.33603  0.23208  1.0000
  H   H297      1.0  0.32486  0.29502  0.02908  1.0000
  H   H298      1.0  0.17251  0.48341  0.17731  1.0000
  C   C299      1.0  0.04188  0.37402  0.21103  1.0000
  H   H299      1.0  0.12708  0.41265  0.25552  1.0000
  C   C300      1.0  0.23655  0.44676  0.00142  1.0000
  H   H300      1.0  0.17076  0.40076  0.25183  1.0000
  C   C301      1.0  0.13280  0.41956  0.24229  1.0000
  S   S109      1.0  0.01826  0.41595  0.22847  1.0000
  S   S110      1.0  0.12966  0.48938  0.32564  1.0000
  C   C302      1.0  0.38014  0.28775  0.02283  1.0000
  H   H301      1.0  0.41892  0.47144  0.13973  1.0000
  H   H302      1.0  0.04163  0.32585  0.21263  1.0000
  C   C303      1.0  0.45283  0.32152  0.22116  1.0000
  C   C304      1.0  0.43274  0.45311  0.32652  1.0000
  H   H303      1.0  0.34283  0.31801  0.00819  1.0000
  C   C305      1.0  0.47004  0.32443  0.21037  1.0000
  C   C306      1.0  0.46838  0.35604  0.22150  1.0000
  H   H304      1.0  0.44623  0.30836  0.22043  1.0000
  H   H305      1.0  0.47410  0.36982  0.22081  1.0000
  C   C307      1.0  0.43727  0.46906  0.28960  1.0000
  S   S111      1.0  0.13504  0.49992  0.27107  1.0000
  N   N28       1.0  0.02185  0.36488  0.18829  1.0000
  H   H306      1.0  0.45336  0.42430  0.28148  1.0000
  C   C308      1.0  0.02932  0.37881  0.19687  1.0000
  C   C309      1.0  0.44271  0.44278  0.31207  1.0000
  Fe  Fe57      1.0  0.48852  0.27541  0.12148  1.0000
  C   C310      1.0  0.04649  0.35488  0.21666  1.0000
  C   C311      1.0  0.36954  0.27489  0.03436  1.0000
  H   H307      1.0  0.21428  0.46001  0.22820  1.0000
  C   C312      1.0  0.23455  0.45988  0.03201  1.0000
  H   H308      1.0  0.48889  0.47945  0.20205  1.0000
  H   H309      1.0  0.44137  0.25968  0.04175  1.0000
  H   H310      1.0  0.08958  0.30390  0.01139  1.0000
  H   H311      1.0  0.37855  0.31317  0.00394  1.0000
  C   C313      1.0  0.15907  0.43085  0.22261  1.0000
  C   C314      1.0  0.16474  0.41562  0.25408  1.0000
  C   C315      1.0  0.40866  0.40472  0.32906  1.0000
  H   H312      1.0  0.44833  0.42815  0.31541  1.0000
  H   H313      1.0  0.28648  0.28960  0.01132  1.0000
  H   H314      1.0  0.43798  0.46134  0.15373  1.0000
  H   H315      1.0  0.42681  0.39714  0.15997  1.0000
  H   H316      1.0  0.27361  0.32224  0.00055  1.0000
  H   H317      1.0  0.39569  0.28531  0.02099  1.0000
  C   C316      1.0  0.01368  0.28261  0.01944  1.0000
  N   N29       1.0  0.15184  0.42243  0.23942  1.0000
  C   C317      1.0  0.34042  0.29302  0.02751  1.0000
  N   N30       1.0  0.41409  0.44456  0.15401  1.0000
  C   C318      1.0  0.42552  0.42786  0.15666  1.0000
  C   C319      1.0  0.39488  0.44427  0.15247  1.0000
  C   C320      1.0  0.41771  0.41031  0.15782  1.0000
  C   C321      1.0  0.38658  0.42697  0.15370  1.0000
  C   C322      1.0  0.39809  0.40990  0.15647  1.0000
  C   C323      1.0  0.42215  0.46300  0.15309  1.0000
  H   H318      1.0  0.44075  0.42795  0.15815  1.0000
  C   C324      1.0  0.35053  0.30608  0.01571  1.0000
  C   C325      1.0  0.33888  0.26376  0.04821  1.0000
  Fe  Fe58      1.0  0.23212  0.38136  0.01233  1.0000
  H   H319      1.0  0.44995  0.44441  0.26496  1.0000
  H   H320      1.0  0.19799  0.46148  0.05733  1.0000
  H   H321      1.0  0.02082  0.27183  0.02869  1.0000
  C   C326      1.0  0.47790  0.34179  0.21052  1.0000
  H   H322      1.0  0.20189  0.42823  0.03171  1.0000
  H   H323      1.0  0.43326  0.36264  0.25608  1.0000
  C   C327      1.0  0.07842  0.31421  0.00625  1.0000
  H   H324      1.0  0.04757  0.38515  0.21796  1.0000
  H   H325      1.0  0.33199  0.27040  0.06111  1.0000
  H   H326      1.0  0.32760  0.25905  0.04011  1.0000
  H   H327      1.0  0.43011  0.33383  0.24005  1.0000
  H   H328      1.0  0.47676  0.31357  0.20123  1.0000
  S   S112      1.0  0.44587  0.26008  0.15544  1.0000
  S   S113      1.0  0.23810  0.35145  0.00286  1.0000
  H   H329      1.0  0.10509  0.42405  0.23105  1.0000
  C   C328      1.0  0.37053  0.30335  0.01330  1.0000
  H   H330      1.0  0.05579  0.35103  0.22800  1.0000
  Fe  Fe59      1.0  0.10654  0.49760  0.25983  1.0000
  H   H331      1.0  0.42078  0.49409  0.30013  1.0000
  H   H332      1.0  0.15704  0.41613  0.26848  1.0000
  C   C329      1.0  0.12742  0.43501  0.21146  1.0000
  C   C330      1.0  0.17726  0.48052  0.29809  1.0000
  H   H333      1.0  0.37713  0.26267  0.04144  1.0000
  H   H334      1.0  0.43122  0.37704  0.23412  1.0000
  H   H335      1.0  0.25503  0.46717  0.00853  1.0000
  H   H336      1.0  0.00585  0.35792  0.16589  1.0000
  C   C331      1.0  0.49293  0.48911  0.21174  1.0000
  H   H337      1.0  0.22067  0.45491  0.06736  1.0000
  H   H338      1.0  0.49831  0.26096  0.04776  1.0000
  H   H339      1.0  0.05534  0.30175  0.02359  1.0000
  H   H340      1.0  0.18646  0.47213  0.28749  1.0000
  C   C332      1.0  0.02625  0.34605  0.19377  1.0000
  C   C333      1.0  0.00844  0.37033  0.17373  1.0000
  C   C334      1.0  0.21330  0.43712  0.02664  1.0000
  H   H341      1.0  0.49082  0.34451  0.20151  1.0000
  C   C335      1.0  0.43448  0.25467  0.07189  1.0000
  H   H342      1.0  0.01408  0.38135  0.16326  1.0000
  H   H343      1.0  0.03011  0.32512  0.01093  1.0000
  C   C336      1.0  0.19588  0.46268  0.32233  1.0000
  C   C337      1.0  0.39915  0.42290  0.33113  1.0000
  H   H344      1.0  0.14757  0.45000  0.32821  1.0000
  C   C338      1.0  0.42462  0.47159  0.32220  1.0000
  C   C339      1.0  0.02243  0.28716  0.00113  1.0000
  C   C340      1.0  0.18146  0.49376  0.32815  1.0000
  C   C341      1.0  0.29470  0.29777  0.00050  1.0000
  C   C342      1.0  0.43144  0.25370  0.05264  1.0000
  H   H345      1.0  0.48178  0.50315  0.25636  1.0000
  H   H346      1.0  0.41626  0.47944  0.33320  1.0000
  S   S114      1.0  0.32030  0.26595  0.00006  1.0000
  Fe  Fe60      1.0  0.36954  0.40365  0.41892  1.0000
  S   S115      1.0  0.39475  0.38649  0.43149  1.0000
  S   S116      1.0  0.34129  0.40340  0.43767  1.0000
  Fe  Fe61      1.0  0.39350  0.41389  0.38205  1.0000
  S   S117      1.0  0.42022  0.39763  0.39205  1.0000
  S   S118      1.0  0.39238  0.43171  0.35378  1.0000
  Fe  Fe62      1.0  0.40110  0.37469  0.40300  1.0000
  S   S119      1.0  0.41183  0.34401  0.39703  1.0000
  Fe  Fe63      1.0  0.41196  0.41077  0.41994  1.0000
  S   S120      1.0  0.43644  0.41765  0.43679  1.0000
  S   S121      1.0  0.37478  0.39009  0.39100  1.0000
  S   S122      1.0  0.38634  0.42879  0.40935  1.0000
  H   H347      1.0  0.22359  0.49960  0.44469  1.0000
  H   H348      1.0  0.27156  0.46221  0.46215  1.0000
  N   N31       1.0  0.49968  0.48238  0.43719  1.0000
  S   S123      1.0  0.40697  0.26962  0.45371  1.0000
  S   S124      1.0  0.02397  0.26594  0.62238  1.0000
  Fe  Fe64      1.0  0.02095  0.26593  0.65441  1.0000
  Fe  Fe65      1.0  0.11058  0.27833  0.50375  1.0000
  S   S125      1.0  0.09043  0.28839  0.52872  1.0000
  Fe  Fe66      1.0  0.13256  0.29645  0.46847  1.0000
  S   S126      1.0  0.14103  0.26785  0.45647  1.0000
  S   S127      1.0  0.13794  0.32473  0.45157  1.0000
  H   H349      1.0  0.50107  0.45306  0.43121  1.0000
  C   C343      1.0  0.08322  0.26448  0.39224  1.0000
  S   S128      1.0  0.10167  0.29030  0.47521  1.0000
  S   S129      1.0  0.14078  0.28655  0.49766  1.0000
  Fe  Fe67      1.0  0.19682  0.46020  0.45526  1.0000
  S   S130      1.0  0.21867  0.43568  0.46220  1.0000
  H   H350      1.0  0.11173  0.25499  0.54642  1.0000
  Fe  Fe68      1.0  0.18904  0.44364  0.41735  1.0000
  S   S131      1.0  0.21068  0.41835  0.42240  1.0000
  S   S132      1.0  0.17741  0.44127  0.38849  1.0000
  Fe  Fe69      1.0  0.19756  0.41680  0.45245  1.0000
  S   S133      1.0  0.19194  0.38820  0.46882  1.0000
  Fe  Fe70      1.0  0.22965  0.43905  0.43140  1.0000
  S   S134      1.0  0.25961  0.44196  0.41674  1.0000
  S   S135      1.0  0.17490  0.44113  0.44734  1.0000
  S   S136      1.0  0.20888  0.46451  0.42469  1.0000
  C   C344      1.0  0.44327  0.32701  0.44690  1.0000
  H   H351      1.0  0.33320  0.37866  0.40901  1.0000
  C   C345      1.0  0.14927  0.45646  0.34118  1.0000
  H   H352      1.0  0.08184  0.30975  0.40535  1.0000
  H   H353      1.0  0.07453  0.25513  0.38605  1.0000
  C   C346      1.0  0.15410  0.34157  0.45586  1.0000
  C   C347      1.0  0.16582  0.33879  0.47091  1.0000
  C   C348      1.0  0.17771  0.35294  0.47428  1.0000
  C   C349      1.0  0.17807  0.37008  0.46273  1.0000
  C   C350      1.0  0.16646  0.37279  0.44758  1.0000
  C   C351      1.0  0.15457  0.35863  0.44421  1.0000
  H   H354      1.0  0.16567  0.32577  0.48001  1.0000
  H   H355      1.0  0.18660  0.35066  0.48605  1.0000
  H   H356      1.0  0.16647  0.38588  0.43859  1.0000
  H   H357      1.0  0.14560  0.36099  0.43252  1.0000
  H   H358      1.0  0.47260  0.47507  0.43012  1.0000
  C   C352      1.0  0.14351  0.48316  0.36090  1.0000
  C   C353      1.0  0.15400  0.47288  0.37505  1.0000
  C   C354      1.0  0.16234  0.45437  0.37225  1.0000
  C   C355      1.0  0.15968  0.44618  0.35534  1.0000
  H   H359      1.0  0.10888  0.30131  0.43457  1.0000
  H   H360      1.0  0.21043  0.44737  0.34530  1.0000
  H   H361      1.0  0.15585  0.47937  0.38798  1.0000
  H   H362      1.0  0.16596  0.43184  0.35307  1.0000
  H   H363      1.0  0.45333  0.35429  0.40634  1.0000
  H   H364      1.0  0.32440  0.37060  0.38820  1.0000
  C   C356      1.0  0.14129  0.47512  0.34379  1.0000
  H   H365      1.0  0.09489  0.25892  0.63830  1.0000
  H   H366      1.0  0.12414  0.26320  0.41423  1.0000
  H   H367      1.0  0.27654  0.48477  0.48619  1.0000
  H   H368      1.0  0.43390  0.33803  0.47385  1.0000
  H   H369      1.0  0.21847  0.49148  0.59810  1.0000
  C   C357      1.0  0.44901  0.33155  0.42789  1.0000
  H   H370      1.0  0.44182  0.31226  0.45193  1.0000
  C   C358      1.0  0.05078  0.31017  0.62592  1.0000
  C   C359      1.0  0.44020  0.43884  0.44738  1.0000
  C   C360      1.0  0.42817  0.45572  0.44513  1.0000
  C   C361      1.0  0.43197  0.47224  0.45357  1.0000
  C   C362      1.0  0.44774  0.47208  0.46445  1.0000
  C   C363      1.0  0.45976  0.45518  0.46674  1.0000
  C   C364      1.0  0.45604  0.43871  0.45819  1.0000
  H   H371      1.0  0.41594  0.45607  0.43688  1.0000
  H   H372      1.0  0.42259  0.48523  0.45168  1.0000
  H   H373      1.0  0.47186  0.45480  0.47515  1.0000
  H   H374      1.0  0.46543  0.42573  0.46007  1.0000
  C   C365      1.0  0.40928  0.32340  0.41268  1.0000
  C   C366      1.0  0.39999  0.32437  0.43093  1.0000
  C   C367      1.0  0.39929  0.30775  0.44326  1.0000
  C   C368      1.0  0.40793  0.29004  0.43753  1.0000
  C   C369      1.0  0.41717  0.28907  0.41927  1.0000
  C   C370      1.0  0.41776  0.30565  0.40691  1.0000
  H   H375      1.0  0.39346  0.33794  0.43558  1.0000
  H   H376      1.0  0.39207  0.30864  0.45735  1.0000
  H   H377      1.0  0.42383  0.27554  0.41465  1.0000
  H   H378      1.0  0.42499  0.30476  0.39282  1.0000
  C   C371      1.0  0.28238  0.43266  0.42382  1.0000
  C   C372      1.0  0.28452  0.42202  0.44106  1.0000
  C   C373      1.0  0.30281  0.41372  0.44539  1.0000
  C   C374      1.0  0.31907  0.41593  0.43253  1.0000
  C   C375      1.0  0.31699  0.42706  0.41557  1.0000
  C   C376      1.0  0.29872  0.43539  0.41126  1.0000
  H   H379      1.0  0.27206  0.41984  0.45085  1.0000
  H   H380      1.0  0.30434  0.40518  0.45858  1.0000
  H   H381      1.0  0.32941  0.42901  0.40564  1.0000
  H   H382      1.0  0.29721  0.44373  0.39794  1.0000
  C   C377      1.0  0.26532  0.38482  0.42443  1.0000
  C   C378      1.0  0.44525  0.36488  0.43396  1.0000
  H   H383      1.0  0.13425  0.39443  0.50380  1.0000
  H   H384      1.0  0.41126  0.39530  0.34151  1.0000
  C   C379      1.0  0.44985  0.35059  0.42130  1.0000
  C   C380      1.0  0.06967  0.27901  0.56231  1.0000
  H   H385      1.0  0.05292  0.31360  0.66269  1.0000
  N   N32       1.0  0.06269  0.29785  0.63865  1.0000
  N   N33       1.0  0.43996  0.36032  0.45268  1.0000
  H   H386      1.0  0.05786  0.32329  0.62120  1.0000
  N   N34       1.0  0.30277  0.38311  0.40756  1.0000
  C   C381      1.0  0.08501  0.27441  0.66299  1.0000
  H   H387      1.0  0.05963  0.29087  0.55814  1.0000
  S   S137      1.0  0.47527  0.49681  0.52287  1.0000
  H   H388      1.0  0.43334  0.37015  0.48065  1.0000
  C   C382      1.0  0.11113  0.26923  0.40805  1.0000
  C   C383      1.0  0.06615  0.26860  0.57983  1.0000
  S   S138      1.0  0.45247  0.49361  0.47380  1.0000
  H   H389      1.0  0.32562  0.39575  0.39083  1.0000
  C   C384      1.0  0.08739  0.29511  0.40331  1.0000
  C   C385      1.0  0.43866  0.34168  0.45917  1.0000
  H   H390      1.0  0.25795  0.40248  0.39957  1.0000
  H   H391      1.0  0.23202  0.49138  0.52364  1.0000
  H   H392      1.0  0.10106  0.34270  0.47747  1.0000
  H   H393      1.0  0.27729  0.36772  0.44772  1.0000
  C   C386      1.0  0.43520  0.37566  0.46558  1.0000
  H   H394      1.0  0.48416  0.48354  0.56252  1.0000
  C   C387      1.0  0.11533  0.30022  0.41978  1.0000
  H   H395      1.0  0.44572  0.37965  0.42866  1.0000
  H   H396      1.0  0.31054  0.36637  0.43248  1.0000
  C   C388      1.0  0.03704  0.25781  0.42101  1.0000
  C   C389      1.0  0.28823  0.39293  0.39828  1.0000
  S   S139      1.0  0.18924  0.48696  0.47247  1.0000
  C   C390      1.0  0.32242  0.38190  0.39841  1.0000
  C   C391      1.0  0.28020  0.37464  0.43370  1.0000
  C   C392      1.0  0.26932  0.39400  0.40660  1.0000
  C   C393      1.0  0.06223  0.30168  0.65728  1.0000
  H   H397      1.0  0.47606  0.49566  0.58378  1.0000
  H   H398      1.0  0.24503  0.46991  0.44142  1.0000
  H   H399      1.0  0.42170  0.38418  0.46195  1.0000
  C   C394      1.0  0.26223  0.47535  0.46354  1.0000
  H   H400      1.0  0.15751  0.38137  0.49904  1.0000
  H   H401      1.0  0.10722  0.31970  0.50500  1.0000
  C   C395      1.0  0.07649  0.28351  0.39436  1.0000
  H   H402      1.0  0.14347  0.38943  0.47991  1.0000
  H   H403      1.0  0.04825  0.30274  0.61327  1.0000
  C   C396      1.0  0.24732  0.47965  0.45184  1.0000
  S   S140      1.0  0.01576  0.26456  0.40945  1.0000
  C   C397      1.0  0.29896  0.37389  0.42499  1.0000
  H   H404      1.0  0.13064  0.29455  0.42030  1.0000
  S   S141      1.0  0.01581  0.29536  0.66628  1.0000
  H   H405      1.0  0.29128  0.40050  0.38462  1.0000
  Fe  Fe71      1.0  0.11067  0.26102  0.46559  1.0000
  H   H406      1.0  0.05345  0.27247  0.58901  1.0000
  H   H407      1.0  0.11770  0.37218  0.47285  1.0000
  N   N35       1.0  0.13330  0.36574  0.49729  1.0000
  C   C398      1.0  0.13702  0.35298  0.51232  1.0000
  C   C399      1.0  0.12035  0.36231  0.48501  1.0000
  C   C400      1.0  0.12772  0.33623  0.51530  1.0000
  C   C401      1.0  0.11081  0.34572  0.48759  1.0000
  C   C402      1.0  0.11447  0.33267  0.50288  1.0000
  H   H408      1.0  0.13734  0.49755  0.36311  1.0000
  H   H409      1.0  0.14736  0.35563  0.52199  1.0000
  H   H410      1.0  0.44680  0.38543  0.46420  1.0000
  H   H411      1.0  0.13080  0.32595  0.52707  1.0000
  C   C403      1.0  0.19908  0.47564  0.35220  1.0000
  H   H412      1.0  0.03640  0.31418  0.63326  1.0000
  H   H413      1.0  0.43055  0.44651  0.34080  1.0000
  C   C404      1.0  0.48129  0.48646  0.43226  1.0000
  C   C405      1.0  0.14249  0.38363  0.49496  1.0000
  H   H414      1.0  0.45200  0.32039  0.41806  1.0000
  H   H415      1.0  0.22032  0.47525  0.49760  1.0000
  C   C406      1.0  0.08608  0.27416  0.55011  1.0000
  C   C407      1.0  0.21972  0.49793  0.51668  1.0000
  C   C408      1.0  0.21307  0.48867  0.50190  1.0000
  H   H416      1.0  0.25077  0.38595  0.43121  1.0000
  C   C409      1.0  0.04442  0.27141  0.43112  1.0000
  H   H417      1.0  0.07539  0.28021  0.61690  1.0000
  C   C410      1.0  0.07467  0.28303  0.63175  1.0000
  C   C411      1.0  0.26504  0.48802  0.47693  1.0000
  H   H418      1.0  0.06739  0.27784  0.44724  1.0000
  C   C412      1.0  0.23536  0.49657  0.45366  1.0000
  C   C413      1.0  0.18836  0.49232  0.34612  1.0000
  N   N36       1.0  0.10457  0.28796  0.40981  1.0000
  H   H419      1.0  0.06257  0.28898  0.38974  1.0000
  H   H420      1.0  0.03674  0.28540  0.43214  1.0000
  H   H421      1.0  0.20365  0.47388  0.36649  1.0000
  H   H422      1.0  0.11524  0.31479  0.41264  1.0000
  C   C414      1.0  0.06179  0.26717  0.43973  1.0000
  C   C415      1.0  0.20286  0.46069  0.34028  1.0000
  Fe  Fe72      1.0  0.47726  0.49853  0.49096  1.0000
  C   C416      1.0  0.09899  0.25880  0.55563  1.0000
  C   C417      1.0  0.08591  0.27102  0.64381  1.0000
  Fe  Fe73      1.0  0.14733  0.25736  0.48618  1.0000
  C   C418      1.0  0.48577  0.49613  0.57053  1.0000
  C   C419      1.0  0.19728  0.49693  0.49252  1.0000
  C   C420      1.0  0.10064  0.25726  0.39911  1.0000
  C   C421      1.0  0.07928  0.25351  0.58555  1.0000
  H   H423      1.0  0.26067  0.45949  0.84734  1.0000
  H   H424      1.0  0.08049  0.43267  0.81474  1.0000
  Fe  Fe74      1.0  0.23084  0.39898  0.97195  1.0000
  C   C422      1.0  0.42661  0.25980  0.94661  1.0000
  S   S142      1.0  0.22330  0.42882  0.95838  1.0000
  Fe  Fe75      1.0  0.25874  0.36391  0.98043  1.0000
  S   S143      1.0  0.28817  0.34946  0.97092  1.0000
  Fe  Fe76      1.0  0.21572  0.35946  0.98200  1.0000
  S   S144      1.0  0.19797  0.33503  0.97681  1.0000
  S   S145      1.0  0.23688  0.37066  0.95897  1.0000
  C   C423      1.0  0.22117  0.46136  0.89216  1.0000
  Fe  Fe77      1.0  0.03529  0.35331  0.75404  1.0000
  C   C424      1.0  0.04298  0.30265  0.79466  1.0000
  S   S146      1.0  0.03871  0.32293  0.74425  1.0000
  Fe  Fe78      1.0  0.05611  0.38910  0.75833  1.0000
  S   S147      1.0  0.03209  0.40178  0.77777  1.0000
  S   S148      1.0  0.08361  0.40318  0.74951  1.0000
  Fe  Fe79      1.0  0.03143  0.37206  0.79181  1.0000
  S   S149      1.0  0.02834  0.36843  0.82413  1.0000
  N   N37       1.0  0.23959  0.47497  0.86514  1.0000
  S   S150      1.0  0.05682  0.35993  0.77375  1.0000
  S   S151      1.0  0.03699  0.38136  0.73700  1.0000
  Fe  Fe80      1.0  0.09533  0.30952  0.94224  1.0000
  S   S152      1.0  0.06734  0.32181  0.93098  1.0000
  S   S153      1.0  0.11369  0.33263  0.94965  1.0000
  Fe  Fe81      1.0  0.08523  0.26860  0.93875  1.0000
  S   S154      1.0  0.05674  0.27823  0.92742  1.0000
  Fe  Fe82      1.0  0.07278  0.30016  0.90917  1.0000
  S   S155      1.0  0.07182  0.30442  0.87685  1.0000
  Fe  Fe83      1.0  0.05339  0.29921  0.95028  1.0000
  S   S156      1.0  0.02485  0.30924  0.96669  1.0000
  S   S157      1.0  0.10166  0.28911  0.91918  1.0000
  S   S158      1.0  0.08095  0.28831  0.96286  1.0000
  H   H425      1.0  0.30200  0.26053  0.95895  1.0000
  H   H426      1.0  0.06395  0.36926  0.97179  1.0000
  S   S159      1.0  0.48023  0.27278  0.92773  1.0000
  H   H427      1.0  0.44807  0.27633  0.95517  1.0000
  S   S160      1.0  0.27441  0.47862  0.89873  1.0000
  S   S161      1.0  0.09589  0.48735  0.76948  1.0000
  C   C425      1.0  0.25934  0.28372  0.97444  1.0000
  C   C426      1.0  0.29119  0.28889  0.94909  1.0000
  H   H428      1.0  0.07217  0.29266  0.68470  1.0000
  C   C427      1.0  0.03218  0.31555  0.72250  1.0000
  H   H429      1.0  0.25145  0.33024  0.96551  1.0000
  H   H430      1.0  0.04408  0.40759  0.81950  1.0000
  C   C428      1.0  0.02193  0.30252  0.68828  1.0000
  C   C429      1.0  0.03075  0.28972  0.70157  1.0000
  C   C430      1.0  0.03580  0.29621  0.71858  1.0000
  C   C431      1.0  0.01825  0.31985  0.81427  1.0000
  H   H431      1.0  0.02064  0.34327  0.71187  1.0000
  H   H432      1.0  0.03359  0.27481  0.69881  1.0000
  H   H433      1.0  0.04247  0.28616  0.72883  1.0000
  C   C432      1.0  0.08631  0.42711  0.75396  1.0000
  C   C433      1.0  0.10343  0.43513  0.74728  1.0000
  C   C434      1.0  0.10651  0.45371  0.75152  1.0000
  C   C435      1.0  0.09254  0.46436  0.76268  1.0000
  C   C436      1.0  0.07546  0.45631  0.76938  1.0000
  C   C437      1.0  0.07229  0.43786  0.76494  1.0000
  H   H434      1.0  0.11439  0.42690  0.73881  1.0000
  H   H435      1.0  0.11975  0.45970  0.74633  1.0000
  H   H436      1.0  0.06460  0.46442  0.77805  1.0000
  H   H437      1.0  0.05911  0.43189  0.77023  1.0000
  C   C438      1.0  0.04238  0.35211  0.83873  1.0000
  C   C439      1.0  0.05665  0.33895  0.83108  1.0000
  C   C440      1.0  0.06620  0.32505  0.84311  1.0000
  C   C441      1.0  0.06165  0.32414  0.86287  1.0000
  C   C442      1.0  0.04801  0.33786  0.87058  1.0000
  C   C443      1.0  0.03844  0.35177  0.85854  1.0000
  H   H438      1.0  0.05988  0.33902  0.81588  1.0000
  H   H439      1.0  0.07683  0.31457  0.83703  1.0000
  H   H440      1.0  0.04437  0.33734  0.88575  1.0000
  H   H441      1.0  0.02750  0.36195  0.86463  1.0000
  C   C444      1.0  0.23870  0.44256  0.94293  1.0000
  C   C445      1.0  0.25554  0.43444  0.93348  1.0000
  C   C446      1.0  0.26662  0.44576  0.92031  1.0000
  C   C447      1.0  0.26110  0.46530  0.91666  1.0000
  C   C448      1.0  0.24453  0.47349  0.92652  1.0000
  C   C449      1.0  0.23332  0.46214  0.93946  1.0000
  H   H442      1.0  0.25982  0.41938  0.93600  1.0000
  H   H443      1.0  0.27943  0.43928  0.91279  1.0000
  H   H444      1.0  0.24011  0.48847  0.92393  1.0000
  H   H445      1.0  0.22031  0.46854  0.94669  1.0000
  C   C450      1.0  0.17451  0.33477  0.96912  1.0000
  C   C451      1.0  0.16254  0.35148  0.96555  1.0000
  C   C452      1.0  0.14406  0.35048  0.95957  1.0000
  C   C453      1.0  0.13729  0.33283  0.95698  1.0000
  C   C454      1.0  0.14925  0.31612  0.96055  1.0000
  C   C455      1.0  0.16770  0.31712  0.96659  1.0000
  C   C456      1.0  0.22601  0.49020  0.86382  1.0000
  H   H446      1.0  0.27339  0.25570  0.98141  1.0000
  H   H447      1.0  0.14430  0.30244  0.95866  1.0000
  C   C457      1.0  0.04921  0.29238  0.81091  1.0000
  H   H448      1.0  0.27743  0.31705  0.94334  1.0000
  C   C458      1.0  0.29763  0.32683  0.98018  1.0000
  C   C459      1.0  0.31555  0.31888  0.97245  1.0000
  C   C460      1.0  0.32292  0.30034  0.97854  1.0000
  H   H449      1.0  0.32359  0.32697  0.96141  1.0000
  H   H450      1.0  0.33657  0.29424  0.97226  1.0000
  C   C461      1.0  0.01358  0.30133  0.98909  1.0000
  C   C462      1.0  0.10123  0.41678  0.79661  1.0000
  S   S162      1.0  0.00960  0.36388  0.77325  1.0000
  H   H451      1.0  0.25514  0.48389  0.83907  1.0000
  N   N38       1.0  0.06903  0.34143  0.98554  1.0000
  H   H452      1.0  0.16750  0.36516  0.96740  1.0000
  C   C463      1.0  0.02734  0.31637  0.79633  1.0000
  H   H453      1.0  0.07384  0.35070  0.95658  1.0000
  N   N39       1.0  0.26071  0.30077  0.96407  1.0000
  H   H454      1.0  0.17679  0.30409  0.96932  1.0000
  C   C464      1.0  0.29015  0.27163  0.95995  1.0000
  C   C465      1.0  0.27411  0.26895  0.97266  1.0000
  C   C466      1.0  0.07318  0.28991  0.66979  1.0000
  H   H455      1.0  0.04470  0.28815  0.84125  1.0000
  C   C467      1.0  0.20719  0.47677  0.89084  1.0000
  H   H456      1.0  0.08876  0.36036  0.97191  1.0000
  C   C468      1.0  0.10655  0.39925  0.78893  1.0000
  H   H457      1.0  0.00637  0.33088  0.81545  1.0000
  H   H458      1.0  0.11861  0.39778  0.77825  1.0000
  C   C469      1.0  0.09558  0.38398  0.79413  1.0000
  C   C470      1.0  0.44435  0.26765  0.94442  1.0000
  H   H459      1.0  0.48940  0.33742  0.83902  1.0000
  H   H460      1.0  0.05021  0.30009  0.78075  1.0000
  H   H461      1.0  0.21973  0.45020  0.90350  1.0000
  H   H462      1.0  0.26919  0.47831  0.85914  1.0000
  C   C471      1.0  0.08487  0.41880  0.80939  1.0000
  H   H463      1.0  0.09800  0.32944  0.98719  1.0000
  C   C472      1.0  0.07941  0.38645  0.80708  1.0000
  H   H464      1.0  0.09919  0.37055  0.78762  1.0000
  H   H465      1.0  0.23534  0.31644  0.95507  1.0000
  C   C473      1.0  0.20959  0.49131  0.87658  1.0000
  H   H466      1.0  0.03890  0.34941  0.98558  1.0000
  H   H467      1.0  0.13500  0.36352  0.95684  1.0000
  C   C474      1.0  0.23745  0.46077  0.87920  1.0000
  C   C475      1.0  0.01840  0.32186  0.69214  1.0000
  H   H468      1.0  0.06147  0.28178  0.80981  1.0000
  H   H469      1.0  0.07072  0.37463  0.81083  1.0000
  N   N40       1.0  0.07436  0.40364  0.81466  1.0000
  H   H470      1.0  0.10921  0.42896  0.79200  1.0000
  C   C476      1.0  0.03961  0.29600  0.82863  1.0000
  C   C477      1.0  0.05696  0.40598  0.82767  1.0000
  H   H471      1.0  0.02409  0.30954  0.86031  1.0000
  C   C478      1.0  0.28736  0.31628  0.99443  1.0000
  S   S163      1.0  0.37814  0.25932  0.98518  1.0000
  H   H472      1.0  0.19466  0.47753  0.90101  1.0000
  C   C479      1.0  0.05017  0.33998  0.99175  1.0000
  C   C480      1.0  0.25699  0.47416  0.85198  1.0000
  H   H473      1.0  0.05591  0.39323  0.83785  1.0000
  C   C481      1.0  0.02350  0.32836  0.70911  1.0000
  H   H474      1.0  0.21618  0.42657  0.99873  1.0000
  H   H475      1.0  0.09332  0.26495  0.67258  1.0000
  S   S164      1.0  0.25452  0.39335  0.99141  1.0000
  Fe  Fe84      1.0  0.01269  0.39250  0.75747  1.0000
  C   C482      1.0  0.07408  0.35621  0.97077  1.0000
  H   H476      1.0  0.23693  0.31480  0.98032  1.0000
  C   C483      1.0  0.45744  0.26407  0.92863  1.0000
  H   H477      1.0  0.03618  0.27997  0.99644  1.0000
  C   C484      1.0  0.49565  0.49437  0.80620  1.0000
  H   H478      1.0  0.00916  0.32852  0.84961  1.0000
  H   H479      1.0  0.48722  0.48268  0.81115  1.0000
  C   C485      1.0  0.08308  0.32865  0.99246  1.0000
  H   H480      1.0  0.48572  0.31319  0.84678  1.0000
  H   H481      1.0  0.05681  0.41857  0.83613  1.0000
  H   H482      1.0  0.41676  0.26249  0.95896  1.0000
  N   N41       1.0  0.02449  0.30977  0.83014  1.0000
  C   C486      1.0  0.27623  0.30340  0.95132  1.0000
  C   C487      1.0  0.24536  0.31626  0.96631  1.0000
  C   C488      1.0  0.01439  0.31319  0.84876  1.0000
  H   H483      1.0  0.24864  0.44914  0.88080  1.0000
  H   H484      1.0  0.30381  0.29129  0.93952  1.0000
  H   H485      1.0  0.22784  0.50169  0.85296  1.0000
  H   H486      1.0  0.24305  0.44572  0.98699  1.0000
  S   S165      1.0  0.20791  0.38827  0.99353  1.0000
  C   C489      1.0  0.31237  0.28964  0.99244  1.0000
  H   H487      1.0  0.01165  0.33192  0.68195  1.0000
  C   C490      1.0  0.49686  0.32333  0.84326  1.0000
  H   H488      1.0  0.24699  0.28163  0.98448  1.0000
  H   H489      1.0  0.00201  0.30447  0.85138  1.0000
  H   H490      1.0  0.02238  0.32426  0.78371  1.0000
  C   C491      1.0  0.04695  0.71699  0.20361  1.0000
  C   C492      1.0  0.26850  0.71050  0.06835  1.0000
  S   S166      1.0  0.34282  0.72746  0.02407  1.0000
  C   C493      1.0  0.44720  0.70681  0.11851  1.0000
  H   H491      1.0  0.39074  0.71870  0.09143  1.0000
  C   C494      1.0  0.43595  0.70615  0.10337  1.0000
  C   C495      1.0  0.05281  0.56840  0.29358  1.0000
  S   S167      1.0  0.27740  0.52961  0.12024  1.0000
  Fe  Fe85      1.0  0.04510  0.62546  0.25078  1.0000
  S   S168      1.0  0.02282  0.61635  0.23358  1.0000
  S   S169      1.0  0.07202  0.60749  0.25915  1.0000
  Fe  Fe86      1.0  0.02214  0.66363  0.25943  1.0000
  C   C496      1.0  0.05330  0.53113  0.28373  1.0000
  C   C497      1.0  0.02191  0.69318  0.32751  1.0000
  Fe  Fe87      1.0  0.02084  0.64682  0.22104  1.0000
  H   H492      1.0  0.01374  0.58139  0.28461  1.0000
  S   S170      1.0  0.02415  0.63469  0.27496  1.0000
  S   S171      1.0  0.04495  0.65509  0.23634  1.0000
  H   H493      1.0  0.27158  0.57739  0.02665  1.0000
  S   S172      1.0  0.26918  0.62164  0.02964  1.0000
  Fe  Fe88      1.0  0.22208  0.65531  0.03961  1.0000
  S   S173      1.0  0.23992  0.64149  0.06254  1.0000
  S   S174      1.0  0.19912  0.67866  0.04958  1.0000
  Fe  Fe89      1.0  0.26556  0.64977  0.04320  1.0000
  S   S175      1.0  0.28797  0.66358  0.05761  1.0000
  Fe  Fe90      1.0  0.24202  0.61476  0.04701  1.0000
  S   S176      1.0  0.23635  0.58437  0.05760  1.0000
  S   S177      1.0  0.24774  0.66461  0.02091  1.0000
  S   S178      1.0  0.22208  0.62787  0.02536  1.0000
  N   N42       1.0  0.13153  0.72963  0.02204  1.0000
  S   S179      1.0  0.08929  0.72529  0.08391  1.0000
  Fe  Fe91      1.0  0.04150  0.71917  0.06121  1.0000
  S   S180      1.0  0.05933  0.69451  0.07523  1.0000
  H   H494      1.0  0.20199  0.51336  0.14019  1.0000
  Fe  Fe92      1.0  0.06233  0.71377  0.09831  1.0000
  S   S181      1.0  0.06608  0.70417  0.12939  1.0000
  Fe  Fe93      1.0  0.08513  0.70743  0.06021  1.0000
  S   S182      1.0  0.10833  0.68735  0.04540  1.0000
  S   S183      1.0  0.04259  0.73769  0.08580  1.0000
  S   S184      1.0  0.06716  0.73080  0.04469  1.0000
  S   S185      1.0  0.08637  0.51945  0.24463  1.0000
  C   C498      1.0  0.03879  0.71968  0.18630  1.0000
  S   S186      1.0  0.01545  0.65475  0.19007  1.0000
  H   H495      1.0  0.40431  0.69646  0.08588  1.0000
  H   H496      1.0  0.24745  0.56249  0.13931  1.0000
  C   C499      1.0  0.17374  0.67950  0.04967  1.0000
  C   C500      1.0  0.16489  0.66772  0.03892  1.0000
  C   C501      1.0  0.14479  0.66997  0.03822  1.0000
  C   C502      1.0  0.13329  0.68390  0.04835  1.0000
  C   C503      1.0  0.14207  0.69531  0.05955  1.0000
  C   C504      1.0  0.16219  0.69320  0.06008  1.0000
  H   H497      1.0  0.17356  0.65714  0.03082  1.0000
  H   H498      1.0  0.13815  0.66105  0.02951  1.0000
  H   H499      1.0  0.13343  0.70607  0.06743  1.0000
  H   H500      1.0  0.16889  0.70235  0.06850  1.0000
  C   C505      1.0  0.07702  0.58344  0.25360  1.0000
  C   C506      1.0  0.09197  0.57209  0.26200  1.0000
  C   C507      1.0  0.09534  0.55250  0.25908  1.0000
  C   C508      1.0  0.08388  0.54421  0.24755  1.0000
  C   C509      1.0  0.06935  0.55569  0.23869  1.0000
  C   C510      1.0  0.06586  0.57521  0.24175  1.0000
  H   H501      1.0  0.10073  0.57840  0.27110  1.0000
  H   H502      1.0  0.10663  0.54379  0.26590  1.0000
  H   H503      1.0  0.06054  0.54939  0.22962  1.0000
  H   H504      1.0  0.05450  0.58384  0.23500  1.0000
  C   C511      1.0  0.03016  0.66767  0.17305  1.0000
  C   C512      1.0  0.04800  0.67279  0.17700  1.0000
  C   C513      1.0  0.05884  0.68380  0.16336  1.0000
  C   C514      1.0  0.05196  0.68989  0.14569  1.0000
  C   C515      1.0  0.03428  0.68450  0.14161  1.0000
  C   C516      1.0  0.02346  0.67343  0.15524  1.0000
  H   H505      1.0  0.05336  0.66842  0.19062  1.0000
  H   H506      1.0  0.07256  0.68782  0.16662  1.0000
  H   H507      1.0  0.02886  0.68900  0.12803  1.0000
  S   S187      1.0  0.48609  0.73992  0.10779  1.0000
  C   C517      1.0  0.03691  0.70832  0.21931  1.0000
  S   S188      1.0  0.01241  0.71524  0.04988  1.0000
  H   H508      1.0  0.25033  0.58635  0.01516  1.0000
  H   H509      1.0  0.27961  0.73441  0.02598  1.0000
  C   C518      1.0  0.26700  0.54433  0.10182  1.0000
  C   C519      1.0  0.27121  0.56343  0.09877  1.0000
  C   C520      1.0  0.26223  0.57586  0.08504  1.0000
  C   C521      1.0  0.24885  0.56927  0.07434  1.0000
  C   C522      1.0  0.24476  0.55014  0.07730  1.0000
  C   C523      1.0  0.25384  0.53770  0.09088  1.0000
  H   H510      1.0  0.28137  0.56870  0.10716  1.0000
  H   H511      1.0  0.26549  0.59056  0.08292  1.0000
  H   H512      1.0  0.23441  0.54493  0.06910  1.0000
  H   H513      1.0  0.25046  0.52306  0.09306  1.0000
  C   C524      1.0  0.32781  0.70965  0.03385  1.0000
  C   C525      1.0  0.32695  0.70319  0.05301  1.0000
  C   C526      1.0  0.31498  0.68881  0.05993  1.0000
  C   C527      1.0  0.30354  0.68091  0.04787  1.0000
  C   C528      1.0  0.30435  0.68742  0.02872  1.0000
  C   C529      1.0  0.31650  0.70161  0.02177  1.0000
  H   H514      1.0  0.33561  0.70913  0.06246  1.0000
  H   H515      1.0  0.31450  0.68384  0.07475  1.0000
  H   H516      1.0  0.29567  0.68150  0.01927  1.0000
  C   C530      1.0  0.25589  0.71707  0.03239  1.0000
  S   S189      1.0  0.02281  0.69352  0.26967  1.0000
  H   H517      1.0  0.41230  0.71920  0.07621  1.0000
  C   C531      1.0  0.40546  0.71146  0.08890  1.0000
  C   C532      1.0  0.10770  0.67503  0.10135  1.0000
  H   H518      1.0  0.04864  0.63255  0.10640  1.0000
  H   H519      1.0  0.04301  0.70617  0.23291  1.0000
  C   C533      1.0  0.02197  0.68710  0.30903  1.0000
  C   C534      1.0  0.02330  0.70026  0.29329  1.0000
  C   C535      1.0  0.02077  0.71336  0.18490  1.0000
  H   H520      1.0  0.43250  0.74864  0.06748  1.0000
  H   H521      1.0  0.46654  0.74056  0.07412  1.0000
  C   C536      1.0  0.21126  0.53952  0.12614  1.0000
  C   C537      1.0  0.08459  0.72425  0.32930  1.0000
  N   N43       1.0  0.04012  0.56390  0.28153  1.0000
  C   C538      1.0  0.40828  0.71865  0.12184  1.0000
  C   C539      1.0  0.45632  0.74636  0.08503  1.0000
  C   C540      1.0  0.21162  0.52448  0.14010  1.0000
  N   N44       1.0  0.23725  0.53730  0.15363  1.0000
  C   C541      1.0  0.06644  0.53562  0.29584  1.0000
  H   H522      1.0  0.26601  0.53148  0.16050  1.0000
  H   H523      1.0  0.09503  0.65793  0.07331  1.0000
  C   C542      1.0  0.08710  0.65513  0.08696  1.0000
  H   H524      1.0  0.10471  0.68651  0.11141  1.0000
  H   H525      1.0  0.07717  0.52471  0.30085  1.0000
  H   H526      1.0  0.05312  0.58307  0.29700  1.0000
  C   C543      1.0  0.02494  0.72557  0.31480  1.0000
  H   H527      1.0  0.46258  0.70291  0.11680  1.0000
  H   H528      1.0  0.22512  0.51165  0.16443  1.0000
  C   C544      1.0  0.02488  0.71950  0.29631  1.0000
  H   H529      1.0  0.02590  0.72983  0.28427  1.0000
  H   H530      1.0  0.41243  0.72519  0.15029  1.0000
  C   C545      1.0  0.06617  0.55435  0.30091  1.0000
  H   H531      1.0  0.23982  0.69627  0.09182  1.0000
  C   C546      1.0  0.11360  0.73903  0.02134  1.0000
  H   H532      1.0  0.01475  0.71508  0.17127  1.0000
  C   C547      1.0  0.22395  0.55349  0.12610  1.0000
  H   H533      1.0  0.03023  0.54197  0.26697  1.0000
  C   C548      1.0  0.23700  0.55209  0.13997  1.0000
  H   H534      1.0  0.08825  0.72896  0.31461  1.0000
  H   H535      1.0  0.12119  0.66627  0.10446  1.0000
  H   H536      1.0  0.06746  0.63848  0.07533  1.0000
  H   H537      1.0  0.05816  0.64586  0.13520  1.0000
  H   H538      1.0  0.25317  0.67612  0.08089  1.0000
  H   H539      1.0  0.39323  0.72403  0.12304  1.0000
  H   H540      1.0  0.02074  0.67227  0.30698  1.0000
  C   C549      1.0  0.06099  0.64076  0.10543  1.0000
  C   C550      1.0  0.07153  0.64408  0.08802  1.0000
  H   H541      1.0  0.22989  0.68496  0.07370  1.0000
  C   C551      1.0  0.01888  0.70228  0.21742  1.0000
  H   H542      1.0  0.00970  0.66946  0.15203  1.0000
  H   H543      1.0  0.29077  0.72875  0.05820  1.0000
  C   C552      1.0  0.22480  0.52357  0.15381  1.0000
  H   H544      1.0  0.41765  0.72355  0.00354  1.0000
  C   C553      1.0  0.06632  0.64820  0.12158  1.0000
  H   H545      1.0  0.44278  0.70145  0.08999  1.0000
  C   C554      1.0  0.13845  0.74988  0.04575  1.0000
  N   N45       1.0  0.41678  0.71210  0.10514  1.0000
  H   H546      1.0  0.17217  0.50631  0.32396  1.0000
  H   H547      1.0  0.27403  0.70735  0.08212  1.0000
  H   H548      1.0  0.08585  0.66516  0.13256  1.0000
  C   C555      1.0  0.01488  0.71500  0.01009  1.0000
  C   C556      1.0  0.41909  0.71942  0.13730  1.0000
  Fe  Fe94      1.0  0.06940  0.74789  0.07000  1.0000
  H   H549      1.0  0.06699  0.70281  0.32248  1.0000
  H   H550      1.0  0.06105  0.72152  0.20483  1.0000
  H   H551      1.0  0.07664  0.55809  0.30992  1.0000
  C   C557      1.0  0.24343  0.68929  0.07831  1.0000
  C   C558      1.0  0.08197  0.65917  0.11999  1.0000
  N   N46       1.0  0.09176  0.66297  0.10275  1.0000
  H   H552      1.0  0.05391  0.51676  0.27913  1.0000
  H   H553      1.0  0.10970  0.68229  0.08695  1.0000
  C   C559      1.0  0.04007  0.54550  0.27675  1.0000
  C   C560      1.0  0.25159  0.53585  0.16753  1.0000
  C   C561      1.0  0.14403  0.73506  0.03382  1.0000
  H   H554      1.0  0.04658  0.72611  0.17388  1.0000
  H   H555      1.0  0.02603  0.74042  0.31687  1.0000
  H   H556      1.0  0.44740  0.71465  0.14718  1.0000
  H   H557      1.0  0.31710  0.70643  0.00690  1.0000
  C   C562      1.0  0.27180  0.72569  0.03674  1.0000
  H   H558      1.0  0.02108  0.57515  0.26064  1.0000
  H   H559      1.0  0.02996  0.71682  0.01027  1.0000
  C   C563      1.0  0.43868  0.71350  0.13556  1.0000
  C   C564      1.0  0.00332  0.71382  0.02725  1.0000
  H   H560      1.0  0.25204  0.54981  0.17358  1.0000
  C   C565      1.0  0.02628  0.57888  0.27407  1.0000
  N   N47       1.0  0.25285  0.70219  0.06401  1.0000
  H   H561      1.0  0.24840  0.52516  0.17946  1.0000
  H   H562      1.0  0.22421  0.56496  0.11498  1.0000
  H   H563      1.0  0.20140  0.54020  0.11519  1.0000
  H   H564      1.0  0.23413  0.69868  0.04281  1.0000
  H   H565      1.0  0.03308  0.59242  0.27073  1.0000
  H   H566      1.0  0.10364  0.73472  0.01206  1.0000
  C   C566      1.0  0.43701  0.75090  0.08122  1.0000
  C   C567      1.0  0.46237  0.74877  0.10295  1.0000
  C   C568      1.0  0.24644  0.70540  0.04632  1.0000
  H   H567      1.0  0.12596  0.70457  0.00957  1.0000
  C   C569      1.0  0.26167  0.57426  0.01621  1.0000
  Fe  Fe95      1.0  0.24923  0.63584  0.00868  1.0000
  S   S190      1.0  0.39203  0.74246  0.04095  1.0000
  H   H568      1.0  0.25109  0.71913  0.01823  1.0000
  C   C570      1.0  0.27806  0.72255  0.05487  1.0000
  C   C571      1.0  0.02326  0.71245  0.33055  1.0000
  H   H569      1.0  0.25465  0.56141  0.02213  1.0000
  H   H570      1.0  0.15830  0.72767  0.03433  1.0000
  Fe  Fe96      1.0  0.36059  0.74838  0.03631  1.0000
  C   C572      1.0  0.13754  0.71425  0.00943  1.0000
  H   H571      1.0  0.01117  0.69566  0.22975  1.0000
  H   H572      1.0  0.15041  0.70527  0.01408  1.0000
  N   N48       1.0  0.01120  0.70454  0.20028  1.0000
  H   H573      1.0  0.38336  0.71977  0.00663  1.0000
  H   H574      1.0  0.49783  0.73614  0.21798  1.0000
  Fe  Fe97      1.0  0.39391  0.59548  0.60358  1.0000
  S   S191      1.0  0.37533  0.62211  0.59567  1.0000
  S   S192      1.0  0.39928  0.57288  0.58215  1.0000
  Fe  Fe98      1.0  0.39528  0.60651  0.64466  1.0000
  S   S193      1.0  0.37658  0.63402  0.63972  1.0000
  H   H575      1.0  0.03076  0.72738  0.57829  1.0000
  Fe  Fe99      1.0  0.35872  0.61650  0.62374  1.0000
  S   S194      1.0  0.32611  0.61575  0.62803  1.0000
  Fe  Fe100     1.0  0.39464  0.63743  0.61180  1.0000
  S   S195      1.0  0.41002  0.66220  0.59677  1.0000
  S   S196      1.0  0.37623  0.58893  0.63085  1.0000
  S   S197      1.0  0.41440  0.61090  0.61761  1.0000
  S   S198      1.0  0.48742  0.52813  0.48819  1.0000
  C   C573      1.0  0.45153  0.64537  0.62580  1.0000
  S   S199      1.0  0.48116  0.54825  0.54077  1.0000
  C   C574      1.0  0.08604  0.72717  0.36277  1.0000
  H   H576      1.0  0.45813  0.50834  0.42782  1.0000
  S   S200      1.0  0.02912  0.74424  0.39806  1.0000
  H   H577      1.0  0.06574  0.73266  0.61244  1.0000
  C   C575      1.0  0.29407  0.55754  0.61714  1.0000
  Fe  Fe101     1.0  0.14797  0.72518  0.53053  1.0000
  H   H578      1.0  0.15715  0.52004  0.56904  1.0000
  S   S201      1.0  0.17105  0.70013  0.52654  1.0000
  C   C576      1.0  0.07346  0.75105  0.58781  1.0000
  H   H579      1.0  0.47053  0.58988  0.52964  1.0000
  S   S202      1.0  0.11608  0.72313  0.53356  1.0000
  C   C577      1.0  0.32568  0.56575  0.62206  1.0000
  Fe  Fe102     1.0  0.21140  0.56211  0.60089  1.0000
  S   S203      1.0  0.19053  0.56229  0.57871  1.0000
  S   S204      1.0  0.21058  0.54714  0.63064  1.0000
  Fe  Fe103     1.0  0.24065  0.58256  0.57359  1.0000
  S   S205      1.0  0.22189  0.58419  0.54917  1.0000
  S   S206      1.0  0.27030  0.59375  0.56861  1.0000
  Fe  Fe104     1.0  0.19782  0.59272  0.57107  1.0000
  S   S207      1.0  0.17381  0.61700  0.56948  1.0000
  Fe  Fe105     1.0  0.21598  0.55368  0.55820  1.0000
  S   S208      1.0  0.22042  0.52684  0.54078  1.0000
  S   S209      1.0  0.21697  0.59289  0.59481  1.0000
  S   S210      1.0  0.23655  0.55174  0.58108  1.0000
  C   C578      1.0  0.21075  0.51557  0.52243  1.0000
  C   C579      1.0  0.18476  0.51413  0.61390  1.0000
  C   C580      1.0  0.06773  0.70397  0.35269  1.0000
  C   C581      1.0  0.19476  0.52367  0.51329  1.0000
  S   S211      1.0  0.14613  0.74989  0.50800  1.0000
  C   C582      1.0  0.17060  0.67655  0.53736  1.0000
  C   C583      1.0  0.18586  0.66275  0.53269  1.0000
  C   C584      1.0  0.18694  0.64435  0.54209  1.0000
  C   C585      1.0  0.17263  0.63947  0.55618  1.0000
  C   C586      1.0  0.15710  0.65309  0.56046  1.0000
  C   C587      1.0  0.15611  0.67154  0.55119  1.0000
  H   H580      1.0  0.19707  0.66644  0.52193  1.0000
  H   H581      1.0  0.19885  0.63399  0.53847  1.0000
  H   H582      1.0  0.14590  0.64946  0.57126  1.0000
  H   H583      1.0  0.14427  0.68196  0.55494  1.0000
  C   C588      1.0  0.17234  0.55333  0.64494  1.0000
  C   C589      1.0  0.19112  0.54652  0.64855  1.0000
  H   H584      1.0  0.05805  0.69288  0.35597  1.0000
  H   H585      1.0  0.16948  0.55990  0.63108  1.0000
  C   C590      1.0  0.06771  0.70756  0.38669  1.0000
  H   H586      1.0  0.06356  0.71216  0.57843  1.0000
  C   C591      1.0  0.41479  0.66635  0.66192  1.0000
  H   H587      1.0  0.15740  0.52085  0.62958  1.0000
  C   C592      1.0  0.03509  0.73461  0.56476  1.0000
  C   C593      1.0  0.35071  0.56865  0.59596  1.0000
  N   N49       1.0  0.33126  0.56439  0.60320  1.0000
  N   N50       1.0  0.05237  0.72929  0.55518  1.0000
  H   H588      1.0  0.46372  0.62302  0.54155  1.0000
  H   H589      1.0  0.06958  0.71884  0.39629  1.0000
  C   C594      1.0  0.42240  0.56500  0.57202  1.0000
  C   C595      1.0  0.42418  0.55123  0.55856  1.0000
  C   C596      1.0  0.44218  0.54550  0.54925  1.0000
  C   C597      1.0  0.45855  0.55357  0.55333  1.0000
  C   C598      1.0  0.45682  0.56718  0.56696  1.0000
  C   C599      1.0  0.43883  0.57288  0.57630  1.0000
  H   H590      1.0  0.41153  0.54510  0.55513  1.0000
  H   H591      1.0  0.44332  0.53509  0.53870  1.0000
  H   H592      1.0  0.46942  0.57353  0.57016  1.0000
  H   H593      1.0  0.43762  0.58353  0.58660  1.0000
  C   C600      1.0  0.31042  0.61093  0.61104  1.0000
  C   C601      1.0  0.29137  0.60746  0.61719  1.0000
  C   C602      1.0  0.27878  0.60243  0.60441  1.0000
  C   C603      1.0  0.28507  0.60105  0.58524  1.0000
  C   C604      1.0  0.30393  0.60511  0.57899  1.0000
  C   C605      1.0  0.31656  0.60993  0.59179  1.0000
  H   H594      1.0  0.28641  0.60832  0.63202  1.0000
  H   H595      1.0  0.26431  0.59945  0.60945  1.0000
  H   H596      1.0  0.30889  0.60428  0.56415  1.0000
  H   H597      1.0  0.33102  0.61293  0.58675  1.0000
  C   C606      1.0  0.40964  0.68618  0.60298  1.0000
  C   C607      1.0  0.39978  0.69256  0.61968  1.0000
  C   C608      1.0  0.40130  0.71121  0.62485  1.0000
  C   C609      1.0  0.41233  0.72385  0.61320  1.0000
  C   C610      1.0  0.42182  0.71759  0.59629  1.0000
  C   C611      1.0  0.42060  0.69883  0.59131  1.0000
  H   H598      1.0  0.39108  0.68310  0.62866  1.0000
  H   H599      1.0  0.39379  0.71595  0.63790  1.0000
  H   H600      1.0  0.43041  0.72710  0.58722  1.0000
  H   H601      1.0  0.42831  0.69408  0.57836  1.0000
  C   C612      1.0  0.20802  0.68401  0.56255  1.0000
  H   H602      1.0  0.45138  0.57954  0.52082  1.0000
  H   H603      1.0  0.36156  0.56008  0.60432  1.0000
  C   C613      1.0  0.15487  0.52106  0.59949  1.0000
  C   C614      1.0  0.16475  0.51833  0.58177  1.0000
  C   C615      1.0  0.45663  0.59342  0.52328  1.0000
  H   H604      1.0  0.44071  0.64284  0.56242  1.0000
  C   C616      1.0  0.30705  0.56227  0.62934  1.0000
  N   N51       1.0  0.07390  0.71315  0.36692  1.0000
  N   N52       1.0  0.44297  0.60461  0.53594  1.0000
  H   H605      1.0  0.05216  0.70537  0.38816  1.0000
  C   C617      1.0  0.23473  0.63549  0.56820  1.0000
  H   H606      1.0  0.43552  0.67257  0.62881  1.0000
  C   C618      1.0  0.18811  0.51441  0.49851  1.0000
  N   N53       1.0  0.22053  0.65189  0.57126  1.0000
  C   C619      1.0  0.06456  0.71289  0.56267  1.0000
  C   C620      1.0  0.20514  0.64993  0.58435  1.0000
  H   H607      1.0  0.19248  0.51256  0.62656  1.0000
  C   C621      1.0  0.19093  0.66507  0.58699  1.0000
  C   C622      1.0  0.19240  0.68219  0.57599  1.0000
  H   H608      1.0  0.39641  0.60764  0.55363  1.0000
  C   C623      1.0  0.05792  0.73864  0.53825  1.0000
  H   H609      1.0  0.20339  0.63638  0.59231  1.0000
  C   C624      1.0  0.41704  0.62668  0.55915  1.0000
  H   H610      1.0  0.17839  0.66319  0.59684  1.0000
  H   H611      1.0  0.18103  0.69374  0.57722  1.0000
  H   H612      1.0  0.41955  0.58835  0.53284  1.0000
  H   H613      1.0  0.28959  0.55359  0.58814  1.0000
  S   S212      1.0  0.09625  0.73828  0.58330  1.0000
  H   H614      1.0  0.41701  0.68143  0.65721  1.0000
  H   H615      1.0  0.25507  0.51468  0.48880  1.0000
  S   S213      1.0  0.02312  0.71912  0.35426  1.0000
  Fe  Fe106     1.0  0.02647  0.74753  0.36653  1.0000
  C   C625      1.0  0.41108  0.61134  0.55076  1.0000
  H   H616      1.0  0.11652  0.74481  0.46303  1.0000
  H   H617      1.0  0.32270  0.55957  0.57603  1.0000
  H   H618      1.0  0.33545  0.57020  0.63147  1.0000
  C   C626      1.0  0.29983  0.55638  0.59789  1.0000
  H   H619      1.0  0.09118  0.73428  0.37404  1.0000
  C   C627      1.0  0.42428  0.60045  0.53903  1.0000
  Fe  Fe107     1.0  0.48779  0.52496  0.52001  1.0000
  H   H620      1.0  0.22444  0.53178  0.48253  1.0000
  H   H621      1.0  0.21145  0.52556  0.46387  1.0000
  H   H622      1.0  0.18457  0.50364  0.35564  1.0000
  C   C628      1.0  0.43285  0.63494  0.66061  1.0000
  H   H623      1.0  0.47726  0.53464  0.43404  1.0000
  Fe  Fe108     1.0  0.11404  0.74911  0.51309  1.0000
  H   H624      1.0  0.40697  0.63529  0.56825  1.0000
  C   C629      1.0  0.43846  0.65833  0.63538  1.0000
  C   C630      1.0  0.22202  0.66860  0.56031  1.0000
  C   C631      1.0  0.31858  0.55989  0.59111  1.0000
  N   N54       1.0  0.23822  0.50894  0.46679  1.0000
  C   C632      1.0  0.43607  0.63091  0.55585  1.0000
  H   H625      1.0  0.23889  0.62840  0.58194  1.0000
  H   H626      1.0  0.17589  0.52102  0.49144  1.0000
  H   H627      1.0  0.03293  0.74901  0.61846  1.0000
  H   H628      1.0  0.22184  0.51106  0.58053  1.0000
  C   C633      1.0  0.48371  0.52003  0.43446  1.0000
  N   N55       1.0  0.42933  0.65303  0.65257  1.0000
  H   H629      1.0  0.07994  0.71416  0.55796  1.0000
  C   C634      1.0  0.09146  0.73303  0.34391  1.0000
  C   C635      1.0  0.44893  0.61967  0.54409  1.0000
  H   H630      1.0  0.45834  0.64957  0.61197  1.0000
  H   H631      1.0  0.24815  0.63968  0.56011  1.0000
  H   H632      1.0  0.30254  0.56393  0.64419  1.0000
  H   H633      1.0  0.44832  0.60720  0.65786  1.0000
  H   H634      1.0  0.02063  0.68289  0.33956  1.0000
  H   H635      1.0  0.07613  0.69420  0.39146  1.0000
  C   C636      1.0  0.45530  0.62691  0.63397  1.0000
  H   H636      1.0  0.22864  0.62497  0.56018  1.0000
  C   C637      1.0  0.15713  0.55123  0.65917  1.0000
  C   C638      1.0  0.10272  0.74912  0.45766  1.0000
  H   H637      1.0  0.18760  0.53718  0.51744  1.0000
  H   H638      1.0  0.46515  0.61658  0.62659  1.0000
  H   H639      1.0  0.23376  0.66994  0.54940  1.0000
  C   C639      1.0  0.10074  0.74971  0.43801  1.0000
  H   H640      1.0  0.45915  0.60152  0.50938  1.0000
  C   C640      1.0  0.06103  0.74481  0.60322  1.0000
  H   H641      1.0  0.35229  0.58401  0.59702  1.0000
  C   C641      1.0  0.22615  0.52706  0.46784  1.0000
  H   H642      1.0  0.06028  0.69949  0.55786  1.0000
  H   H643      1.0  0.27939  0.55544  0.62246  1.0000
  C   C642      1.0  0.44595  0.62165  0.65152  1.0000
  S   S214      1.0  0.14759  0.74415  0.55475  1.0000
  H   H644      1.0  0.20873  0.69697  0.55331  1.0000
  H   H645      1.0  0.35417  0.56539  0.58090  1.0000
  Fe  Fe109     1.0  0.11538  0.74380  0.55617  1.0000
  H   H646      1.0  0.10058  0.74458  0.34071  1.0000
  H   H647      1.0  0.14261  0.55622  0.65610  1.0000
  H   H648      1.0  0.11308  0.74575  0.42837  1.0000
  H   H649      1.0  0.13949  0.52493  0.60066  1.0000
  C   C643      1.0  0.47304  0.50532  0.43079  1.0000
  S   S215      1.0  0.41460  0.74686  0.62087  1.0000
  H   H650      1.0  0.07154  0.73435  0.53051  1.0000
  C   C644      1.0  0.16489  0.51880  0.61570  1.0000
  C   C645      1.0  0.21522  0.50704  0.59496  1.0000
  H   H651      1.0  0.40029  0.66347  0.65849  1.0000
  C   C646      1.0  0.18461  0.51357  0.58052  1.0000
  H   H652      1.0  0.23262  0.53822  0.45814  1.0000
  H   H653      1.0  0.22208  0.51490  0.60509  1.0000
  N   N56       1.0  0.19440  0.51196  0.59644  1.0000
  C   C647      1.0  0.02306  0.74997  0.55766  1.0000
  H   H654      1.0  0.48109  0.50916  0.56167  1.0000
  H   H655      1.0  0.19216  0.51145  0.56670  1.0000
  C   C648      1.0  0.25289  0.50492  0.47830  1.0000
  C   C649      1.0  0.07275  0.70953  0.33368  1.0000
  S   S216      1.0  0.25725  0.63184  0.97729  1.0000
  S   S217      1.0  0.01501  0.59687  0.74887  1.0000
  H   H656      1.0  0.00385  0.69323  0.70301  1.0000
  S   S218      1.0  0.47475  0.71678  0.89971  1.0000
  H   H657      1.0  0.46544  0.59721  0.86683  1.0000
  Fe  Fe110     1.0  0.47829  0.71952  0.86771  1.0000
  S   S219      1.0  0.47681  0.69776  0.84552  1.0000
  C   C650      1.0  0.43173  0.68947  0.81399  1.0000
  H   H658      1.0  0.31604  0.58995  0.79834  1.0000
  H   H659      1.0  0.07022  0.55428  0.80702  1.0000
  S   S220      1.0  0.23740  0.52420  0.89974  1.0000
  Fe  Fe111     1.0  0.28076  0.54707  0.87264  1.0000
  S   S221      1.0  0.25200  0.56365  0.87966  1.0000
  S   S222      1.0  0.30309  0.56525  0.85654  1.0000
  Fe  Fe112     1.0  0.25264  0.54820  0.90844  1.0000
  S   S223      1.0  0.24016  0.55868  0.93699  1.0000
  Fe  Fe113     1.0  0.23893  0.53846  0.87033  1.0000
  S   S224      1.0  0.21015  0.54207  0.85723  1.0000
  S   S225      1.0  0.28212  0.53325  0.90233  1.0000
  S   S226      1.0  0.26744  0.52284  0.86141  1.0000
  Fe  Fe114     1.0  0.43561  0.59976  0.82108  1.0000
  S   S227      1.0  0.44037  0.56807  0.82834  1.0000
  S   S228      1.0  0.43713  0.62037  0.84414  1.0000
  Fe  Fe115     1.0  0.42422  0.59384  0.78122  1.0000
  S   S229      1.0  0.42862  0.56185  0.78550  1.0000
  S   S230      1.0  0.41033  0.61215  0.75729  1.0000
  Fe  Fe116     1.0  0.41312  0.56592  0.81451  1.0000
  S   S231      1.0  0.39082  0.54572  0.82645  1.0000
  Fe  Fe117     1.0  0.45550  0.56630  0.79907  1.0000
  S   S232      1.0  0.48615  0.55204  0.79329  1.0000
  S   S233      1.0  0.40725  0.59753  0.80948  1.0000
  S   S234      1.0  0.45224  0.59838  0.79260  1.0000
  H   H660      1.0  0.16215  0.56909  0.70900  1.0000
  S   S235      1.0  0.12681  0.52517  0.78130  1.0000
  Fe  Fe118     1.0  0.13933  0.53223  0.72656  1.0000
  S   S236      1.0  0.14798  0.55180  0.74715  1.0000
  S   S237      1.0  0.14069  0.54022  0.69451  1.0000
  Fe  Fe119     1.0  0.15591  0.52498  0.76525  1.0000
  C   C651      1.0  0.37764  0.56640  0.77843  1.0000
  Fe  Fe120     1.0  0.11820  0.55031  0.76154  1.0000
  S   S238      1.0  0.09969  0.57579  0.77316  1.0000
  C   C652      1.0  0.43597  0.71436  0.95894  1.0000
  S   S239      1.0  0.10890  0.53270  0.73996  1.0000
  C   C653      1.0  0.16052  0.54262  0.67727  1.0000
  C   C654      1.0  0.29355  0.58312  0.97186  1.0000
  C   C655      1.0  0.12333  0.58601  0.69805  1.0000
  H   H661      1.0  0.25938  0.54619  0.99344  1.0000
  H   H662      1.0  0.18221  0.52957  0.69485  1.0000
  C   C656      1.0  0.26930  0.55640  0.98766  1.0000
  C   C657      1.0  0.48631  0.51289  0.80319  1.0000
  H   H663      1.0  0.47088  0.51528  0.80581  1.0000
  C   C658      1.0  0.20365  0.53608  0.83491  1.0000
  C   C659      1.0  0.21706  0.52805  0.82124  1.0000
  H   H664      1.0  0.16736  0.59377  0.70672  1.0000
  C   C660      1.0  0.19173  0.52663  0.79988  1.0000
  C   C661      1.0  0.17836  0.53474  0.81353  1.0000
  C   C662      1.0  0.18430  0.53938  0.83093  1.0000
  S   S240      1.0  0.46073  0.74806  0.86533  1.0000
  H   H665      1.0  0.00818  0.56113  0.77849  1.0000
  H   H666      1.0  0.17377  0.54558  0.84134  1.0000
  C   C663      1.0  0.32809  0.55969  0.85053  1.0000
  C   C664      1.0  0.33678  0.54098  0.85176  1.0000
  C   C665      1.0  0.35619  0.53706  0.84492  1.0000
  C   C666      1.0  0.36718  0.55176  0.83690  1.0000
  C   C667      1.0  0.35863  0.57053  0.83616  1.0000
  C   C668      1.0  0.33920  0.57443  0.84291  1.0000
  H   H667      1.0  0.32845  0.52948  0.85756  1.0000
  H   H668      1.0  0.36265  0.52249  0.84557  1.0000
  H   H669      1.0  0.36685  0.58198  0.83004  1.0000
  H   H670      1.0  0.33263  0.58895  0.84189  1.0000
  C   C669      1.0  0.46703  0.67540  0.84616  1.0000
  C   C670      1.0  0.45584  0.66823  0.86193  1.0000
  C   C671      1.0  0.44723  0.65112  0.86119  1.0000
  C   C672      1.0  0.44960  0.64101  0.84468  1.0000
  C   C673      1.0  0.46113  0.64793  0.82903  1.0000
  C   C674      1.0  0.46982  0.66500  0.82982  1.0000
  H   H671      1.0  0.45360  0.67602  0.87461  1.0000
  H   H672      1.0  0.43839  0.64586  0.87340  1.0000
  H   H673      1.0  0.46316  0.64032  0.81626  1.0000
  H   H674      1.0  0.27599  0.54244  0.96148  1.0000
  H   H675      1.0  0.20187  0.57841  0.87170  1.0000
  C   C675      1.0  0.03883  0.59241  0.75518  1.0000
  C   C676      1.0  0.04564  0.60163  0.76958  1.0000
  C   C677      1.0  0.06450  0.59674  0.77468  1.0000
  C   C678      1.0  0.07652  0.58243  0.76565  1.0000
  C   C679      1.0  0.06977  0.57350  0.75106  1.0000
  C   C680      1.0  0.05109  0.57859  0.74575  1.0000
  H   H676      1.0  0.03633  0.61240  0.77685  1.0000
  H   H677      1.0  0.06965  0.60381  0.78593  1.0000
  H   H678      1.0  0.07891  0.56269  0.74379  1.0000
  H   H679      1.0  0.04595  0.57149  0.73452  1.0000
  C   C681      1.0  0.25140  0.61214  0.96571  1.0000
  C   C682      1.0  0.25997  0.60893  0.94737  1.0000
  C   C683      1.0  0.25657  0.59274  0.93822  1.0000
  C   C684      1.0  0.24439  0.57973  0.94731  1.0000
  C   C685      1.0  0.23533  0.58328  0.96536  1.0000
  C   C686      1.0  0.23886  0.59936  0.97455  1.0000
  H   H680      1.0  0.26963  0.61881  0.94040  1.0000
  H   H681      1.0  0.26356  0.59020  0.92429  1.0000
  H   H682      1.0  0.22573  0.57339  0.97241  1.0000
  H   H683      1.0  0.37087  0.71828  0.98617  1.0000
  H   H684      1.0  0.20898  0.53266  0.66963  1.0000
  C   C687      1.0  0.43144  0.67701  0.79965  1.0000
  H   H685      1.0  0.08463  0.60298  0.72634  1.0000
  C   C688      1.0  0.04162  0.56836  0.80810  1.0000
  C   C689      1.0  0.40918  0.59849  0.69481  1.0000
  C   C690      1.0  0.39830  0.61448  0.70192  1.0000
  C   C691      1.0  0.39876  0.61839  0.72107  1.0000
  C   C692      1.0  0.40988  0.60629  0.73340  1.0000
  C   C693      1.0  0.42054  0.59018  0.72634  1.0000
  C   C694      1.0  0.42025  0.58639  0.70715  1.0000
  H   H686      1.0  0.38964  0.62388  0.69266  1.0000
  H   H687      1.0  0.39040  0.63086  0.72639  1.0000
  H   H688      1.0  0.42922  0.58076  0.73558  1.0000
  H   H689      1.0  0.42876  0.57400  0.70182  1.0000
  C   C695      1.0  0.38270  0.72508  0.99153  1.0000
  C   C696      1.0  0.41150  0.65748  0.81994  1.0000
  C   C697      1.0  0.02151  0.55913  0.78532  1.0000
  H   H690      1.0  0.40430  0.64452  0.82274  1.0000
  H   H691      1.0  0.23192  0.60184  0.98851  1.0000
  H   H692      1.0  0.33198  0.53023  0.81015  1.0000
  N   N57       1.0  0.42125  0.66136  0.80269  1.0000
  H   H693      1.0  0.42239  0.69490  0.84299  1.0000
  H   H694      1.0  0.36448  0.53432  0.79473  1.0000
  H   H695      1.0  0.15988  0.58303  0.68692  1.0000
  H   H696      1.0  0.40419  0.66620  0.84839  1.0000
  H   H697      1.0  0.21750  0.60776  0.86162  1.0000
  H   H698      1.0  0.48802  0.53272  0.85815  1.0000
  N   N58       1.0  0.35839  0.56411  0.78770  1.0000
  H   H699      1.0  0.41533  0.66476  0.67757  1.0000
  Fe  Fe121     1.0  0.11888  0.50730  0.75877  1.0000
  Fe  Fe122     1.0  0.26663  0.51026  0.89177  1.0000
  H   H700      1.0  0.44959  0.71262  0.95039  1.0000
  C   C698      1.0  0.00696  0.71373  0.99265  1.0000
  C   C699      1.0  0.34498  0.57953  0.78845  1.0000
  H   H701      1.0  0.34867  0.59347  0.78260  1.0000
  H   H702      1.0  0.38833  0.55522  0.78405  1.0000
  C   C700      1.0  0.35374  0.54648  0.79495  1.0000
  C   C701      1.0  0.27873  0.55413  0.96961  1.0000
  H   H703      1.0  0.30243  0.59407  0.96559  1.0000
  N   N59       1.0  0.13763  0.58916  0.70891  1.0000
  N   N60       1.0  0.40105  0.72067  0.98044  1.0000
  H   H704      1.0  0.40967  0.63906  0.78980  1.0000
  H   H705      1.0  0.37895  0.74074  0.99094  1.0000
  H   H706      1.0  0.08354  0.53699  0.77923  1.0000
  C   C702      1.0  0.50062  0.57039  0.83082  1.0000
  H   H707      1.0  0.47851  0.67039  0.81756  1.0000
  N   N61       1.0  0.20456  0.58049  0.90116  1.0000
  C   C703      1.0  0.20663  0.58661  0.88238  1.0000
  C   C704      1.0  0.21013  0.59114  0.91461  1.0000
  C   C705      1.0  0.21540  0.60328  0.87658  1.0000
  C   C706      1.0  0.21900  0.60784  0.90933  1.0000
  C   C707      1.0  0.22177  0.61385  0.89016  1.0000
  C   C708      1.0  0.19578  0.56278  0.90710  1.0000
  H   H708      1.0  0.38247  0.58039  0.78112  1.0000
  H   H709      1.0  0.20814  0.58647  0.92953  1.0000
  H   H710      1.0  0.16344  0.53737  0.81069  1.0000
  H   H711      1.0  0.22392  0.61588  0.92007  1.0000
  H   H712      1.0  0.22889  0.62663  0.88586  1.0000
  H   H713      1.0  0.20344  0.55472  0.91870  1.0000
  H   H714      1.0  0.29788  0.56628  0.94749  1.0000
  S   S241      1.0  0.14877  0.50514  0.74371  1.0000
  H   H715      1.0  0.09276  0.58819  0.69557  1.0000
  C   C709      1.0  0.10407  0.59096  0.70410  1.0000
  H   H716      1.0  0.01614  0.71464  0.97957  1.0000
  H   H717      1.0  0.03459  0.53781  0.76704  1.0000
  H   H718      1.0  0.44040  0.70149  0.81185  1.0000
  Fe  Fe123     1.0  0.45898  0.74616  0.89732  1.0000
  H   H719      1.0  0.47748  0.53631  0.83568  1.0000
  C   C710      1.0  0.05641  0.55529  0.80115  1.0000
  N   N62       1.0  0.05382  0.54452  0.78656  1.0000
  H   H720      1.0  0.23202  0.52561  0.82393  1.0000
  H   H721      1.0  0.06798  0.52724  0.76492  1.0000
  N   N63       1.0  0.48929  0.56042  0.84399  1.0000
  H   H722      1.0  0.14447  0.59839  0.73518  1.0000
  H   H723      1.0  0.22156  0.51710  0.79341  1.0000
  H   H724      1.0  0.01273  0.58089  0.80480  1.0000
  H   H725      1.0  0.41904  0.71383  0.93528  1.0000
  C   C711      1.0  0.41785  0.72041  0.98880  1.0000
  H   H726      1.0  0.43546  0.63843  0.78779  1.0000
  H   H727      1.0  0.04392  0.57734  0.81922  1.0000
  C   C712      1.0  0.21109  0.52330  0.80389  1.0000
  C   C713      1.0  0.09951  0.59915  0.72139  1.0000
  C   C714      1.0  0.41138  0.66970  0.83454  1.0000
  C   C715      1.0  0.43554  0.71709  0.97823  1.0000
  C   C716      1.0  0.40134  0.71823  0.96148  1.0000
  C   C717      1.0  0.29095  0.56758  0.96171  1.0000
  H   H728      1.0  0.48613  0.61543  0.84328  1.0000
  C   C718      1.0  0.42195  0.64802  0.78776  1.0000
  C   C719      1.0  0.02410  0.57032  0.80004  1.0000
  H   H729      1.0  0.19670  0.55321  0.89527  1.0000
  C   C720      1.0  0.49973  0.59029  0.83039  1.0000
  S   S242      1.0  0.18509  0.52026  0.77776  1.0000
  C   C721      1.0  0.17936  0.53624  0.68102  1.0000
  C   C722      1.0  0.42161  0.68577  0.83152  1.0000
  H   H730      1.0  0.11066  0.60765  0.74635  1.0000
  C   C723      1.0  0.47680  0.56984  0.85683  1.0000
  H   H731      1.0  0.18046  0.56606  0.91213  1.0000
  C   C724      1.0  0.47564  0.58972  0.85689  1.0000
  H   H732      1.0  0.07004  0.51753  0.78897  1.0000
  H   H733      1.0  0.42125  0.65572  0.77355  1.0000
  C   C725      1.0  0.33536  0.54404  0.80365  1.0000
  C   C726      1.0  0.15774  0.58355  0.70259  1.0000
  H   H734      1.0  0.38807  0.71936  0.95465  1.0000
  C   C727      1.0  0.32171  0.55976  0.80486  1.0000
  C   C728      1.0  0.03658  0.54612  0.77879  1.0000
  H   H735      1.0  0.37771  0.56547  0.76288  1.0000
  C   C729      1.0  0.41879  0.71497  0.95046  1.0000
  C   C730      1.0  0.32649  0.57762  0.79716  1.0000
  C   C731      1.0  0.13323  0.59668  0.72614  1.0000
  H   H736      1.0  0.12674  0.57931  0.68475  1.0000
  H   H737      1.0  0.43980  0.67968  0.78625  1.0000
  H   H738      1.0  0.46732  0.56203  0.86683  1.0000
  C   C732      1.0  0.11414  0.60194  0.73255  1.0000
  C   C733      1.0  0.48950  0.53968  0.84359  1.0000
  C   C734      1.0  0.48717  0.59998  0.84356  1.0000
  C   C735      1.0  0.49696  0.52819  0.79676  1.0000
  H   H739      1.0  0.30768  0.55821  0.81234  1.0000
  C   C736      1.0  0.06953  0.53089  0.77961  1.0000
  C   C737      1.0  0.28387  0.58497  0.98985  1.0000
  H   H740      1.0  0.28539  0.59748  0.99733  1.0000
  H   H741      1.0  0.42532  0.63057  0.67403  1.0000
  H   H742      1.0  0.14086  0.72030  0.99473  1.0000
  N   N64       1.0  0.27207  0.57160  0.99759  1.0000
  H   H743      1.0  0.44881  0.71762  0.98476  1.0000
  S   S243      1.0  0.41033  0.59339  0.67053  1.0000
  H   H744      1.0  0.00743  0.75124  0.70129  1.0000
  Fe  Fe124     1.0  0.50119  0.73284  0.89878  1.0000
  H   H745      1.0  0.19894  0.50350  0.87543  1.0000
  C   C738      1.0  0.19452  0.53802  0.66667  1.0000
  Fe  Fe125     1.0  0.13173  0.90266  0.10463  1.0000
  S   S244      1.0  0.11037  0.92237  0.12115  1.0000
  S   S245      1.0  0.15793  0.91220  0.08618  1.0000
  Fe  Fe126     1.0  0.10884  0.86761  0.11538  1.0000
  S   S246      1.0  0.08610  0.88477  0.13303  1.0000
  S   S247      1.0  0.11057  0.83496  0.11579  1.0000
  Fe  Fe127     1.0  0.08806  0.90740  0.10870  1.0000
  S   S248      1.0  0.05982  0.92216  0.09919  1.0000
  Fe  Fe128     1.0  0.11004  0.89836  0.14406  1.0000
  S   S249      1.0  0.11540  0.89962  0.17520  1.0000
  S   S250      1.0  0.10936  0.88931  0.09042  1.0000
  S   S251      1.0  0.13289  0.87962  0.12811  1.0000
  H   H746      1.0  0.07849  0.89408  0.25777  1.0000
  C   C739      1.0  0.25984  0.95255  0.14745  1.0000
  S   S252      1.0  0.05127  0.97533  0.02346  1.0000
  Fe  Fe129     1.0  0.09349  0.95255  0.30244  1.0000
  H   H747      1.0  0.07348  0.87530  0.18060  1.0000
  Fe  Fe130     1.0  0.06858  0.93867  0.27392  1.0000
  S   S253      1.0  0.04529  0.93136  0.29679  1.0000
  S   S254      1.0  0.06248  0.93594  0.24326  1.0000
  Fe  Fe131     1.0  0.04935  0.95973  0.30771  1.0000
  S   S255      1.0  0.02487  0.97986  0.32084  1.0000
  Fe  Fe132     1.0  0.06949  0.91890  0.31395  1.0000
  H   H748      1.0  0.09949  0.86345  0.20093  1.0000
  S   S256      1.0  0.07127  0.96766  0.28408  1.0000
  S   S257      1.0  0.09251  0.92416  0.29026  1.0000
  Fe  Fe133     1.0  0.34316  0.99273  0.26523  1.0000
  C   C740      1.0  0.45775  0.98022  0.26169  1.0000
  Fe  Fe134     1.0  0.38082  0.96690  0.26320  1.0000
  S   S258      1.0  0.38900  0.97718  0.23325  1.0000
  S   S259      1.0  0.39924  0.94507  0.28051  1.0000
  Fe  Fe135     1.0  0.35816  0.97501  0.22784  1.0000
  S   S260      1.0  0.35146  0.95702  0.20405  1.0000
  C   C741      1.0  0.28850  0.99303  0.00539  1.0000
  S   S261      1.0  0.35065  0.96248  0.25756  1.0000
  Fe  Fe136     1.0  0.38637  0.76332  0.06367  1.0000
  Fe  Fe137     1.0  0.36112  0.79166  0.04009  1.0000
  C   C742      1.0  0.41814  0.90320  0.24091  1.0000
  S   S262      1.0  0.34078  0.81888  0.03672  1.0000
  H   H749      1.0  0.28004  0.91738  0.17674  1.0000
  H   H750      1.0  0.04052  0.89845  0.22889  1.0000
  S   S263      1.0  0.39265  0.78905  0.04433  1.0000
  S   S264      1.0  0.36561  0.77329  0.01515  1.0000
  Fe  Fe138     1.0  0.30062  0.95407  0.10683  1.0000
  S   S265      1.0  0.31748  0.94631  0.07941  1.0000
  S   S266      1.0  0.30929  0.97448  0.12743  1.0000
  Fe  Fe139     1.0  0.26666  0.93219  0.09904  1.0000
  S   S267      1.0  0.28116  0.92246  0.07135  1.0000
  S   S268      1.0  0.23878  0.92412  0.11562  1.0000
  Fe  Fe140     1.0  0.30799  0.91678  0.08662  1.0000
  S   S269      1.0  0.33060  0.89121  0.08601  1.0000
  Fe  Fe141     1.0  0.28960  0.95274  0.06588  1.0000
  S   S270      1.0  0.28612  0.96626  0.03574  1.0000
  S   S271      1.0  0.29303  0.92430  0.11485  1.0000
  S   S272      1.0  0.27320  0.96270  0.09271  1.0000
  C   C743      1.0  0.07153  0.87708  0.19574  1.0000
  S   S273      1.0  0.48529  0.91721  0.25214  1.0000
  S   S274      1.0  0.07456  0.77945  0.06439  1.0000
  S   S275      1.0  0.42357  0.76663  0.00108  1.0000
  C   C744      1.0  0.29293  0.98823  0.02423  1.0000
  C   C745      1.0  0.04340  0.00140  0.06424  1.0000
  H   H751      1.0  0.33392  0.00216  0.32908  1.0000
  H   H752      1.0  0.33931  0.92787  0.04324  1.0000
  H   H753      1.0  0.34795  0.86051  0.00881  1.0000
  C   C746      1.0  0.43959  0.97189  0.29120  1.0000
  H   H754      1.0  0.15615  0.86983  0.06495  1.0000
  H   H755      1.0  0.05300  0.89680  0.25830  1.0000
  C   C747      1.0  0.00858  0.92884  0.01381  1.0000
  H   H756      1.0  0.48914  0.81222  0.21694  1.0000
  H   H757      1.0  0.04192  0.87996  0.31430  1.0000
  C   C748      1.0  0.33641  0.83731  0.05264  1.0000
  C   C749      1.0  0.34881  0.83924  0.06652  1.0000
  C   C750      1.0  0.34628  0.85546  0.07719  1.0000
  C   C751      1.0  0.33128  0.86984  0.07423  1.0000
  C   C752      1.0  0.31837  0.86752  0.06093  1.0000
  C   C753      1.0  0.32100  0.85136  0.05015  1.0000
  H   H758      1.0  0.36072  0.82856  0.06860  1.0000
  H   H759      1.0  0.35630  0.85710  0.08749  1.0000
  H   H760      1.0  0.30671  0.87839  0.05857  1.0000
  H   H761      1.0  0.31129  0.84995  0.03949  1.0000
  C   C754      1.0  0.42300  0.93708  0.27229  1.0000
  C   C755      1.0  0.43395  0.92408  0.28392  1.0000
  C   C756      1.0  0.45301  0.91761  0.27790  1.0000
  C   C757      1.0  0.46120  0.92407  0.26015  1.0000
  C   C758      1.0  0.45015  0.93685  0.24843  1.0000
  C   C759      1.0  0.43116  0.94339  0.25448  1.0000
  H   H762      1.0  0.42772  0.91908  0.29770  1.0000
  H   H763      1.0  0.46139  0.90775  0.28703  1.0000
  H   H764      1.0  0.45640  0.94188  0.23466  1.0000
  H   H765      1.0  0.42289  0.95333  0.24538  1.0000
  C   C760      1.0  0.33983  0.96237  0.18272  1.0000
  C   C761      1.0  0.33710  0.94730  0.17167  1.0000
  C   C762      1.0  0.32805  0.95072  0.15462  1.0000
  C   C763      1.0  0.32168  0.96934  0.14831  1.0000
  C   C764      1.0  0.32442  0.98441  0.15935  1.0000
  C   C765      1.0  0.33337  0.98098  0.17646  1.0000
  C   C766      1.0  0.41580  0.91245  0.22300  1.0000
  H   H766      1.0  0.32601  0.93896  0.14637  1.0000
  C   C767      1.0  0.42658  0.99576  0.26850  1.0000
  H   H767      1.0  0.37604  0.85199  0.02738  1.0000
  C   C768      1.0  0.45633  0.96946  0.27909  1.0000
  H   H768      1.0  0.09561  0.86888  0.23519  1.0000
  C   C769      1.0  0.06592  0.88701  0.25435  1.0000
  H   H769      1.0  0.04368  0.89273  0.19474  1.0000
  N   N65       1.0  0.04164  0.93377  0.00485  1.0000
  H   H770      1.0  0.42796  0.91210  0.21240  1.0000
  C   C770      1.0  0.31066  0.97389  0.30917  1.0000
  C   C771      1.0  0.30290  0.99119  0.30083  1.0000
  H   H771      1.0  0.06505  0.87340  0.26319  1.0000
  H   H772      1.0  0.15940  0.97781  0.30599  1.0000
  H   H773      1.0  0.40857  0.92841  0.18993  1.0000
  H   H774      1.0  0.32442  0.96747  0.30351  1.0000
  C   C772      1.0  0.05486  0.88692  0.20367  1.0000
  C   C773      1.0  0.05770  0.93552  0.07725  1.0000
  C   C774      1.0  0.03933  0.94258  0.07214  1.0000
  C   C775      1.0  0.03709  0.95455  0.05553  1.0000
  C   C776      1.0  0.05324  0.95952  0.04389  1.0000
  C   C777      1.0  0.07157  0.95203  0.04871  1.0000
  C   C778      1.0  0.07381  0.94007  0.06533  1.0000
  H   H775      1.0  0.02680  0.93905  0.08128  1.0000
  H   H776      1.0  0.02290  0.96007  0.05187  1.0000
  H   H777      1.0  0.08415  0.95578  0.03975  1.0000
  H   H778      1.0  0.08802  0.93472  0.06914  1.0000
  C   C779      1.0  0.09972  0.81997  0.10167  1.0000
  C   C780      1.0  0.09085  0.82702  0.08538  1.0000
  C   C781      1.0  0.08312  0.81443  0.07425  1.0000
  C   C782      1.0  0.08391  0.79472  0.07937  1.0000
  C   C783      1.0  0.09270  0.78768  0.09571  1.0000
  C   C784      1.0  0.10065  0.80023  0.10670  1.0000
  H   H779      1.0  0.09002  0.84213  0.08128  1.0000
  H   H780      1.0  0.07639  0.82004  0.06163  1.0000
  H   H781      1.0  0.09346  0.77258  0.09985  1.0000
  H   H782      1.0  0.10748  0.79460  0.11925  1.0000
  C   C785      1.0  0.10161  0.91233  0.19319  1.0000
  C   C786      1.0  0.10836  0.91148  0.21131  1.0000
  C   C787      1.0  0.09697  0.91950  0.22663  1.0000
  C   C788      1.0  0.07862  0.92835  0.22398  1.0000
  C   C789      1.0  0.07215  0.92980  0.20572  1.0000
  C   C790      1.0  0.08360  0.92189  0.19036  1.0000
  H   H783      1.0  0.12233  0.90420  0.21359  1.0000
  H   H784      1.0  0.10220  0.91841  0.24056  1.0000
  H   H785      1.0  0.05801  0.93669  0.20352  1.0000
  H   H786      1.0  0.07826  0.92269  0.17649  1.0000
  C   C791      1.0  0.18003  0.91629  0.09470  1.0000
  C   C792      1.0  0.18277  0.91447  0.11403  1.0000
  C   C793      1.0  0.20079  0.91710  0.12015  1.0000
  C   C794      1.0  0.21628  0.92153  0.10705  1.0000
  C   C795      1.0  0.21354  0.92337  0.08771  1.0000
  C   C796      1.0  0.19550  0.92078  0.08159  1.0000
  H   H787      1.0  0.17100  0.91106  0.12428  1.0000
  H   H788      1.0  0.20272  0.91569  0.13515  1.0000
  H   H789      1.0  0.22531  0.92679  0.07747  1.0000
  H   H790      1.0  0.19353  0.92226  0.06660  1.0000
  H   H791      1.0  0.38352  0.87383  0.05095  1.0000
  H   H792      1.0  0.49453  0.75803  0.24920  1.0000
  C   C797      1.0  0.13540  0.96760  0.32372  1.0000
  H   H793      1.0  0.00290  0.91271  0.04044  1.0000
  C   C798      1.0  0.01381  0.91841  0.03035  1.0000
  S   S276      1.0  0.07186  0.94670  0.32687  1.0000
  H   H794      1.0  0.45344  0.75827  0.13074  1.0000
  H   H795      1.0  0.17931  0.98059  0.33266  1.0000
  N   N66       1.0  0.18587  0.86245  0.10016  1.0000
  C   C799      1.0  0.17648  0.84925  0.11164  1.0000
  C   C800      1.0  0.17901  0.86938  0.08331  1.0000
  C   C801      1.0  0.15969  0.84276  0.10639  1.0000
  C   C802      1.0  0.16205  0.86350  0.07782  1.0000
  C   C803      1.0  0.15238  0.85007  0.08943  1.0000
  C   C804      1.0  0.20334  0.86907  0.10615  1.0000
  H   H796      1.0  0.18175  0.84393  0.12511  1.0000
  H   H797      1.0  0.18615  0.88017  0.07436  1.0000
  H   H798      1.0  0.15198  0.83262  0.11570  1.0000
  C   C805      1.0  0.39619  0.93191  0.20037  1.0000
  H   H799      1.0  0.13899  0.84564  0.08555  1.0000
  H   H800      1.0  0.20886  0.88064  0.09621  1.0000
  H   H801      1.0  0.20028  0.87502  0.12027  1.0000
  H   H802      1.0  0.21483  0.85713  0.10692  1.0000
  N   N67       1.0  0.34456  0.89946  0.03432  1.0000
  C   C806      1.0  0.35996  0.89477  0.04476  1.0000
  C   C807      1.0  0.34031  0.88750  0.02136  1.0000
  C   C808      1.0  0.37180  0.87787  0.04211  1.0000
  C   C809      1.0  0.35181  0.87045  0.01840  1.0000
  C   C810      1.0  0.42342  0.75748  0.09549  1.0000
  Fe  Fe142     1.0  0.02296  0.98848  0.01310  1.0000
  H   H803      1.0  0.01507  0.98179  0.09968  1.0000
  H   H804      1.0  0.09349  0.76167  0.03215  1.0000
  H   H805      1.0  0.32758  0.89074  0.01376  1.0000
  H   H806      1.0  0.17638  0.93268  0.30869  1.0000
  C   C811      1.0  0.12016  0.75949  0.04516  1.0000
  H   H807      1.0  0.10929  0.92399  0.33189  1.0000
  C   C812      1.0  0.01053  0.99935  0.31015  1.0000
  C   C813      1.0  0.42959  0.76047  0.11322  1.0000
  N   N68       1.0  0.06764  0.88350  0.23414  1.0000
  C   C814      1.0  0.08393  0.87365  0.22650  1.0000
  C   C815      1.0  0.05316  0.89008  0.22301  1.0000
  C   C816      1.0  0.08616  0.87036  0.20720  1.0000
  H   H808      1.0  0.32458  0.92264  0.02542  1.0000
  S   S277      1.0  0.39844  0.75945  0.09262  1.0000
  C   C817      1.0  0.26409  0.93421  0.15584  1.0000
  S   S278      1.0  0.12243  0.96441  0.30401  1.0000
  C   C818      1.0  0.04580  0.86890  0.32504  1.0000
  C   C819      1.0  0.38535  0.91403  0.25080  1.0000
  C   C820      1.0  0.27623  0.93159  0.17047  1.0000
  H   H809      1.0  0.26258  0.98613  0.12882  1.0000
  C   C821      1.0  0.03312  0.91545  0.03386  1.0000
  H   H810      1.0  0.41919  0.76560  0.12432  1.0000
  H   H811      1.0  0.45851  0.00149  0.23022  1.0000
  N   N69       1.0  0.26750  0.96783  0.15347  1.0000
  H   H812      1.0  0.34202  0.93284  0.17632  1.0000
  C   C822      1.0  0.33154  0.91652  0.03825  1.0000
  H   H813      1.0  0.47056  0.97773  0.25211  1.0000
  C   C823      1.0  0.26297  0.98689  0.14436  1.0000
  H   H814      1.0  0.04667  0.96835  0.10996  1.0000
  C   C824      1.0  0.38346  0.92298  0.23272  1.0000
  C   C825      1.0  0.44901  0.75635  0.11689  1.0000
  H   H815      1.0  0.40461  0.89760  0.26906  1.0000
  H   H816      1.0  0.29331  0.94550  0.18800  1.0000
  C   C826      1.0  0.28360  0.94733  0.17683  1.0000
  S   S279      1.0  0.37275  0.99619  0.27347  1.0000
  H   H817      1.0  0.30722  0.95205  0.33193  1.0000
  H   H818      1.0  0.07434  0.99693  0.06081  1.0000
  H   H819      1.0  0.25829  0.92210  0.15067  1.0000
  C   C827      1.0  0.03611  0.85218  0.32756  1.0000
  C   C828      1.0  0.02805  0.98570  0.09145  1.0000
  H   H820      1.0  0.36262  0.90364  0.05587  1.0000
  C   C829      1.0  0.30090  0.96521  0.32531  1.0000
  N   N70       1.0  0.44297  0.99319  0.25663  1.0000
  C   C830      1.0  0.36762  0.86563  0.02888  1.0000
  H   H821      1.0  0.33539  0.99274  0.18472  1.0000
  H   H822      1.0  0.43197  0.89604  0.24418  1.0000
  H   H823      1.0  0.43794  0.96305  0.30435  1.0000
  H   H824      1.0  0.41129  0.98666  0.29495  1.0000
  S   S280      1.0  0.35428  0.76706  0.06092  1.0000
  N   N71       1.0  0.39854  0.92203  0.21906  1.0000
  H   H825      1.0  0.39448  0.94761  0.20157  1.0000
  H   H826      1.0  0.36991  0.93089  0.22975  1.0000
  C   C831      1.0  0.15374  0.97423  0.32039  1.0000
  H   H827      1.0  0.02546  0.99867  0.28231  1.0000
  C   C832      1.0  0.27887  0.96549  0.16826  1.0000
  H   H828      1.0  0.07648  0.97608  0.09063  1.0000
  H   H829      1.0  0.03737  0.90758  0.04680  1.0000
  C   C833      1.0  0.30202  0.00117  0.03340  1.0000
  H   H830      1.0  0.25063  0.95440  0.13587  1.0000
  Fe  Fe143     1.0  0.39644  0.76847  0.02125  1.0000
  C   C834      1.0  0.27524  0.99067  0.32453  1.0000
  H   H831      1.0  0.14419  0.92240  0.30593  1.0000
  H   H832      1.0  0.46780  0.95871  0.28276  1.0000
  H   H833      1.0  0.37357  0.91539  0.26180  1.0000
  H   H834      1.0  0.31958  0.99888  0.15464  1.0000
  C   C835      1.0  0.06263  0.98246  0.08652  1.0000
  H   H835      1.0  0.48875  0.77132  0.22724  1.0000
  N   N72       1.0  0.02702  0.99731  0.07514  1.0000
  C   C836      1.0  0.40278  0.90402  0.25487  1.0000
  C   C837      1.0  0.14968  0.92167  0.31979  1.0000
  H   H836      1.0  0.38308  0.92788  0.19461  1.0000
  H   H837      1.0  0.30561  0.99771  0.04783  1.0000
  C   C838      1.0  0.42460  0.98511  0.28590  1.0000
  H   H838      1.0  0.06189  0.92112  0.02383  1.0000
  C   C839      1.0  0.04695  0.92317  0.02081  1.0000
  C   C840      1.0  0.28499  0.99933  0.30838  1.0000
  H   H839      1.0  0.09726  0.99192  0.32596  1.0000
  C   C841      1.0  0.06144  0.99418  0.06984  1.0000
  H   H840      1.0  0.28497  0.97759  0.17304  1.0000
  H   H841      1.0  0.02484  0.85053  0.31861  1.0000
  H   H842      1.0  0.24891  0.99325  0.15053  1.0000
  C   C842      1.0  0.04586  0.97816  0.09743  1.0000
  H   H843      1.0  0.32021  0.91276  0.04951  1.0000
  C   C843      1.0  0.08634  0.00025  0.31820  1.0000
  C   C844      1.0  0.50036  0.76675  0.23670  1.0000
  H   H844      1.0  0.26165  0.99727  0.33040  1.0000
  H   H845      1.0  0.24619  0.00132  0.03125  1.0000
  C   C845      1.0  0.10773  0.75420  0.03273  1.0000
  H   H846      1.0  0.00390  0.99408  0.05888  1.0000
  H   H847      1.0  0.11552  0.77098  0.05436  1.0000
  H   H848      1.0  0.27430  0.99641  0.14605  1.0000
  H   H849      1.0  0.43309  0.00042  0.22945  1.0000
  H   H850      1.0  0.11890  0.90223  0.32140  1.0000
  C   C846      1.0  0.16788  0.92756  0.32126  1.0000
  H   H851      1.0  0.14817  0.75385  0.05543  1.0000
  C   C847      1.0  0.02278  0.93638  0.00111  1.0000
  Fe  Fe144     1.0  0.24614  0.97554  0.37223  1.0000
  H   H852      1.0  0.47741  0.82025  0.53560  1.0000
  H   H853      1.0  0.42650  0.80543  0.53723  1.0000
  Fe  Fe145     1.0  0.22720  0.97173  0.41280  1.0000
  S   S281      1.0  0.02817  0.81684  0.34391  1.0000
  S   S282      1.0  0.22415  0.96217  0.44423  1.0000
  Fe  Fe146     1.0  0.20226  0.97915  0.37857  1.0000
  S   S283      1.0  0.17230  0.97084  0.37371  1.0000
  C   C848      1.0  0.06704  0.76033  0.44341  1.0000
  S   S284      1.0  0.22497  0.95591  0.38694  1.0000
  S   S285      1.0  0.25025  0.98931  0.39900  1.0000
  H   H854      1.0  0.07465  0.79680  0.49623  1.0000
  S   S286      1.0  0.03280  0.79048  0.39648  1.0000
  C   C849      1.0  0.47073  0.82809  0.65016  1.0000
  C   C850      1.0  0.45006  0.82257  0.49654  1.0000
  Fe  Fe147     1.0  0.03018  0.79064  0.36510  1.0000
  H   H855      1.0  0.49417  0.83411  0.50604  1.0000
  H   H856      1.0  0.11345  0.90217  0.34646  1.0000
  N   N73       1.0  0.26545  0.98411  0.57763  1.0000
  H   H857      1.0  0.47625  0.81872  0.63917  1.0000
  H   H858      1.0  0.44900  0.77711  0.53032  1.0000
  S   S287      1.0  0.25188  0.97019  0.63664  1.0000
  C   C851      1.0  0.17455  0.92785  0.33912  1.0000
  Fe  Fe148     1.0  0.26757  0.88824  0.51884  1.0000
  S   S288      1.0  0.23704  0.88719  0.53088  1.0000
  S   S289      1.0  0.27543  0.89665  0.48783  1.0000
  Fe  Fe149     1.0  0.28400  0.87225  0.55604  1.0000
  S   S290      1.0  0.25433  0.87028  0.57086  1.0000
  S   S291      1.0  0.30870  0.86390  0.57470  1.0000
  Fe  Fe150     1.0  0.24675  0.85831  0.54423  1.0000
  S   S292      1.0  0.23549  0.82906  0.54298  1.0000
  Fe  Fe151     1.0  0.24722  0.89932  0.55638  1.0000
  S   S293      1.0  0.23004  0.92551  0.56823  1.0000
  S   S294      1.0  0.27698  0.85854  0.53046  1.0000
  S   S295      1.0  0.27722  0.90212  0.54327  1.0000
  Fe  Fe152     1.0  0.42563  0.77230  0.60256  1.0000
  S   S296      1.0  0.42824  0.77787  0.57093  1.0000
  Fe  Fe153     1.0  0.43693  0.81227  0.60903  1.0000
  S   S297      1.0  0.44026  0.82086  0.57752  1.0000
  S   S298      1.0  0.43594  0.83221  0.63327  1.0000
  Fe  Fe154     1.0  0.41294  0.80695  0.57588  1.0000
  S   S299      1.0  0.39051  0.81811  0.55530  1.0000
  Fe  Fe155     1.0  0.45533  0.79140  0.57448  1.0000
  S   S300      1.0  0.48238  0.78208  0.55542  1.0000
  S   S301      1.0  0.40850  0.80047  0.60725  1.0000
  S   S302      1.0  0.45382  0.78368  0.60619  1.0000
  S   S303      1.0  0.11169  0.76953  0.53610  1.0000
  S   S304      1.0  0.22340  0.99793  0.36231  1.0000
  Fe  Fe156     1.0  0.14401  0.76864  0.53259  1.0000
  S   S305      1.0  0.15494  0.79844  0.53065  1.0000
  H   H859      1.0  0.46774  0.76384  0.49220  1.0000
  H   H860      1.0  0.15215  0.79627  0.49058  1.0000
  C   C852      1.0  0.21268  0.82091  0.54041  1.0000
  C   C853      1.0  0.21136  0.80119  0.53991  1.0000
  C   C854      1.0  0.19380  0.79401  0.53731  1.0000
  C   C855      1.0  0.17731  0.80650  0.53500  1.0000
  C   C856      1.0  0.17863  0.82624  0.53551  1.0000
  C   C857      1.0  0.19612  0.83340  0.53837  1.0000
  H   H861      1.0  0.22401  0.79135  0.54149  1.0000
  H   H862      1.0  0.19307  0.77882  0.53692  1.0000
  H   H863      1.0  0.16595  0.83604  0.53388  1.0000
  H   H864      1.0  0.19676  0.84856  0.53903  1.0000
  C   C858      1.0  0.33161  0.85174  0.56872  1.0000
  C   C859      1.0  0.34411  0.84691  0.58307  1.0000
  C   C860      1.0  0.36212  0.83657  0.57925  1.0000
  C   C861      1.0  0.36790  0.83103  0.56095  1.0000
  C   C862      1.0  0.35538  0.83584  0.54658  1.0000
  C   C863      1.0  0.33732  0.84610  0.55043  1.0000
  H   H865      1.0  0.33987  0.85122  0.59726  1.0000
  H   H866      1.0  0.37161  0.83305  0.59042  1.0000
  H   H867      1.0  0.35972  0.83166  0.53237  1.0000
  H   H868      1.0  0.32786  0.84967  0.53925  1.0000
  C   C864      1.0  0.44982  0.77834  0.65910  1.0000
  S   S306      1.0  0.08859  0.75527  0.49496  1.0000
  H   H869      1.0  0.30007  0.95039  0.59130  1.0000
  C   C865      1.0  0.45191  0.83672  0.65019  1.0000
  H   H870      1.0  0.00591  0.84118  0.36980  1.0000
  C   C866      1.0  0.25944  0.97551  0.56292  1.0000
  H   H871      1.0  0.28274  0.82586  0.61685  1.0000
  C   C867      1.0  0.44506  0.84890  0.66463  1.0000
  C   C868      1.0  0.03626  0.76982  0.59489  1.0000
  C   C869      1.0  0.04881  0.77626  0.57968  1.0000
  C   C870      1.0  0.06726  0.76683  0.57604  1.0000
  H   H872      1.0  0.07671  0.85822  0.35914  1.0000
  H   H873      1.0  0.04413  0.78845  0.57051  1.0000
  H   H874      1.0  0.07668  0.77183  0.56419  1.0000
  C   C871      1.0  0.23582  0.93733  0.58778  1.0000
  C   C872      1.0  0.22617  0.95528  0.59142  1.0000
  C   C873      1.0  0.23091  0.96554  0.60631  1.0000
  C   C874      1.0  0.24514  0.95777  0.61791  1.0000
  C   C875      1.0  0.25454  0.93967  0.61450  1.0000
  C   C876      1.0  0.25004  0.92956  0.59941  1.0000
  H   H875      1.0  0.21504  0.96132  0.58259  1.0000
  H   H876      1.0  0.22339  0.97933  0.60894  1.0000
  H   H877      1.0  0.26548  0.93348  0.62348  1.0000
  H   H878      1.0  0.25751  0.91573  0.59682  1.0000
  H   H879      1.0  0.13582  0.91256  0.36591  1.0000
  N   N74       1.0  0.13857  0.91594  0.33567  1.0000
  C   C877      1.0  0.16303  0.92222  0.35525  1.0000
  C   C878      1.0  0.08686  0.75427  0.47026  1.0000
  H   H880      1.0  0.16778  0.92330  0.36922  1.0000
  H   H881      1.0  0.45896  0.76773  0.65137  1.0000
  C   C879      1.0  0.28007  0.97543  0.58757  1.0000
  C   C880      1.0  0.06056  0.87120  0.33636  1.0000
  Fe  Fe157     1.0  0.00903  0.77085  0.39980  1.0000
  H   H882      1.0  0.23791  0.99249  0.46389  1.0000
  C   C881      1.0  0.06533  0.85663  0.35030  1.0000
  C   C882      1.0  0.05558  0.83995  0.35289  1.0000
  C   C883      1.0  0.28268  0.94853  0.56823  1.0000
  H   H883      1.0  0.24765  0.98223  0.55524  1.0000
  H   H884      1.0  0.05949  0.82889  0.36362  1.0000
  C   C884      1.0  0.23905  0.94428  0.45603  1.0000
  C   C885      1.0  0.23508  0.94028  0.47563  1.0000
  C   C886      1.0  0.24634  0.92599  0.48560  1.0000
  C   C887      1.0  0.26174  0.91557  0.47603  1.0000
  C   C888      1.0  0.26577  0.91960  0.45644  1.0000
  C   C889      1.0  0.25447  0.93390  0.44645  1.0000
  H   H885      1.0  0.22315  0.94822  0.48314  1.0000
  H   H886      1.0  0.24304  0.92297  0.50066  1.0000
  H   H887      1.0  0.27764  0.91158  0.44893  1.0000
  H   H888      1.0  0.25767  0.93685  0.43136  1.0000
  C   C890      1.0  0.15812  0.97097  0.35417  1.0000
  C   C891      1.0  0.13953  0.96490  0.35752  1.0000
  C   C892      1.0  0.49891  0.81989  0.51159  1.0000
  C   C893      1.0  0.06324  0.99664  0.34609  1.0000
  S   S307      1.0  0.27289  0.96346  0.35491  1.0000
  H   H889      1.0  0.39454  0.79155  0.65075  1.0000
  H   H890      1.0  0.13398  0.96115  0.37192  1.0000
  H   H891      1.0  0.18825  0.93322  0.34057  1.0000
  C   C894      1.0  0.43096  0.78331  0.65450  1.0000
  N   N75       1.0  0.23721  0.86274  0.48621  1.0000
  C   C895      1.0  0.22087  0.86012  0.49779  1.0000
  C   C896      1.0  0.23767  0.87785  0.47296  1.0000
  C   C897      1.0  0.20472  0.87336  0.49692  1.0000
  C   C898      1.0  0.22180  0.89138  0.47168  1.0000
  C   C899      1.0  0.20530  0.88919  0.48387  1.0000
  C   C900      1.0  0.25416  0.84896  0.48751  1.0000
  H   H892      1.0  0.22039  0.84793  0.50803  1.0000
  H   H893      1.0  0.25059  0.87984  0.46366  1.0000
  H   H894      1.0  0.19197  0.87145  0.50649  1.0000
  H   H895      1.0  0.22252  0.90373  0.46158  1.0000
  H   H896      1.0  0.19305  0.89981  0.48326  1.0000
  H   H897      1.0  0.25504  0.83907  0.47600  1.0000
  H   H898      1.0  0.26744  0.85650  0.48628  1.0000
  H   H899      1.0  0.25371  0.84049  0.50142  1.0000
  C   C901      1.0  0.28887  0.95751  0.58305  1.0000
  C   C902      1.0  0.04096  0.83758  0.34144  1.0000
  S   S308      1.0  0.20329  0.99381  0.40545  1.0000
  N   N76       1.0  0.41949  0.79706  0.66379  1.0000
  C   C903      1.0  0.16508  0.97585  0.33549  1.0000
  H   H900      1.0  0.28867  0.99762  0.37363  1.0000
  S   S309      1.0  0.00458  0.77307  0.36874  1.0000
  H   H901      1.0  0.31902  0.98305  0.64597  1.0000
  H   H902      1.0  0.42569  0.77632  0.64322  1.0000
  C   C904      1.0  0.14494  0.91631  0.35327  1.0000
  C   C905      1.0  0.06904  0.75983  0.46302  1.0000
  C   C906      1.0  0.48247  0.83163  0.66439  1.0000
  N   N77       1.0  0.46206  0.79022  0.50490  1.0000
  C   C907      1.0  0.44921  0.78975  0.52061  1.0000
  C   C908      1.0  0.46247  0.80626  0.49279  1.0000
  C   C909      1.0  0.43655  0.80575  0.52470  1.0000
  C   C910      1.0  0.47492  0.77314  0.50064  1.0000
  C   C911      1.0  0.43701  0.82225  0.51262  1.0000
  H   H903      1.0  0.28464  0.98214  0.59940  1.0000
  H   H904      1.0  0.28545  0.97606  0.65488  1.0000
  C   C912      1.0  0.12824  0.96316  0.34243  1.0000
  H   H905      1.0  0.45070  0.83540  0.48714  1.0000
  H   H906      1.0  0.43057  0.85573  0.66480  1.0000
  S   S310      1.0  0.01266  0.78122  0.59782  1.0000
  C   C913      1.0  0.26789  0.95755  0.55806  1.0000
  Fe  Fe158     1.0  0.05256  0.76370  0.39287  1.0000
  H   H907      1.0  0.11973  0.78667  0.44427  1.0000
  H   H908      1.0  0.42728  0.83474  0.51585  1.0000
  C   C914      1.0  0.48938  0.81209  0.52840  1.0000
  H   H909      1.0  0.26250  0.95035  0.54696  1.0000
  H   H910      1.0  0.08147  0.82082  0.49711  1.0000
  S   S311      1.0  0.05171  0.76507  0.36102  1.0000
  H   H911      1.0  0.47281  0.80671  0.48044  1.0000
  N   N78       1.0  0.28599  0.82276  0.58709  1.0000
  C   C915      1.0  0.27527  0.82003  0.57258  1.0000
  C   C916      1.0  0.30529  0.81735  0.58583  1.0000
  C   C917      1.0  0.28384  0.81158  0.55633  1.0000
  C   C918      1.0  0.31434  0.80889  0.56977  1.0000
  C   C919      1.0  0.30352  0.80607  0.55491  1.0000
  C   C920      1.0  0.27708  0.83260  0.60359  1.0000
  H   H912      1.0  0.26003  0.82458  0.57339  1.0000
  H   H913      1.0  0.31394  0.82030  0.59694  1.0000
  H   H914      1.0  0.27524  0.80968  0.54480  1.0000
  H   H915      1.0  0.32977  0.80522  0.56861  1.0000
  H   H916      1.0  0.31045  0.79992  0.54220  1.0000
  H   H917      1.0  0.28027  0.84778  0.60198  1.0000
  H   H918      1.0  0.26123  0.83221  0.60510  1.0000
  H   H919      1.0  0.15125  0.78670  0.45770  1.0000
  N   N79       1.0  0.10406  0.80049  0.48805  1.0000
  C   C921      1.0  0.12131  0.80112  0.49533  1.0000
  C   C922      1.0  0.10345  0.79594  0.46975  1.0000
  C   C923      1.0  0.13853  0.79625  0.48451  1.0000
  C   C924      1.0  0.12038  0.79095  0.45854  1.0000
  C   C925      1.0  0.13802  0.79094  0.46607  1.0000
  C   C926      1.0  0.08613  0.80542  0.49964  1.0000
  H   H920      1.0  0.12186  0.80510  0.50972  1.0000
  H   H921      1.0  0.08978  0.79550  0.46393  1.0000
  H   H922      1.0  0.31952  0.98472  0.35791  1.0000
  H   H923      1.0  0.28898  0.93438  0.56493  1.0000
  H   H924      1.0  0.11416  0.95811  0.34528  1.0000
  H   H925      1.0  0.08792  0.80217  0.51499  1.0000
  H   H926      1.0  0.07249  0.98345  0.34991  1.0000
  C   C927      1.0  0.40014  0.80292  0.65807  1.0000
  H   H927      1.0  0.05321  0.76464  0.43808  1.0000
  H   H928      1.0  0.04816  0.99279  0.34805  1.0000
  C   C928      1.0  0.49511  0.79359  0.53558  1.0000
  C   C929      1.0  0.31303  0.98376  0.66057  1.0000
  H   H929      1.0  0.00800  0.83555  0.40434  1.0000
  C   C930      1.0  0.31283  0.99847  0.35286  1.0000
  H   H930      1.0  0.05665  0.76383  0.47260  1.0000
  H   H931      1.0  0.01965  0.77191  0.53511  1.0000
  H   H932      1.0  0.40054  0.81592  0.64817  1.0000
  H   H933      1.0  0.49702  0.82496  0.66414  1.0000
  S   S312      1.0  0.08107  0.75620  0.40591  1.0000
  Fe  Fe159     1.0  0.24402  0.00175  0.64070  1.0000
  H   H934      1.0  0.00971  0.75463  0.56570  1.0000
  H   H935      1.0  0.05084  0.76150  0.51738  1.0000
  C   C931      1.0  0.08289  0.75533  0.43078  1.0000
  C   C932      1.0  0.02874  0.75978  0.54057  1.0000
  H   H936      1.0  0.48851  0.77701  0.49262  1.0000
  H   H937      1.0  0.47901  0.76499  0.51395  1.0000
  C   C933      1.0  0.29401  0.97990  0.66569  1.0000
  C   C934      1.0  0.04245  0.75407  0.60669  1.0000
  C   C935      1.0  0.25642  0.00296  0.58239  1.0000
  C   C936      1.0  0.04624  0.75405  0.53072  1.0000
  S   S313      1.0  0.07367  0.89175  0.33356  1.0000
  C   C937      1.0  0.11915  0.91084  0.33381  1.0000
  C   C938      1.0  0.28333  0.97372  0.33327  1.0000
  C   C939      1.0  0.01856  0.97150  0.69522  1.0000
  S   S314      1.0  0.47600  0.88948  0.77133  1.0000
  Fe  Fe160     1.0  0.48388  0.86433  0.72326  1.0000
  S   S315      1.0  0.45494  0.86929  0.73922  1.0000
  H   H938      1.0  0.28154  0.98310  0.99812  1.0000
  Fe  Fe161     1.0  0.46358  0.89841  0.74358  1.0000
  S   S316      1.0  0.44605  0.92623  0.73577  1.0000
  Fe  Fe162     1.0  0.47001  0.85976  0.76559  1.0000
  S   S317      1.0  0.45644  0.83828  0.78714  1.0000
  C   C940      1.0  0.44308  0.76213  0.96627  1.0000
  H   H939      1.0  0.38996  0.80613  0.67058  1.0000
  H   H940      1.0  0.47167  0.78427  0.67664  1.0000
  H   H941      1.0  0.47441  0.83249  0.86060  1.0000
  C   C941      1.0  0.46990  0.82264  0.80274  1.0000
  C   C942      1.0  0.46129  0.80717  0.81252  1.0000
  C   C943      1.0  0.47070  0.79563  0.82656  1.0000
  C   C944      1.0  0.48877  0.79960  0.83108  1.0000
  H   H942      1.0  0.44714  0.80426  0.80937  1.0000
  H   H943      1.0  0.46383  0.78390  0.83411  1.0000
  Fe  Fe163     1.0  0.48820  0.76131  0.86685  1.0000
  H   H944      1.0  0.05074  0.95586  0.98489  1.0000
  C   C945      1.0  0.43112  0.80247  0.86963  1.0000
  H   H945      1.0  0.44700  0.78623  0.89094  1.0000
  H   H946      1.0  0.48964  0.96106  0.75092  1.0000
  H   H947      1.0  0.43802  0.84245  0.82675  1.0000
  C   C946      1.0  0.46246  0.80906  0.87706  1.0000
  C   C947      1.0  0.40557  0.96397  0.77496  1.0000
  C   C948      1.0  0.41398  0.94634  0.78225  1.0000
  C   C949      1.0  0.42634  0.93443  0.77044  1.0000
  C   C950      1.0  0.43016  0.94005  0.75123  1.0000
  C   C951      1.0  0.42162  0.95759  0.74398  1.0000
  C   C952      1.0  0.40943  0.96950  0.75576  1.0000
  H   H948      1.0  0.41104  0.94192  0.79708  1.0000
  H   H949      1.0  0.43282  0.92091  0.77616  1.0000
  H   H950      1.0  0.42444  0.96200  0.72912  1.0000
  H   H951      1.0  0.40291  0.98289  0.74990  1.0000
  S   S318      1.0  0.39094  0.97916  0.79024  1.0000
  C   C953      1.0  0.35324  0.00140  0.82603  1.0000
  H   H952      1.0  0.45119  0.86172  0.68989  1.0000
  N   N80       1.0  0.28621  0.98131  0.68398  1.0000
  H   H953      1.0  0.41889  0.82115  0.84765  1.0000
  S   S319      1.0  0.01875  0.98934  0.98205  1.0000
  H   H954      1.0  0.45072  0.80932  0.69322  1.0000
  C   C954      1.0  0.43116  0.81786  0.85592  1.0000
  C   C955      1.0  0.26616  0.97771  0.68923  1.0000
  C   C956      1.0  0.44485  0.75923  0.94678  1.0000
  H   H955      1.0  0.07537  0.00084  0.70206  1.0000
  H   H956      1.0  0.01248  0.99390  0.67366  1.0000
  C   C957      1.0  0.41027  0.76347  0.94680  1.0000
  S   S320      1.0  0.48504  0.76184  0.89865  1.0000
  H   H957      1.0  0.25837  0.99014  0.69622  1.0000
  H   H958      1.0  0.45585  0.76149  0.97379  1.0000
  S   S321      1.0  0.49186  0.89414  0.72583  1.0000
  S   S322      1.0  0.49849  0.85305  0.74942  1.0000
  H   H959      1.0  0.39447  0.76894  0.97380  1.0000
  C   C958      1.0  0.44687  0.79813  0.88028  1.0000
  C   C959      1.0  0.04400  0.97651  0.71435  1.0000
  H   H960      1.0  0.43548  0.98324  0.80022  1.0000
  H   H961      1.0  0.25850  0.97557  0.67665  1.0000
  H   H962      1.0  0.47147  0.95708  0.73545  1.0000
  H   H963      1.0  0.49489  0.83828  0.79963  1.0000
  H   H964      1.0  0.32461  0.99401  0.70380  1.0000
  C   C960      1.0  0.48817  0.82632  0.80694  1.0000
  H   H965      1.0  0.37231  0.99431  0.86843  1.0000
  H   H966      1.0  0.01858  0.94451  0.98830  1.0000
  C   C961      1.0  0.49749  0.81491  0.82113  1.0000
  C   C962      1.0  0.47556  0.84374  0.67889  1.0000
  C   C963      1.0  0.46203  0.82433  0.86327  1.0000
  H   H967      1.0  0.29076  0.98752  0.71202  1.0000
  C   C964      1.0  0.45774  0.99039  0.74873  1.0000
  N   N81       1.0  0.44653  0.82850  0.85285  1.0000
  C   C965      1.0  0.31620  0.98976  0.69304  1.0000
  C   C966      1.0  0.44595  0.84505  0.83902  1.0000
  H   H968      1.0  0.46367  0.99239  0.73414  1.0000
  C   C967      1.0  0.02161  0.98867  0.68480  1.0000
  H   H969      1.0  0.39751  0.76396  0.93930  1.0000
  C   C968      1.0  0.45400  0.97091  0.77740  1.0000
  C   C969      1.0  0.44510  0.80152  0.68271  1.0000
  N   N82       1.0  0.46154  0.97343  0.75900  1.0000
  H   H970      1.0  0.46063  0.84800  0.83298  1.0000
  H   H971      1.0  0.01698  0.78439  0.69569  1.0000
  H   H972      1.0  0.05245  0.97180  0.72615  1.0000
  C   C970      1.0  0.42638  0.80627  0.67760  1.0000
  C   C971      1.0  0.32414  0.98879  0.67436  1.0000
  C   C972      1.0  0.36651  0.99540  0.83917  1.0000
  H   H973      1.0  0.02712  0.95227  0.71857  1.0000
  H   H974      1.0  0.43890  0.85787  0.84580  1.0000
  C   C973      1.0  0.45690  0.78754  0.67330  1.0000
  H   H975      1.0  0.47229  0.94404  0.75784  1.0000
  H   H976      1.0  0.45677  0.95739  0.78547  1.0000
  C   C974      1.0  0.36189  0.99891  0.85828  1.0000
  C   C975      1.0  0.03578  0.99958  0.68956  1.0000
  C   C976      1.0  0.29708  0.98601  0.69762  1.0000
  C   C977      1.0  0.42492  0.76530  0.97621  1.0000
  H   H977      1.0  0.47501  0.80547  0.88491  1.0000
  C   C978      1.0  0.45673  0.85231  0.67893  1.0000
  S   S323      1.0  0.49099  0.84762  0.69654  1.0000
  S   S324      1.0  0.50027  0.78677  0.84997  1.0000
  H   H978      1.0  0.26543  0.96475  0.69906  1.0000
  C   C979      1.0  0.40850  0.76623  0.96635  1.0000
  H   H979      1.0  0.00653  0.98328  0.75022  1.0000
  H   H980      1.0  0.41765  0.81786  0.68426  1.0000
  C   C980      1.0  0.47446  0.95823  0.75042  1.0000
  C   C981      1.0  0.42843  0.75964  0.93702  1.0000
  H   H981      1.0  0.06056  0.93189  0.97984  1.0000
  H   H982      1.0  0.41904  0.79389  0.87199  1.0000
  N   N83       1.0  0.04655  0.99358  0.70437  1.0000
  H   H983      1.0  0.33881  0.99214  0.67057  1.0000
  C   C982      1.0  0.02987  0.96529  0.71003  1.0000
  C   C983      1.0  0.44207  0.98550  0.78589  1.0000
  C   C984      1.0  0.05627  0.94172  0.99126  1.0000
  H   H984      1.0  0.33866  0.99743  0.89267  1.0000
  H   H985      1.0  0.00697  0.96335  0.69233  1.0000
  H   H986      1.0  0.45890  0.75635  0.93942  1.0000
  H   H987      1.0  0.38031  0.98816  0.83444  1.0000
  H   H988      1.0  0.35673  0.99879  0.81119  1.0000
  H   H989      1.0  0.06913  0.94430  0.99838  1.0000
  C   C985      1.0  0.43808  0.00280  0.77551  1.0000
  S   S325      1.0  0.43000  0.75433  0.91296  1.0000
  C   C986      1.0  0.00195  0.78193  0.69849  1.0000
  C   C987      1.0  0.00204  0.99330  0.73882  1.0000
  Fe  Fe164     1.0  0.86642  0.10332  0.11441  1.0000
  S   S326      1.0  0.87733  0.12195  0.08947  1.0000
  S   S327      1.0  0.84248  0.08380  0.11283  1.0000
  Fe  Fe165     1.0  0.90000  0.11003  0.13746  1.0000
  S   S328      1.0  0.91329  0.12880  0.11363  1.0000
  S   S329      1.0  0.91814  0.10510  0.16291  1.0000
  Fe  Fe166     1.0  0.88338  0.14211  0.11077  1.0000
  S   S330      1.0  0.87548  0.17416  0.10595  1.0000
  Fe  Fe167     1.0  0.90651  0.10713  0.09425  1.0000
  S   S331      1.0  0.92575  0.09968  0.06773  1.0000
  S   S332      1.0  0.87009  0.12460  0.13574  1.0000
  S   S333      1.0  0.89555  0.08729  0.11807  1.0000
  H   H990      1.0  0.86267  0.08609  0.07613  1.0000
  S   S334      1.0  0.96549  0.01728  0.04971  1.0000
  C   C988      1.0  0.88110  0.09971  0.04401  1.0000
  Fe  Fe168     1.0  0.91405  0.09251  0.27710  1.0000
  S   S335      1.0  0.91904  0.06308  0.29149  1.0000
  S   S336      1.0  0.89554  0.09694  0.25203  1.0000
  Fe  Fe169     1.0  0.93274  0.11137  0.30798  1.0000
  H   H991      1.0  0.73830  0.00980  0.00486  1.0000
  C   C989      1.0  0.94921  0.05437  0.24587  1.0000
  Fe  Fe170     1.0  0.94847  0.07134  0.29566  1.0000
  S   S337      1.0  0.97514  0.05251  0.28465  1.0000
  Fe  Fe171     1.0  0.90939  0.07683  0.31871  1.0000
  C   C990      1.0  0.53965  0.24313  0.04913  1.0000
  S   S338      1.0  0.94386  0.10028  0.27960  1.0000
  S   S339      1.0  0.90240  0.10562  0.30420  1.0000
  S   S340      1.0  0.93145  0.23956  0.10626  1.0000
  H   H992      1.0  0.99884  0.22529  0.31634  1.0000
  C   C991      1.0  0.93200  0.23488  0.03588  1.0000
  S   S341      1.0  0.62243  0.01658  0.28018  1.0000
  Fe  Fe172     1.0  0.64149  0.04148  0.23172  1.0000
  S   S342      1.0  0.64519  0.05260  0.26002  1.0000
  S   S343      1.0  0.64944  0.06070  0.20517  1.0000
  Fe  Fe173     1.0  0.65289  0.02203  0.26985  1.0000
  H   H993      1.0  0.71786  0.04725  0.29167  1.0000
  Fe  Fe174     1.0  0.61460  0.04645  0.26813  1.0000
  S   S344      1.0  0.59316  0.06626  0.28497  1.0000
  C   C992      1.0  0.72317  0.00784  0.00726  1.0000
  S   S345      1.0  0.61027  0.03772  0.23943  1.0000
  N   N84       1.0  0.96469  0.23701  0.05457  1.0000
  S   S346      1.0  0.61361  0.22712  0.02715  1.0000
  C   C993      1.0  0.72688  0.04746  0.15244  1.0000
  Fe  Fe175     1.0  0.64537  0.22433  0.03030  1.0000
  H   H994      1.0  0.94492  0.04451  0.25818  1.0000
  S   S347      1.0  0.64228  0.23592  0.05908  1.0000
  Fe  Fe176     1.0  0.73317  0.08216  0.08070  1.0000
  S   S348      1.0  0.70574  0.08883  0.09895  1.0000
  S   S349      1.0  0.75722  0.10011  0.08647  1.0000
  Fe  Fe177     1.0  0.71344  0.05631  0.05637  1.0000
  S   S350      1.0  0.68469  0.06179  0.07307  1.0000
  S   S351      1.0  0.72194  0.03692  0.03147  1.0000
  Fe  Fe178     1.0  0.69133  0.09264  0.07173  1.0000
  S   S352      1.0  0.66870  0.11828  0.07089  1.0000
  Fe  Fe179     1.0  0.70122  0.05794  0.09908  1.0000
  S   S353      1.0  0.69348  0.03875  0.12563  1.0000
  S   S354      1.0  0.71892  0.08766  0.05335  1.0000
  S   S355      1.0  0.72980  0.05071  0.08259  1.0000
  C   C994      1.0  0.71150  0.01904  0.02026  1.0000
  C   C995      1.0  0.66560  0.17580  0.03515  1.0000
  C   C996      1.0  0.65316  0.17287  0.05144  1.0000
  C   C997      1.0  0.65410  0.15504  0.06189  1.0000
  C   C998      1.0  0.66770  0.14002  0.05644  1.0000
  C   C999      1.0  0.68015  0.14291  0.04013  1.0000
  C   C1000     1.0  0.67896  0.16067  0.02945  1.0000
  H   H995      1.0  0.64271  0.18430  0.05594  1.0000
  H   H996      1.0  0.64428  0.15291  0.07439  1.0000
  H   H997      1.0  0.69061  0.13147  0.03570  1.0000
  C   C1001     1.0  0.90402  0.05539  0.22171  1.0000
  C   C1002     1.0  0.66143  0.05418  0.18306  1.0000
  C   C1003     1.0  0.66425  0.06847  0.16835  1.0000
  C   C1004     1.0  0.67372  0.06401  0.15060  1.0000
  C   C1005     1.0  0.68055  0.04515  0.14735  1.0000
  C   C1006     1.0  0.67784  0.03089  0.16209  1.0000
  C   C1007     1.0  0.66833  0.03534  0.17982  1.0000
  H   H998      1.0  0.65896  0.08309  0.17067  1.0000
  H   H999      1.0  0.67571  0.07514  0.13943  1.0000
  H   H1000     1.0  0.68307  0.01625  0.15977  1.0000
  H   H1001     1.0  0.66630  0.02419  0.19096  1.0000
  C   C1008     1.0  0.53638  0.09164  0.26229  1.0000
  C   C1009     1.0  0.54071  0.09529  0.28040  1.0000
  C   C1010     1.0  0.55815  0.08734  0.28724  1.0000
  C   C1011     1.0  0.57127  0.07564  0.27608  1.0000
  C   C1012     1.0  0.56677  0.07178  0.25810  1.0000
  C   C1013     1.0  0.54942  0.07978  0.25124  1.0000
  H   H1002     1.0  0.53080  0.10452  0.28897  1.0000
  H   H1003     1.0  0.56154  0.09042  0.30117  1.0000
  H   H1004     1.0  0.57669  0.06281  0.24938  1.0000
  H   H1005     1.0  0.54616  0.07691  0.23720  1.0000
  H   H1006     1.0  0.97938  0.16028  0.29881  1.0000
  C   C1014     1.0  0.57075  0.01410  0.27925  1.0000
  C   C1015     1.0  0.54353  0.03131  0.26529  1.0000
  H   H1007     1.0  0.57747  0.24952  0.01647  1.0000
  C   C1016     1.0  0.98825  0.03190  0.29491  1.0000
  S   S356      1.0  0.51562  0.10245  0.25225  1.0000
  H   H1008     1.0  0.71972  0.09505  0.15799  1.0000
  C   C1017     1.0  0.85782  0.05941  0.32443  1.0000
  H   H1009     1.0  0.77392  0.03608  0.31212  1.0000
  C   C1018     1.0  0.67773  0.03813  0.31428  1.0000
  C   C1019     1.0  0.68682  0.02154  0.30665  1.0000
  C   C1020     1.0  0.83895  0.05443  0.32386  1.0000
  N   N85       1.0  0.97952  0.20454  0.31389  1.0000
  H   H1010     1.0  0.66520  0.04530  0.30814  1.0000
  H   H1011     1.0  0.53470  0.03445  0.25349  1.0000
  C   C1021     1.0  0.94752  0.15269  0.33235  1.0000
  H   H1012     1.0  0.94906  0.06890  0.25087  1.0000
  C   C1022     1.0  0.73773  0.08186  0.13544  1.0000
  H   H1013     1.0  0.91127  0.05363  0.25051  1.0000
  C   C1023     1.0  0.91094  0.05732  0.20265  1.0000
  C   C1024     1.0  0.98539  0.18581  0.31119  1.0000
  C   C1025     1.0  0.93770  0.07693  0.06352  1.0000
  C   C1026     1.0  0.93672  0.06148  0.07703  1.0000
  C   C1027     1.0  0.94555  0.04335  0.07266  1.0000
  C   C1028     1.0  0.95543  0.04052  0.05479  1.0000
  C   C1029     1.0  0.95659  0.05602  0.04136  1.0000
  C   C1030     1.0  0.94778  0.07413  0.04573  1.0000
  H   H1014     1.0  0.92899  0.06344  0.09075  1.0000
  H   H1015     1.0  0.94456  0.03143  0.08312  1.0000
  H   H1016     1.0  0.96414  0.05401  0.02756  1.0000
  H   H1017     1.0  0.94862  0.08602  0.03521  1.0000
  C   C1031     1.0  0.81912  0.08871  0.10469  1.0000
  C   C1032     1.0  0.81066  0.10731  0.10135  1.0000
  C   C1033     1.0  0.79180  0.11044  0.09566  1.0000
  C   C1034     1.0  0.78122  0.09509  0.09300  1.0000
  C   C1035     1.0  0.78987  0.07649  0.09591  1.0000
  C   C1036     1.0  0.80861  0.07335  0.10189  1.0000
  H   H1018     1.0  0.81850  0.11929  0.10345  1.0000
  H   H1019     1.0  0.78535  0.12490  0.09339  1.0000
  H   H1020     1.0  0.78222  0.06450  0.09349  1.0000
  H   H1021     1.0  0.81504  0.05891  0.10432  1.0000
  C   C1037     1.0  0.91123  0.10499  0.18761  1.0000
  C   C1038     1.0  0.89212  0.10448  0.19496  1.0000
  C   C1039     1.0  0.88755  0.10267  0.21475  1.0000
  C   C1040     1.0  0.90198  0.10137  0.22739  1.0000
  C   C1041     1.0  0.92103  0.10249  0.22005  1.0000
  C   C1042     1.0  0.92560  0.10432  0.20025  1.0000
  H   H1022     1.0  0.88091  0.10495  0.18543  1.0000
  H   H1023     1.0  0.87276  0.10183  0.22031  1.0000
  H   H1024     1.0  0.93226  0.10160  0.22959  1.0000
  H   H1025     1.0  0.94043  0.10476  0.19470  1.0000
  C   C1043     1.0  0.89205  0.19178  0.10334  1.0000
  C   C1044     1.0  0.88552  0.21083  0.09828  1.0000
  C   C1045     1.0  0.89761  0.22561  0.09832  1.0000
  C   C1046     1.0  0.91629  0.22148  0.10370  1.0000
  C   C1047     1.0  0.92300  0.20237  0.10816  1.0000
  C   C1048     1.0  0.91102  0.18757  0.10783  1.0000
  H   H1026     1.0  0.87085  0.21424  0.09478  1.0000
  H   H1027     1.0  0.89224  0.24025  0.09485  1.0000
  H   H1028     1.0  0.93746  0.19900  0.11227  1.0000
  H   H1029     1.0  0.91625  0.17300  0.11175  1.0000
  N   N86       1.0  0.57728  0.11160  0.23077  1.0000
  C   C1049     1.0  0.58545  0.10184  0.21568  1.0000
  C   C1050     1.0  0.58665  0.11138  0.24686  1.0000
  C   C1051     1.0  0.60337  0.09132  0.21655  1.0000
  C   C1052     1.0  0.60453  0.10093  0.24823  1.0000
  C   C1053     1.0  0.61292  0.09091  0.23293  1.0000
  C   C1054     1.0  0.55866  0.12279  0.22936  1.0000
  H   H1030     1.0  0.57807  0.10204  0.20291  1.0000
  H   H1031     1.0  0.58008  0.11880  0.25898  1.0000
  H   H1032     1.0  0.60986  0.08339  0.20467  1.0000
  C   C1055     1.0  0.87681  0.05786  0.07945  1.0000
  C   C1056     1.0  0.89088  0.04459  0.07177  1.0000
  C   C1057     1.0  0.76033  0.04478  0.31144  1.0000
  C   C1058     1.0  0.72549  0.06691  0.31094  1.0000
  H   H1033     1.0  0.75347  0.06492  0.11446  1.0000
  N   N87       1.0  0.89105  0.18841  0.15158  1.0000
  C   C1059     1.0  0.88514  0.17046  0.15449  1.0000
  C   C1060     1.0  0.90967  0.19139  0.15363  1.0000
  C   C1061     1.0  0.89805  0.15489  0.15945  1.0000
  C   C1062     1.0  0.92305  0.17605  0.15820  1.0000
  C   C1063     1.0  0.91714  0.15769  0.16114  1.0000
  C   C1064     1.0  0.87709  0.20464  0.14718  1.0000
  H   H1034     1.0  0.87042  0.16805  0.15269  1.0000
  H   H1035     1.0  0.91439  0.20562  0.15122  1.0000
  H   H1036     1.0  0.89336  0.14067  0.16186  1.0000
  H   H1037     1.0  0.93790  0.17838  0.15936  1.0000
  N   N88       1.0  0.73920  0.07157  0.32179  1.0000
  H   H1038     1.0  0.86647  0.20050  0.13793  1.0000
  H   H1039     1.0  0.86941  0.20977  0.16046  1.0000
  H   H1040     1.0  0.88424  0.21657  0.13923  1.0000
  H   H1041     1.0  0.58782  0.00667  0.31034  1.0000
  N   N89       1.0  0.73901  0.04768  0.13620  1.0000
  H   H1042     1.0  0.55159  0.12612  0.24357  1.0000
  H   H1043     1.0  0.73350  0.02497  0.12034  1.0000
  C   C1065     1.0  0.95899  0.18416  0.29215  1.0000
  C   C1066     1.0  0.56727  0.24742  0.08408  1.0000
  C   C1067     1.0  0.96390  0.21344  0.30562  1.0000
  C   C1068     1.0  0.57933  0.02081  0.31067  1.0000
  H   H1044     1.0  0.56271  0.00983  0.25141  1.0000
  H   H1045     1.0  0.86693  0.06142  0.31142  1.0000
  C   C1069     1.0  0.74543  0.02971  0.12752  1.0000
  H   H1046     1.0  0.99755  0.17867  0.31807  1.0000
  S   S357      1.0  0.65097  0.01101  0.24089  1.0000
  H   H1047     1.0  0.73891  0.16001  0.03524  1.0000
  N   N90       1.0  0.88410  0.08053  0.05338  1.0000
  N   N91       1.0  0.93615  0.05466  0.23090  1.0000
  C   C1070     1.0  0.94305  0.05671  0.21225  1.0000
  C   C1071     1.0  0.91688  0.05421  0.23573  1.0000
  C   C1072     1.0  0.93058  0.05798  0.19785  1.0000
  H   H1048     1.0  0.72192  0.03413  0.15873  1.0000
  H   H1049     1.0  0.72625  0.09956  0.32671  1.0000
  H   H1050     1.0  0.52567  0.24671  0.11323  1.0000
  H   H1051     1.0  0.95822  0.05783  0.20842  1.0000
  H   H1052     1.0  0.83368  0.05271  0.31032  1.0000
  H   H1053     1.0  0.98575  0.22568  0.07323  1.0000
  H   H1054     1.0  0.96421  0.04938  0.24092  1.0000
  H   H1055     1.0  0.68860  0.16274  0.01681  1.0000
  H   H1056     1.0  0.92961  0.17929  0.33033  1.0000
  S   S358      1.0  0.66522  0.19821  0.02183  1.0000
  H   H1057     1.0  0.75787  0.03125  0.11681  1.0000
  H   H1058     1.0  0.94066  0.21033  0.28858  1.0000
  H   H1059     1.0  0.71145  0.18400  0.04335  1.0000
  H   H1060     1.0  0.92729  0.14558  0.16465  1.0000
  H   H1061     1.0  0.93595  0.06032  0.18308  1.0000
  S   S359      1.0  0.93434  0.14198  0.31643  1.0000
  C   C1073     1.0  0.71401  0.17111  0.05249  1.0000
  H   H1062     1.0  0.90105  0.05911  0.19165  1.0000
  N   N92       1.0  0.70416  0.15100  0.07983  1.0000
  C   C1074     1.0  0.70156  0.16759  0.06868  1.0000
  C   C1075     1.0  0.72929  0.15760  0.04788  1.0000
  C   C1076     1.0  0.69114  0.14767  0.09688  1.0000
  H   H1063     1.0  0.68944  0.17795  0.07190  1.0000
  H   H1064     1.0  0.55541  0.22622  0.10409  1.0000
  C   C1077     1.0  0.71933  0.13788  0.07561  1.0000
  C   C1078     1.0  0.73205  0.14090  0.05955  1.0000
  C   C1079     1.0  0.56377  0.25237  0.02459  1.0000
  H   H1065     1.0  0.72163  0.12489  0.08459  1.0000
  H   H1066     1.0  0.67634  0.15408  0.09470  1.0000
  H   H1067     1.0  0.68996  0.13215  0.10018  1.0000
  H   H1068     1.0  0.68274  0.02466  0.03306  1.0000
  H   H1069     1.0  0.54893  0.04627  0.30853  1.0000
  H   H1070     1.0  0.89375  0.03068  0.07908  1.0000
  C   C1080     1.0  0.87358  0.07586  0.06999  1.0000
  H   H1071     1.0  0.92261  0.21691  0.06031  1.0000
  C   C1081     1.0  0.74432  0.06461  0.12761  1.0000
  H   H1072     1.0  0.74982  0.01843  0.13846  1.0000
  Fe  Fe180     1.0  0.61979  0.00795  0.25079  1.0000
  C   C1082     1.0  0.72900  0.05122  0.29983  1.0000
  C   C1083     1.0  0.53957  0.04141  0.28154  1.0000
  H   H1073     1.0  0.89208  0.10866  0.04788  1.0000
  C   C1084     1.0  0.55924  0.01758  0.26409  1.0000
  H   H1074     1.0  0.74906  0.02741  0.29220  1.0000
  C   C1085     1.0  0.99006  0.21537  0.32549  1.0000
  H   H1075     1.0  0.54856  0.11461  0.22283  1.0000
  H   H1076     1.0  0.88231  0.09912  0.02836  1.0000
  N   N93       1.0  0.56676  0.02405  0.29515  1.0000
  H   H1077     1.0  0.95180  0.21896  0.07659  1.0000
  C   C1086     1.0  0.55155  0.03774  0.29633  1.0000
  C   C1087     1.0  0.89809  0.06769  0.04588  1.0000
  H   H1078     1.0  0.70969  0.06419  0.17309  1.0000
  C   C1088     1.0  0.96290  0.24665  0.03724  1.0000
  C   C1089     1.0  0.95332  0.20337  0.29472  1.0000
  C   C1090     1.0  0.74648  0.04000  0.30024  1.0000
  H   H1079     1.0  0.91288  0.03944  0.04896  1.0000
  H   H1080     1.0  0.71148  0.07491  0.31136  1.0000
  H   H1081     1.0  0.86853  0.05440  0.09276  1.0000
  S   S360      1.0  0.67895  0.01201  0.28649  1.0000
  C   C1091     1.0  0.72533  0.08176  0.15199  1.0000
  C   C1092     1.0  0.98457  0.02519  0.31385  1.0000
  S   S361      1.0  0.65012  0.25302  0.01489  1.0000
  H   H1082     1.0  0.62675  0.08272  0.23378  1.0000
  Fe  Fe181     1.0  0.61077  0.24095  0.05489  1.0000
  H   H1083     1.0  0.97326  0.03249  0.32272  1.0000
  C   C1093     1.0  0.95053  0.22631  0.06271  1.0000
  C   C1094     1.0  0.97522  0.17534  0.30027  1.0000
  H   H1084     1.0  0.95941  0.22837  0.30776  1.0000
  C   C1095     1.0  0.75643  0.06071  0.32217  1.0000
  H   H1085     1.0  0.74197  0.09520  0.12842  1.0000
  H   H1086     1.0  0.69639  0.15378  0.10913  1.0000
  S   S362      1.0  0.58816  0.23236  0.07803  1.0000
  C   C1096     1.0  0.90153  0.04946  0.05481  1.0000
  H   H1087     1.0  0.90703  0.07166  0.03317  1.0000
  Fe  Fe182     1.0  0.98373  0.00967  0.02261  1.0000
  H   H1088     1.0  0.56632  0.22608  0.04218  1.0000
  H   H1089     1.0  0.56050  0.13637  0.22072  1.0000
  H   H1090     1.0  0.61160  0.10017  0.26126  1.0000
  S   S363      1.0  0.93932  0.08308  0.32423  1.0000
  H   H1091     1.0  0.86666  0.10674  0.04832  1.0000
  H   H1092     1.0  0.88870  0.05578  0.22566  1.0000
  C   C1097     1.0  0.55325  0.24058  0.09760  1.0000
  H   H1093     1.0  0.52777  0.05257  0.28235  1.0000
  H   H1094     1.0  0.95057  0.17592  0.28431  1.0000
  C   C1098     1.0  0.55739  0.23915  0.03883  1.0000
  C   C1099     1.0  0.69197  0.01621  0.02318  1.0000
  H   H1095     1.0  0.62057  0.24193  0.10549  1.0000
  H   H1096     1.0  0.74392  0.13026  0.05623  1.0000
  C   C1100     1.0  0.94658  0.24567  0.02760  1.0000
  C   C1101     1.0  0.98115  0.23921  0.06518  1.0000
  C   C1102     1.0  0.93398  0.22508  0.05353  1.0000
  C   C1103     1.0  0.70309  0.01242  0.31490  1.0000
  C   C1104     1.0  0.68489  0.04549  0.32987  1.0000
  C   C1105     1.0  0.71984  0.06446  0.16057  1.0000
  H   H1097     1.0  0.58950  0.03202  0.30949  1.0000
  H   H1098     1.0  0.57083  0.02128  0.32465  1.0000
  C   C1106     1.0  0.71028  0.01980  0.33047  1.0000
  H   H1099     1.0  0.76723  0.06419  0.33095  1.0000
  H   H1100     1.0  0.89238  0.14524  0.32701  1.0000
  H   H1101     1.0  0.97714  0.25049  0.07529  1.0000
  H   H1102     1.0  0.99694  0.00575  0.08047  1.0000
  H   H1103     1.0  0.91907  0.23434  0.02878  1.0000
  H   H1104     1.0  0.99365  0.24353  0.05559  1.0000
  H   H1105     1.0  0.53497  0.23289  0.06038  1.0000
  C   C1107     1.0  0.99571  0.00909  0.32141  1.0000
  H   H1106     1.0  0.58822  0.25153  0.12033  1.0000
  C   C1108     1.0  0.53638  0.25214  0.10278  1.0000
  H   H1107     1.0  0.58299  0.00348  0.27810  1.0000
  Fe  Fe183     1.0  0.97880  0.21505  0.37736  1.0000
  C   C1109     1.0  0.91163  0.14072  0.36224  1.0000
  S   S364      1.0  0.98322  0.18380  0.36971  1.0000
  Fe  Fe184     1.0  0.99582  0.24852  0.39386  1.0000
  H   H1108     1.0  0.51722  0.18079  0.59373  1.0000
  H   H1109     1.0  0.73450  0.02907  0.66251  1.0000
  Fe  Fe185     1.0  0.57579  0.23881  0.58374  1.0000
  S   S365      1.0  0.97688  0.22601  0.40681  1.0000
  C   C1110     1.0  0.50969  0.20211  0.49870  1.0000
  Fe  Fe186     1.0  0.78165  0.03806  0.36405  1.0000
  S   S366      1.0  0.75842  0.06055  0.37319  1.0000
  C   C1111     1.0  0.91701  0.25247  0.47918  1.0000
  C   C1112     1.0  0.64640  0.22100  0.53281  1.0000
  S   S367      1.0  0.73920  0.02742  0.40221  1.0000
  Fe  Fe187     1.0  0.73799  0.03809  0.37129  1.0000
  S   S368      1.0  0.76106  0.01635  0.36048  1.0000
  Fe  Fe188     1.0  0.76164  0.04796  0.40298  1.0000
  S   S369      1.0  0.76863  0.06210  0.42896  1.0000
  C   C1113     1.0  0.67904  0.21427  0.55233  1.0000
  S   S370      1.0  0.78634  0.02686  0.39375  1.0000
  Fe  Fe189     1.0  0.73378  0.13325  0.50651  1.0000
  S   S371      1.0  0.72101  0.12014  0.53412  1.0000
  S   S372      1.0  0.72318  0.12579  0.47890  1.0000
  Fe  Fe190     1.0  0.76087  0.15575  0.52618  1.0000
  S   S373      1.0  0.75070  0.14355  0.55521  1.0000
  S   S374      1.0  0.78480  0.17524  0.51701  1.0000
  Fe  Fe191     1.0  0.75137  0.11534  0.54216  1.0000
  S   S375      1.0  0.76514  0.08549  0.54999  1.0000
  Fe  Fe192     1.0  0.72089  0.14927  0.54489  1.0000
  S   S376      1.0  0.69689  0.16322  0.56457  1.0000
  S   S377      1.0  0.76407  0.12701  0.51387  1.0000
  S   S378      1.0  0.73113  0.16299  0.51660  1.0000
  C   C1114     1.0  0.73488  0.08759  0.33392  1.0000
  C   C1115     1.0  0.51863  0.20866  0.51371  1.0000
  Fe  Fe193     1.0  0.58719  0.20307  0.56226  1.0000
  S   S379      1.0  0.55749  0.19319  0.56701  1.0000
  S   S380      1.0  0.61126  0.18769  0.54382  1.0000
  Fe  Fe194     1.0  0.54660  0.22362  0.55979  1.0000
  S   S381      1.0  0.52021  0.23290  0.54296  1.0000
  Fe  Fe195     1.0  0.55775  0.20159  0.59702  1.0000
  S   S382      1.0  0.54612  0.18013  0.61999  1.0000
  S   S383      1.0  0.57639  0.23314  0.55289  1.0000
  S   S384      1.0  0.58824  0.20902  0.59263  1.0000
  S   S385      1.0  0.88664  0.24324  0.55098  1.0000
  C   C1116     1.0  0.91289  0.10128  0.36548  1.0000
  S   S386      1.0  0.83272  0.22815  0.56022  1.0000
  C   C1117     1.0  0.80400  0.11835  0.54218  1.0000
  H   H1110     1.0  0.53236  0.20184  0.51750  1.0000
  S   S387      1.0  0.75984  0.03625  0.62917  1.0000
  C   C1118     1.0  0.82011  0.15008  0.55192  1.0000
  H   H1111     1.0  0.93699  0.10190  0.38202  1.0000
  C   C1119     1.0  0.82060  0.14633  0.53288  1.0000
  H   H1112     1.0  0.79742  0.10617  0.53819  1.0000
  S   S388      1.0  0.99959  0.24382  0.65770  1.0000
  C   C1120     1.0  0.66195  0.22306  0.56076  1.0000
  C   C1121     1.0  0.95932  0.21595  0.65933  1.0000
  C   C1122     1.0  0.81239  0.13046  0.52793  1.0000
  H   H1113     1.0  0.79702  0.09432  0.57201  1.0000
  H   H1114     1.0  0.72659  0.08283  0.34728  1.0000
  H   H1115     1.0  0.58358  0.16646  0.65544  1.0000
  C   C1123     1.0  0.79710  0.19067  0.52927  1.0000
  C   C1124     1.0  0.79381  0.19228  0.54885  1.0000
  C   C1125     1.0  0.80481  0.20386  0.55803  1.0000
  C   C1126     1.0  0.81907  0.21410  0.54777  1.0000
  C   C1127     1.0  0.82216  0.21271  0.52817  1.0000
  C   C1128     1.0  0.81130  0.20099  0.51903  1.0000
  H   H1116     1.0  0.78296  0.18444  0.55693  1.0000
  H   H1117     1.0  0.80226  0.20484  0.57320  1.0000
  H   H1118     1.0  0.83310  0.22043  0.52007  1.0000
  H   H1119     1.0  0.81401  0.19983  0.50388  1.0000
  C   C1129     1.0  0.76225  0.07186  0.57196  1.0000
  C   C1130     1.0  0.76955  0.05257  0.57296  1.0000
  C   C1131     1.0  0.76847  0.04138  0.59028  1.0000
  C   C1132     1.0  0.76040  0.04950  0.60687  1.0000
  C   C1133     1.0  0.75305  0.06880  0.60588  1.0000
  C   C1134     1.0  0.75380  0.07990  0.58847  1.0000
  H   H1120     1.0  0.77621  0.04624  0.56029  1.0000
  H   H1121     1.0  0.77424  0.02658  0.59086  1.0000
  H   H1122     1.0  0.74678  0.07520  0.61864  1.0000
  H   H1123     1.0  0.74807  0.09471  0.58791  1.0000
  C   C1135     1.0  0.67258  0.16774  0.55934  1.0000
  C   C1136     1.0  0.66676  0.16453  0.54165  1.0000
  C   C1137     1.0  0.64772  0.17008  0.53740  1.0000
  C   C1138     1.0  0.63432  0.17891  0.55073  1.0000
  C   C1139     1.0  0.63998  0.18157  0.56863  1.0000
  C   C1140     1.0  0.65901  0.17599  0.57290  1.0000
  H   H1124     1.0  0.67703  0.15816  0.53109  1.0000
  H   H1125     1.0  0.64346  0.16790  0.52353  1.0000
  H   H1126     1.0  0.62980  0.18819  0.57909  1.0000
  H   H1127     1.0  0.66337  0.17843  0.58665  1.0000
  C   C1141     1.0  0.54829  0.19834  0.65295  1.0000
  C   C1142     1.0  0.54274  0.18261  0.64479  1.0000
  C   C1143     1.0  0.53463  0.16807  0.65664  1.0000
  H   H1128     1.0  0.55454  0.20964  0.64401  1.0000
  H   H1129     1.0  0.69258  0.20123  0.52745  1.0000
  H   H1130     1.0  0.50603  0.17067  0.56423  1.0000
  C   C1144     1.0  0.75633  0.08114  0.44133  1.0000
  C   C1145     1.0  0.76448  0.08693  0.45700  1.0000
  C   C1146     1.0  0.75470  0.10091  0.46831  1.0000
  C   C1147     1.0  0.73661  0.10932  0.46405  1.0000
  C   C1148     1.0  0.72857  0.10381  0.44813  1.0000
  C   C1149     1.0  0.73838  0.08977  0.43679  1.0000
  H   H1131     1.0  0.77838  0.08038  0.46058  1.0000
  H   H1132     1.0  0.76107  0.10501  0.48046  1.0000
  H   H1133     1.0  0.71460  0.11028  0.44470  1.0000
  H   H1134     1.0  0.73197  0.08547  0.42473  1.0000
  C   C1150     1.0  0.81138  0.13781  0.56580  1.0000
  H   H1135     1.0  0.99839  0.17078  0.66485  1.0000
  H   H1136     1.0  0.61851  0.22291  0.56475  1.0000
  C   C1151     1.0  0.97166  0.19116  0.63135  1.0000
  C   C1152     1.0  0.50504  0.18598  0.55914  1.0000
  C   C1153     1.0  0.70126  0.03647  0.33800  1.0000
  C   C1154     1.0  0.86496  0.06140  0.34184  1.0000
  H   H1137     1.0  0.87221  0.13556  0.34079  1.0000
  H   H1138     1.0  0.69145  0.21074  0.56040  1.0000
  H   H1139     1.0  0.66335  0.20733  0.50983  1.0000
  Fe  Fe196     1.0  0.95254  0.24617  0.39681  1.0000
  H   H1140     1.0  0.82655  0.15620  0.52191  1.0000
  H   H1141     1.0  0.51671  0.19025  0.49116  1.0000
  C   C1155     1.0  0.97406  0.15279  0.35211  1.0000
  C   C1156     1.0  0.96869  0.17196  0.35595  1.0000
  C   C1157     1.0  0.99776  0.17634  0.64980  1.0000
  H   H1142     1.0  0.91329  0.08582  0.36642  1.0000
  C   C1158     1.0  0.67967  0.20887  0.53379  1.0000
  N   N94       1.0  0.89880  0.13175  0.35360  1.0000
  H   H1143     1.0  0.86306  0.01915  0.34862  1.0000
  H   H1144     1.0  0.99538  0.24209  0.53839  1.0000
  H   H1145     1.0  0.79938  0.11052  0.58963  1.0000
  C   C1159     1.0  0.83395  0.05380  0.35802  1.0000
  C   C1160     1.0  0.96353  0.14317  0.34044  1.0000
  C   C1161     1.0  0.94962  0.21693  0.64297  1.0000
  C   C1162     1.0  0.79423  0.10950  0.57546  1.0000
  H   H1146     1.0  0.86079  0.01951  0.37386  1.0000
  H   H1147     1.0  0.96803  0.12853  0.33744  1.0000
  H   H1148     1.0  0.82488  0.05163  0.37104  1.0000
  H   H1149     1.0  0.99757  0.16389  0.64123  1.0000
  S   S389      1.0  0.98427  0.23552  0.60496  1.0000
  H   H1150     1.0  0.81059  0.14114  0.58051  1.0000
  H   H1151     1.0  0.95594  0.22710  0.58136  1.0000
  N   N95       1.0  0.64597  0.22646  0.55093  1.0000
  H   H1152     1.0  0.88932  0.10516  0.34800  1.0000
  H   H1153     1.0  0.69483  0.02836  0.63682  1.0000
  S   S390      1.0  0.71051  0.04729  0.35666  1.0000
  H   H1154     1.0  0.66138  0.22653  0.57542  1.0000
  H   H1155     1.0  0.85821  0.06024  0.37214  1.0000
  H   H1156     1.0  0.92343  0.24232  0.57564  1.0000
  C   C1163     1.0  0.92614  0.11029  0.37422  1.0000
  H   H1157     1.0  0.97981  0.22393  0.33505  1.0000
  C   C1164     1.0  0.95571  0.20437  0.62895  1.0000
  H   H1158     1.0  0.74820  0.09312  0.33767  1.0000
  C   C1165     1.0  0.70677  0.01903  0.64280  1.0000
  H   H1159     1.0  0.94860  0.20539  0.61595  1.0000
  H   H1160     1.0  0.98882  0.23431  0.56286  1.0000
  H   H1161     1.0  0.82591  0.16279  0.55578  1.0000
  C   C1166     1.0  0.66327  0.21228  0.52392  1.0000
  H   H1162     1.0  0.98662  0.14539  0.35803  1.0000
  C   C1167     1.0  0.97499  0.20232  0.66144  1.0000
  C   C1168     1.0  0.89932  0.11229  0.35507  1.0000
  C   C1169     1.0  0.92145  0.25196  0.43918  1.0000
  H   H1163     1.0  0.53019  0.15588  0.65044  1.0000
  N   N96       1.0  0.73350  0.05526  0.47726  1.0000
  C   C1170     1.0  0.74958  0.05132  0.48690  1.0000
  C   C1171     1.0  0.71931  0.06874  0.48317  1.0000
  C   C1172     1.0  0.75178  0.06112  0.50285  1.0000
  C   C1173     1.0  0.72107  0.07882  0.49902  1.0000
  C   C1174     1.0  0.73741  0.07493  0.50890  1.0000
  C   C1175     1.0  0.73103  0.04443  0.46098  1.0000
  H   H1164     1.0  0.76097  0.04086  0.48205  1.0000
  H   H1165     1.0  0.70677  0.07221  0.47530  1.0000
  H   H1166     1.0  0.76463  0.05831  0.51036  1.0000
  H   H1167     1.0  0.71015  0.09006  0.50321  1.0000
  H   H1168     1.0  0.73909  0.08281  0.52104  1.0000
  H   H1169     1.0  0.72180  0.03275  0.46545  1.0000
  H   H1170     1.0  0.72444  0.05389  0.44962  1.0000
  H   H1171     1.0  0.74506  0.03821  0.45447  1.0000
  C   C1176     1.0  0.50991  0.22411  0.52356  1.0000
  C   C1177     1.0  0.92551  0.13016  0.37265  1.0000
  H   H1172     1.0  0.93598  0.13736  0.37904  1.0000
  C   C1178     1.0  0.82694  0.05151  0.34062  1.0000
  H   H1173     1.0  0.94800  0.19598  0.35104  1.0000
  H   H1174     1.0  0.88066  0.15709  0.34725  1.0000
  C   C1179     1.0  0.94196  0.17174  0.33648  1.0000
  Fe  Fe197     1.0  0.85464  0.24941  0.54948  1.0000
  H   H1175     1.0  0.77846  0.11334  0.57630  1.0000
  C   C1180     1.0  0.85287  0.05870  0.35860  1.0000
  C   C1181     1.0  0.96060  0.24593  0.60264  1.0000
  S   S391      1.0  0.54510  0.23166  0.59032  1.0000
  H   H1176     1.0  0.97678  0.18202  0.62002  1.0000
  N   N97       1.0  0.80375  0.12201  0.56085  1.0000
  S   S392      1.0  0.95309  0.23366  0.36853  1.0000
  C   C1182     1.0  0.50754  0.19363  0.59182  1.0000
  C   C1183     1.0  0.93142  0.24756  0.58613  1.0000
  H   H1177     1.0  0.96102  0.24712  0.53305  1.0000
  Fe  Fe198     1.0  0.76370  0.00708  0.39137  1.0000
  C   C1184     1.0  0.94986  0.23898  0.58940  1.0000
  H   H1178     1.0  0.81198  0.12792  0.51310  1.0000
  C   C1185     1.0  0.86039  0.01018  0.36202  1.0000
  H   H1179     1.0  0.95046  0.24038  0.44283  1.0000
  S   S393      1.0  0.88917  0.06593  0.34343  1.0000
  H   H1180     1.0  0.57121  0.13484  0.65736  1.0000
  S   S394      1.0  0.00018  0.23576  0.36543  1.0000
  H   H1181     1.0  0.94667  0.24099  0.47789  1.0000
  H   H1182     1.0  0.63340  0.22262  0.52546  1.0000
  C   C1186     1.0  0.95240  0.18129  0.34822  1.0000
  C   C1187     1.0  0.88531  0.14298  0.34159  1.0000
  C   C1188     1.0  0.99155  0.24689  0.55291  1.0000
  H   H1183     1.0  0.91156  0.15612  0.36067  1.0000
  H   H1184     1.0  0.72043  0.02343  0.63532  1.0000
  C   C1189     1.0  0.93681  0.24543  0.44988  1.0000
  H   H1185     1.0  0.72285  0.01266  0.33655  1.0000
  N   N98       1.0  0.98087  0.19005  0.64761  1.0000
  C   C1190     1.0  0.93459  0.24573  0.46977  1.0000
  S   S395      1.0  0.80379  0.04392  0.33910  1.0000
  H   H1186     1.0  0.62012  0.24504  0.55048  1.0000
  H   H1187     1.0  0.67774  0.05834  0.33559  1.0000
  C   C1191     1.0  0.62781  0.23453  0.56026  1.0000
  H   H1188     1.0  0.51916  0.18941  0.55203  1.0000
  H   H1189     1.0  0.93771  0.22771  0.64090  1.0000
  H   H1190     1.0  0.62995  0.24204  0.57298  1.0000
  H   H1191     1.0  0.50982  0.20199  0.62009  1.0000
  N   N99       1.0  0.70612  0.02054  0.66332  1.0000
  C   C1192     1.0  0.50348  0.20561  0.60676  1.0000
  Fe  Fe199     1.0  0.76500  0.00388  0.63190  1.0000
  H   H1192     1.0  0.99946  0.20589  0.33470  1.0000
  H   H1193     1.0  0.99281  0.00417  0.33611  1.0000
  H   H1194     1.0  0.70551  0.00400  0.63982  1.0000
  H   H1195     1.0  0.83687  0.01044  0.33431  1.0000
  Fe  Fe200     1.0  0.52815  0.16304  0.73221  1.0000
  S   S396      1.0  0.55049  0.15052  0.75158  1.0000
  S   S397      1.0  0.53680  0.18611  0.70963  1.0000
  C   C1193     1.0  0.59069  0.24243  0.97133  1.0000
  S   S398      1.0  0.51747  0.12517  0.77398  1.0000
  Fe  Fe201     1.0  0.52724  0.15461  0.77543  1.0000
  S   S399      1.0  0.53260  0.16392  0.80453  1.0000
  Fe  Fe202     1.0  0.53891  0.12250  0.74849  1.0000
  S   S400      1.0  0.55695  0.09609  0.73832  1.0000
  S   S401      1.0  0.51798  0.13483  0.72757  1.0000
  H   H1196     1.0  0.52629  0.15769  0.68546  1.0000
  C   C1194     1.0  0.70834  0.03150  0.96542  1.0000
  C   C1195     1.0  0.68871  0.01783  0.69406  1.0000
  N   N100      1.0  0.64043  0.22804  0.96176  1.0000
  C   C1196     1.0  0.53240  0.16904  0.67650  1.0000
  S   S402      1.0  0.60291  0.03519  0.79211  1.0000
  S   S403      1.0  0.52127  0.24172  0.89639  1.0000
  C   C1197     1.0  0.72093  0.02735  0.69088  1.0000
  H   H1197     1.0  0.54481  0.04721  0.79457  1.0000
  C   C1198     1.0  0.57532  0.24782  0.94153  1.0000
  C   C1199     1.0  0.58306  0.23532  0.95590  1.0000
  H   H1198     1.0  0.73331  0.03134  0.69714  1.0000
  Fe  Fe203     1.0  0.61539  0.00572  0.78392  1.0000
  N   N101      1.0  0.56974  0.13147  0.68765  1.0000
  C   C1200     1.0  0.62393  0.24919  0.93173  1.0000
  C   C1201     1.0  0.54373  0.03101  0.75146  1.0000
  H   H1199     1.0  0.67348  0.01894  0.97322  1.0000
  H   H1200     1.0  0.56924  0.13197  0.71764  1.0000
  H   H1201     1.0  0.63662  0.21536  0.98979  1.0000
  C   C1202     1.0  0.54728  0.03770  0.78314  1.0000
  N   N102      1.0  0.54018  0.04288  0.76599  1.0000
  C   C1203     1.0  0.52997  0.18721  0.81303  1.0000
  C   C1204     1.0  0.52177  0.20311  0.80265  1.0000
  C   C1205     1.0  0.51870  0.22101  0.81058  1.0000
  C   C1206     1.0  0.52384  0.22330  0.82892  1.0000
  C   C1207     1.0  0.53218  0.20743  0.83923  1.0000
  C   C1208     1.0  0.53524  0.18954  0.83130  1.0000
  H   H1202     1.0  0.53631  0.20894  0.85329  1.0000
  H   H1203     1.0  0.65444  0.20248  0.97448  1.0000
  C   C1209     1.0  0.57045  0.07980  0.75327  1.0000
  C   C1210     1.0  0.57159  0.08286  0.77232  1.0000
  C   C1211     1.0  0.58192  0.06921  0.78393  1.0000
  C   C1212     1.0  0.59104  0.05236  0.77666  1.0000
  C   C1213     1.0  0.58988  0.04931  0.75759  1.0000
  C   C1214     1.0  0.57967  0.06302  0.74594  1.0000
  H   H1204     1.0  0.56458  0.09574  0.77812  1.0000
  H   H1205     1.0  0.58279  0.07168  0.79866  1.0000
  H   H1206     1.0  0.59681  0.03638  0.75185  1.0000
  H   H1207     1.0  0.57884  0.06053  0.73122  1.0000
  C   C1215     1.0  0.53818  0.18466  0.68469  1.0000
  H   H1208     1.0  0.54169  0.17738  0.83944  1.0000
  H   H1209     1.0  0.58832  0.18134  0.68505  1.0000
  C   C1216     1.0  0.63322  0.21890  0.94807  1.0000
  H   H1210     1.0  0.86891  0.00558  0.73225  1.0000
  H   H1211     1.0  0.58358  0.22009  0.95480  1.0000
  H   H1212     1.0  0.53813  0.03511  0.73787  1.0000
  H   H1213     1.0  0.52957  0.06689  0.74850  1.0000
  H   H1214     1.0  0.70377  0.02391  0.71758  1.0000
  S   S404      1.0  0.97613  0.01190  0.99226  1.0000
  C   C1217     1.0  0.56182  0.11294  0.68900  1.0000
  H   H1215     1.0  0.95498  0.22592  0.67016  1.0000
  H   H1216     1.0  0.51122  0.15434  0.84056  1.0000
  H   H1217     1.0  0.59705  0.23268  0.98202  1.0000
  C   C1218     1.0  0.70437  0.02330  0.70230  1.0000
  H   H1218     1.0  0.55045  0.21152  0.67901  1.0000
  C   C1219     1.0  0.57387  0.14085  0.67035  1.0000
  H   H1219     1.0  0.67601  0.01407  0.70291  1.0000
  H   H1220     1.0  0.57120  0.10211  0.69692  1.0000
  H   H1221     1.0  0.50283  0.23744  0.94108  1.0000
  H   H1222     1.0  0.56475  0.01661  0.79934  1.0000
  C   C1220     1.0  0.69766  0.00504  0.92458  1.0000
  H   H1223     1.0  0.58095  0.16402  0.71630  1.0000
  H   H1224     1.0  0.51764  0.20160  0.78858  1.0000
  H   H1225     1.0  0.56046  0.10780  0.67485  1.0000
  H   H1226     1.0  0.54734  0.11406  0.69685  1.0000
  C   C1221     1.0  0.68027  0.01536  0.95943  1.0000
  H   H1227     1.0  0.53211  0.07185  0.77223  1.0000
  C   C1222     1.0  0.56224  0.00826  0.77122  1.0000
  C   C1223     1.0  0.64816  0.21695  0.97814  1.0000
  C   C1224     1.0  0.55847  0.02036  0.78598  1.0000
  C   C1225     1.0  0.57261  0.13942  0.70397  1.0000
  C   C1226     1.0  0.58367  0.16710  0.68575  1.0000
  N   N103      1.0  0.69832  0.02034  0.95356  1.0000
  C   C1227     1.0  0.62496  0.22932  0.93280  1.0000
  H   H1228     1.0  0.51268  0.05845  0.76738  1.0000
  H   H1229     1.0  0.65983  0.22398  0.98354  1.0000
  H   H1230     1.0  0.70090  0.03249  0.97990  1.0000
  C   C1228     1.0  0.72155  0.02595  0.67128  1.0000
  C   C1229     1.0  0.68992  0.01633  0.67444  1.0000
  C   C1230     1.0  0.57951  0.15738  0.70329  1.0000
  C   C1231     1.0  0.52796  0.06083  0.76344  1.0000
  H   H1231     1.0  0.61862  0.22214  0.92230  1.0000
  H   H1232     1.0  0.72139  0.01913  0.93178  1.0000
  C   C1232     1.0  0.63928  0.24754  0.96090  1.0000
  C   C1233     1.0  0.67059  0.00487  0.94809  1.0000
  H   H1233     1.0  0.98260  0.20181  0.67411  1.0000
  S   S405      1.0  0.56854  0.23848  0.92095  1.0000
  H   H1234     1.0  0.63345  0.20348  0.94910  1.0000
  H   H1235     1.0  0.70926  0.04619  0.95884  1.0000
  C   C1234     1.0  0.55487  0.01355  0.75384  1.0000
  C   C1235     1.0  0.99092  0.01912  0.70933  1.0000
  C   C1236     1.0  0.54597  0.19936  0.67280  1.0000
  H   H1236     1.0  0.98661  0.02900  0.69775  1.0000
  S   S406      1.0  0.51927  0.24619  0.83826  1.0000
  C   C1237     1.0  0.58098  0.15876  0.66914  1.0000
  H   H1237     1.0  0.67799  0.01132  0.66821  1.0000
  H   H1238     1.0  0.51228  0.23317  0.80242  1.0000
  C   C1238     1.0  0.70703  0.01534  0.93638  1.0000
  H   H1239     1.0  0.72305  0.02462  0.96722  1.0000
  S   S407      1.0  0.50566  0.16903  0.75636  1.0000
  H   H1240     1.0  0.55799  0.00416  0.74232  1.0000
  Fe  Fe204     1.0  0.97713  0.36488  0.26436  1.0000
  H   H1241     1.0  0.62536  0.29964  0.08303  1.0000
  S   S408      1.0  0.97800  0.35230  0.29479  1.0000
  Fe  Fe205     1.0  0.95308  0.39505  0.24160  1.0000
  S   S409      1.0  0.97429  0.39408  0.21591  1.0000
  S   S410      1.0  0.92566  0.41478  0.24067  1.0000
  Fe  Fe206     1.0  0.97622  0.36225  0.22155  1.0000
  S   S411      1.0  0.97944  0.34021  0.19911  1.0000
  H   H1242     1.0  0.98326  0.47617  0.26829  1.0000
  S   S412      1.0  0.95318  0.36309  0.24588  1.0000
  S   S413      1.0  0.97515  0.39706  0.26182  1.0000
  Fe  Fe207     1.0  0.78084  0.36746  0.05393  1.0000
  S   S414      1.0  0.75025  0.36496  0.06632  1.0000
  S   S415      1.0  0.80408  0.35429  0.07297  1.0000
  Fe  Fe208     1.0  0.76710  0.39342  0.01999  1.0000
  S   S416      1.0  0.73603  0.39284  0.03028  1.0000
  H   H1243     1.0  0.70575  0.31338  0.00707  1.0000
  Fe  Fe209     1.0  0.74584  0.39666  0.05896  1.0000
  S   S417      1.0  0.72897  0.41630  0.07987  1.0000
  Fe  Fe210     1.0  0.74311  0.36128  0.03667  1.0000
  S   S418      1.0  0.72575  0.34029  0.02396  1.0000
  S   S419      1.0  0.77652  0.39936  0.04829  1.0000
  S   S420      1.0  0.77407  0.36164  0.02466  1.0000
  Fe  Fe211     1.0  0.92988  0.27057  0.09399  1.0000
  S   S421      1.0  0.93108  0.27815  0.06261  1.0000
  Fe  Fe212     1.0  0.93709  0.31127  0.10292  1.0000
  S   S422      1.0  0.93939  0.32118  0.07179  1.0000
  S   S423      1.0  0.93652  0.33442  0.12410  1.0000
  Fe  Fe213     1.0  0.91328  0.30535  0.07034  1.0000
  S   S424      1.0  0.89016  0.31912  0.05165  1.0000
  Fe  Fe214     1.0  0.95693  0.29339  0.06636  1.0000
  S   S425      1.0  0.98596  0.28596  0.04946  1.0000
  S   S426      1.0  0.91009  0.29666  0.10158  1.0000
  S   S427      1.0  0.95659  0.28467  0.09767  1.0000
  S   S428      1.0  0.76287  0.48608  0.11266  1.0000
  H   H1244     1.0  0.72866  0.38225  0.10465  1.0000
  C   C1239     1.0  0.92991  0.40427  0.30948  1.0000
  H   H1245     1.0  0.97093  0.28411  0.28911  1.0000
  H   H1246     1.0  0.60426  0.49572  0.19645  1.0000
  H   H1247     1.0  0.89533  0.40755  0.27883  1.0000
  S   S429      1.0  0.66020  0.28673  0.05741  1.0000
  S   S430      1.0  0.61296  0.27054  0.04178  1.0000
  C   C1240     1.0  0.53348  0.27069  0.09452  1.0000
  H   H1248     1.0  0.68034  0.29241  0.01939  1.0000
  C   C1241     1.0  0.56437  0.26600  0.07582  1.0000
  C   C1242     1.0  0.54750  0.27756  0.08100  1.0000
  H   H1249     1.0  0.94875  0.43801  0.21199  1.0000
  H   H1250     1.0  0.54531  0.29191  0.07452  1.0000
  H   H1251     1.0  0.50789  0.27903  0.05996  1.0000
  S   S431      1.0  0.51252  0.28567  0.10052  1.0000
  H   H1252     1.0  0.97317  0.31316  0.01848  1.0000
  C   C1243     1.0  0.70764  0.32544  0.03373  1.0000
  C   C1244     1.0  0.70023  0.31348  0.02180  1.0000
  C   C1245     1.0  0.68580  0.30153  0.02875  1.0000
  C   C1246     1.0  0.67852  0.30141  0.04779  1.0000
  C   C1247     1.0  0.68589  0.31341  0.05971  1.0000
  C   C1248     1.0  0.70035  0.32534  0.05276  1.0000
  H   H1253     1.0  0.55751  0.27972  0.00983  1.0000
  H   H1254     1.0  0.95062  0.37985  0.31329  1.0000
  N   N104      1.0  0.52874  0.25997  0.04555  1.0000
  H   H1255     1.0  0.70584  0.33444  0.06213  1.0000
  C   C1249     1.0  0.73784  0.43682  0.08749  1.0000
  C   C1250     1.0  0.75614  0.44204  0.08109  1.0000
  C   C1251     1.0  0.76339  0.45742  0.08869  1.0000
  C   C1252     1.0  0.75239  0.46785  0.10263  1.0000
  C   C1253     1.0  0.73388  0.46300  0.10866  1.0000
  C   C1254     1.0  0.72668  0.44751  0.10115  1.0000
  H   H1256     1.0  0.76489  0.43398  0.07060  1.0000
  H   H1257     1.0  0.77773  0.46106  0.08395  1.0000
  H   H1258     1.0  0.72526  0.47089  0.11940  1.0000
  H   H1259     1.0  0.71248  0.44361  0.10616  1.0000
  C   C1255     1.0  0.82743  0.34326  0.06645  1.0000
  C   C1256     1.0  0.83825  0.33375  0.08068  1.0000
  C   C1257     1.0  0.85726  0.32576  0.07636  1.0000
  C   C1258     1.0  0.86575  0.32736  0.05774  1.0000
  C   C1259     1.0  0.85484  0.33666  0.04350  1.0000
  C   C1260     1.0  0.83581  0.34454  0.04779  1.0000
  H   H1260     1.0  0.83189  0.33257  0.09514  1.0000
  H   H1261     1.0  0.86541  0.31858  0.08746  1.0000
  H   H1262     1.0  0.86123  0.33794  0.02904  1.0000
  H   H1263     1.0  0.82771  0.35180  0.03668  1.0000
  C   C1261     1.0  0.92209  0.43546  0.25351  1.0000
  C   C1262     1.0  0.93425  0.43858  0.26722  1.0000
  C   C1263     1.0  0.93067  0.45491  0.27759  1.0000
  C   C1264     1.0  0.91534  0.46862  0.27385  1.0000
  C   C1265     1.0  0.90332  0.46564  0.25997  1.0000
  C   C1266     1.0  0.90655  0.44899  0.25001  1.0000
  H   H1264     1.0  0.94621  0.42828  0.27011  1.0000
  H   H1265     1.0  0.94002  0.45714  0.28832  1.0000
  H   H1266     1.0  0.89141  0.47607  0.25703  1.0000
  H   H1267     1.0  0.89702  0.44668  0.23947  1.0000
  C   C1267     1.0  0.96703  0.33880  0.17850  1.0000
  C   C1268     1.0  0.97134  0.32275  0.16773  1.0000
  C   C1269     1.0  0.96213  0.32108  0.15115  1.0000
  C   C1270     1.0  0.94854  0.33554  0.14501  1.0000
  C   C1271     1.0  0.94434  0.35166  0.15572  1.0000
  C   C1272     1.0  0.95347  0.35328  0.17236  1.0000
  H   H1268     1.0  0.91023  0.37914  0.25539  1.0000
  H   H1269     1.0  0.96557  0.30860  0.14311  1.0000
  H   H1270     1.0  0.93389  0.36296  0.15115  1.0000
  H   H1271     1.0  0.94998  0.36573  0.18041  1.0000
  N   N105      1.0  0.58861  0.28078  0.11017  1.0000
  H   H1272     1.0  0.93088  0.45747  0.21505  1.0000
  C   C1273     1.0  0.97760  0.32307  0.32266  1.0000
  C   C1274     1.0  0.97648  0.32812  0.30320  1.0000
  C   C1275     1.0  0.97403  0.31397  0.29115  1.0000
  H   H1273     1.0  0.97924  0.43736  0.22563  1.0000
  Fe  Fe215     1.0  0.99669  0.39403  0.23667  1.0000
  C   C1276     1.0  0.94952  0.47586  0.23704  1.0000
  N   N106      1.0  0.88741  0.35817  0.09931  1.0000
  C   C1277     1.0  0.87008  0.36453  0.09265  1.0000
  C   C1278     1.0  0.90375  0.35715  0.08723  1.0000
  C   C1279     1.0  0.86883  0.36999  0.07339  1.0000
  C   C1280     1.0  0.90298  0.36218  0.06785  1.0000
  C   C1281     1.0  0.88538  0.36855  0.06091  1.0000
  C   C1282     1.0  0.88863  0.35171  0.11933  1.0000
  H   H1274     1.0  0.85699  0.36485  0.10205  1.0000
  H   H1275     1.0  0.91745  0.35204  0.09253  1.0000
  H   H1276     1.0  0.85498  0.37430  0.06801  1.0000
  H   H1277     1.0  0.91585  0.36051  0.05819  1.0000
  H   H1278     1.0  0.88446  0.37170  0.04580  1.0000
  H   H1279     1.0  0.87478  0.35451  0.12797  1.0000
  H   H1280     1.0  0.89300  0.33611  0.12060  1.0000
  H   H1281     1.0  0.89966  0.35906  0.12544  1.0000
  C   C1283     1.0  0.93061  0.37550  0.29311  1.0000
  N   N107      1.0  0.91518  0.38316  0.28372  1.0000
  C   C1284     1.0  0.94664  0.45377  0.21269  1.0000
  H   H1282     1.0  0.56091  0.27424  0.12270  1.0000
  H   H1283     1.0  0.57506  0.27143  0.06541  1.0000
  H   H1284     1.0  0.68040  0.31348  0.07445  1.0000
  H   H1285     1.0  0.74374  0.36205  0.11365  1.0000
  H   H1286     1.0  0.90785  0.42636  0.30208  1.0000
  C   C1285     1.0  0.56968  0.28656  0.11959  1.0000
  H   H1287     1.0  0.59271  0.30885  0.09804  1.0000
  H   H1288     1.0  0.97391  0.25549  0.03094  1.0000
  C   C1286     1.0  0.59881  0.29417  0.09985  1.0000
  H   H1289     1.0  0.98179  0.31143  0.17229  1.0000
  H   H1290     1.0  0.99433  0.37594  0.18052  1.0000
  Fe  Fe216     1.0  0.64490  0.26489  0.04361  1.0000
  C   C1287     1.0  0.90708  0.40120  0.28682  1.0000
  H   H1291     1.0  0.93615  0.48373  0.23333  1.0000
  H   H1292     1.0  0.97315  0.31764  0.27616  1.0000
  H   H1293     1.0  0.91396  0.35733  0.27002  1.0000
  C   C1288     1.0  0.61725  0.28912  0.09141  1.0000
  C   C1289     1.0  0.99587  0.29194  0.02593  1.0000
  S   S432      1.0  0.91194  0.48934  0.28657  1.0000
  H   H1294     1.0  0.63953  0.26622  0.08726  1.0000
  S   S433      1.0  0.00051  0.36196  0.24051  1.0000
  N   N108      1.0  0.75437  0.38929  0.11454  1.0000
  C   C1290     1.0  0.75175  0.40642  0.12264  1.0000
  C   C1291     1.0  0.77134  0.38396  0.10442  1.0000
  C   C1292     1.0  0.76652  0.41848  0.12111  1.0000
  C   C1293     1.0  0.78628  0.39582  0.10229  1.0000
  C   C1294     1.0  0.78383  0.41319  0.11073  1.0000
  C   C1295     1.0  0.73848  0.37717  0.11578  1.0000
  H   H1295     1.0  0.73799  0.41110  0.12984  1.0000
  H   H1296     1.0  0.77337  0.37053  0.09775  1.0000
  H   H1297     1.0  0.76423  0.43226  0.12720  1.0000
  H   H1298     1.0  0.79950  0.39160  0.09386  1.0000
  H   H1299     1.0  0.79510  0.42277  0.10888  1.0000
  C   C1296     1.0  0.97637  0.30407  0.33003  1.0000
  H   H1300     1.0  0.73020  0.37759  0.12987  1.0000
  Fe  Fe217     1.0  0.61794  0.25651  0.01413  1.0000
  H   H1301     1.0  0.95284  0.49427  0.25916  1.0000
  C   C1297     1.0  0.97592  0.47171  0.25685  1.0000
  C   C1298     1.0  0.61473  0.25674  0.10418  1.0000
  C   C1299     1.0  0.97341  0.44990  0.23289  1.0000
  C   C1300     1.0  0.98684  0.30582  0.01376  1.0000
  C   C1301     1.0  0.93821  0.38594  0.30609  1.0000
  C   C1302     1.0  0.97278  0.29496  0.29854  1.0000
  C   C1303     1.0  0.90739  0.37233  0.26991  1.0000
  N   N109      1.0  0.95662  0.45983  0.22809  1.0000
  H   H1302     1.0  0.95204  0.46072  0.19894  1.0000
  C   C1304     1.0  0.91416  0.41194  0.29989  1.0000
  S   S434      1.0  0.97238  0.26577  0.32658  1.0000
  C   C1305     1.0  0.97396  0.28990  0.31799  1.0000
  C   C1306     1.0  0.59638  0.26228  0.11247  1.0000
  C   C1307     1.0  0.62525  0.27030  0.09372  1.0000
  H   H1303     1.0  0.97953  0.33390  0.33209  1.0000
  H   H1304     1.0  0.56138  0.29718  0.11038  1.0000
  H   H1305     1.0  0.89165  0.37200  0.27311  1.0000
  H   H1306     1.0  0.93728  0.36129  0.29053  1.0000
  H   H1307     1.0  0.57131  0.29285  0.13312  1.0000
  H   H1308     1.0  0.52619  0.28628  0.02862  1.0000
  C   C1308     1.0  0.98327  0.45562  0.24738  1.0000
  H   H1309     1.0  0.99650  0.44754  0.25122  1.0000
  C   C1309     1.0  0.51004  0.26391  0.05623  1.0000
  C   C1310     1.0  0.50787  0.50095  0.20609  1.0000
  C   C1311     1.0  0.95897  0.48197  0.25163  1.0000
  H   H1310     1.0  0.80740  0.49976  0.21949  1.0000
  C   C1312     1.0  0.53487  0.27298  0.03154  1.0000
  C   C1313     1.0  0.55249  0.26939  0.02088  1.0000
  H   H1311     1.0  0.51513  0.50022  0.19201  1.0000
  H   H1312     1.0  0.93583  0.41260  0.31934  1.0000
  H   H1313     1.0  0.50894  0.25511  0.06992  1.0000
  H   H1314     1.0  0.94507  0.25366  0.01405  1.0000
  Fe  Fe218     1.0  0.63287  0.39146  0.61153  1.0000
  S   S435      1.0  0.61772  0.41750  0.62453  1.0000
  S   S436      1.0  0.66501  0.38503  0.60395  1.0000
  Fe  Fe219     1.0  0.59524  0.37373  0.60745  1.0000
  S   S437      1.0  0.57743  0.39882  0.61992  1.0000
  S   S438      1.0  0.57779  0.35172  0.59685  1.0000
  Fe  Fe220     1.0  0.59726  0.41714  0.60182  1.0000
  S   S439      1.0  0.58991  0.44430  0.58339  1.0000
  Fe  Fe221     1.0  0.59906  0.39701  0.64167  1.0000
  S   S440      1.0  0.61357  0.39232  0.58785  1.0000
  S   S441      1.0  0.61571  0.37072  0.63019  1.0000
  H   H1315     1.0  0.72131  0.46805  0.62952  1.0000
  S   S442      1.0  0.51367  0.45860  0.54047  1.0000
  Fe  Fe222     1.0  0.50602  0.48401  0.52000  1.0000
  H   H1316     1.0  0.95417  0.29792  0.57788  1.0000
  C   C1314     1.0  0.95991  0.25861  0.54250  1.0000
  C   C1315     1.0  0.97402  0.27933  0.43391  1.0000
  C   C1316     1.0  0.54479  0.35186  0.63394  1.0000
  H   H1317     1.0  0.62981  0.45754  0.57541  1.0000
  Fe  Fe223     1.0  0.85777  0.29211  0.53908  1.0000
  S   S443      1.0  0.85315  0.27511  0.56680  1.0000
  S   S444      1.0  0.83986  0.32006  0.53154  1.0000
  C   C1317     1.0  0.58747  0.34477  0.66234  1.0000
  N   N110      1.0  0.56183  0.34282  0.64265  1.0000
  S   S445      1.0  0.88986  0.28909  0.53925  1.0000
  H   H1318     1.0  0.72665  0.43342  0.63842  1.0000
  Fe  Fe224     1.0  0.76111  0.44031  0.59012  1.0000
  S   S446      1.0  0.77838  0.42897  0.56427  1.0000
  S   S447      1.0  0.72848  0.44422  0.59661  1.0000
  Fe  Fe225     1.0  0.79659  0.45350  0.60621  1.0000
  S   S448      1.0  0.81610  0.44342  0.58139  1.0000
  S   S449      1.0  0.80450  0.47079  0.62999  1.0000
  Fe  Fe226     1.0  0.79314  0.45618  0.56269  1.0000
  S   S450      1.0  0.80228  0.47018  0.53332  1.0000
  Fe  Fe227     1.0  0.80013  0.41706  0.58454  1.0000
  S   S451      1.0  0.81801  0.38808  0.58643  1.0000
  S   S452      1.0  0.77466  0.46817  0.58726  1.0000
  S   S453      1.0  0.78176  0.42654  0.61070  1.0000
  H   H1319     1.0  0.80192  0.31586  0.58064  1.0000
  H   H1320     1.0  0.83737  0.39956  0.54685  1.0000
  C   C1318     1.0  0.80352  0.49776  0.50352  1.0000
  H   H1321     1.0  0.91210  0.30403  0.42548  1.0000
  H   H1322     1.0  0.65510  0.38838  0.56596  1.0000
  H   H1323     1.0  0.80428  0.28449  0.59940  1.0000
  H   H1324     1.0  0.60718  0.31953  0.66525  1.0000
  C   C1319     1.0  0.85877  0.44679  0.55211  1.0000
  H   H1325     1.0  0.93135  0.26897  0.53530  1.0000
  C   C1320     1.0  0.86352  0.43086  0.56426  1.0000
  C   C1321     1.0  0.83350  0.33863  0.54717  1.0000
  C   C1322     1.0  0.82081  0.35435  0.54161  1.0000
  C   C1323     1.0  0.81546  0.36939  0.55359  1.0000
  C   C1324     1.0  0.82297  0.36898  0.57121  1.0000
  C   C1325     1.0  0.83545  0.35313  0.57684  1.0000
  C   C1326     1.0  0.84062  0.33801  0.56497  1.0000
  H   H1326     1.0  0.81511  0.35492  0.52792  1.0000
  H   H1327     1.0  0.80570  0.38137  0.54911  1.0000
  H   H1328     1.0  0.84132  0.35262  0.59045  1.0000
  H   H1329     1.0  0.85033  0.32599  0.56950  1.0000
  C   C1327     1.0  0.80255  0.28736  0.52434  1.0000
  C   C1328     1.0  0.81966  0.46607  0.64897  1.0000
  N   N111      1.0  0.80261  0.28660  0.54503  1.0000
  C   C1329     1.0  0.95048  0.28818  0.46031  1.0000
  H   H1330     1.0  0.83076  0.43773  0.64202  1.0000
  H   H1331     1.0  0.53214  0.35227  0.64453  1.0000
  N   N112      1.0  0.95503  0.28752  0.44119  1.0000
  H   H1332     1.0  0.97959  0.28799  0.42121  1.0000
  H   H1333     1.0  0.81142  0.49361  0.65991  1.0000
  S   S454      1.0  0.50700  0.48354  0.48824  1.0000
  C   C1330     1.0  0.56953  0.44704  0.57016  1.0000
  C   C1331     1.0  0.56718  0.46274  0.55684  1.0000
  C   C1332     1.0  0.55042  0.46618  0.54715  1.0000
  C   C1333     1.0  0.53583  0.45394  0.55076  1.0000
  C   C1334     1.0  0.53838  0.43803  0.56378  1.0000
  C   C1335     1.0  0.55516  0.43455  0.57339  1.0000
  H   H1334     1.0  0.57826  0.47244  0.55419  1.0000
  H   H1335     1.0  0.54866  0.47844  0.53714  1.0000
  H   H1336     1.0  0.52722  0.42844  0.56659  1.0000
  H   H1337     1.0  0.55681  0.42238  0.58354  1.0000
  C   C1336     1.0  0.58290  0.32672  0.59521  1.0000
  C   C1337     1.0  0.56912  0.31642  0.58846  1.0000
  C   C1338     1.0  0.57198  0.29640  0.58790  1.0000
  C   C1339     1.0  0.58869  0.28644  0.59416  1.0000
  C   C1340     1.0  0.60248  0.29676  0.60091  1.0000
  C   C1341     1.0  0.59966  0.31678  0.60139  1.0000
  H   H1338     1.0  0.55610  0.32396  0.58363  1.0000
  H   H1339     1.0  0.56125  0.28869  0.58266  1.0000
  H   H1340     1.0  0.61547  0.28920  0.60577  1.0000
  H   H1341     1.0  0.61036  0.32449  0.60667  1.0000
  C   C1342     1.0  0.68276  0.40128  0.60329  1.0000
  C   C1343     1.0  0.70166  0.39558  0.59618  1.0000
  C   C1344     1.0  0.71601  0.40835  0.59450  1.0000
  C   C1345     1.0  0.71157  0.42698  0.59994  1.0000
  C   C1346     1.0  0.69277  0.43256  0.60743  1.0000
  C   C1347     1.0  0.67841  0.41981  0.60908  1.0000
  H   H1342     1.0  0.70517  0.38125  0.59174  1.0000
  H   H1343     1.0  0.73040  0.40387  0.58870  1.0000
  H   H1344     1.0  0.68918  0.44695  0.61168  1.0000
  H   H1345     1.0  0.66395  0.42436  0.61461  1.0000
  C   C1348     1.0  0.64011  0.43023  0.56488  1.0000
  H   H1346     1.0  0.66279  0.46749  0.57637  1.0000
  C   C1349     1.0  0.80376  0.26833  0.57496  1.0000
  C   C1350     1.0  0.84632  0.44535  0.53812  1.0000
  H   H1347     1.0  0.69114  0.44526  0.56682  1.0000
  C   C1351     1.0  0.73322  0.46261  0.63772  1.0000
  S   S455      1.0  0.59296  0.26119  0.59427  1.0000
  N   N113      1.0  0.76456  0.44831  0.65733  1.0000
  C   C1352     1.0  0.92353  0.26314  0.59615  1.0000
  C   C1353     1.0  0.58444  0.31550  0.64799  1.0000
  C   C1354     1.0  0.73623  0.44312  0.64273  1.0000
  C   C1355     1.0  0.74602  0.47489  0.64259  1.0000
  N   N114      1.0  0.83897  0.42845  0.53619  1.0000
  H   H1348     1.0  0.98369  0.27566  0.57543  1.0000
  C   C1356     1.0  0.93205  0.29507  0.46742  1.0000
  C   C1357     1.0  0.64236  0.44816  0.57097  1.0000
  C   C1358     1.0  0.80335  0.28512  0.58420  1.0000
  C   C1359     1.0  0.76165  0.46747  0.65256  1.0000
  C   C1360     1.0  0.85587  0.41373  0.56224  1.0000
  H   H1349     1.0  0.81045  0.27435  0.51853  1.0000
  H   H1350     1.0  0.80044  0.31685  0.54598  1.0000
  C   C1361     1.0  0.95594  0.28730  0.56746  1.0000
  H   H1351     1.0  0.78757  0.28868  0.52033  1.0000
  H   H1352     1.0  0.81033  0.42811  0.52945  1.0000
  H   H1353     1.0  0.54724  0.36660  0.62816  1.0000
  Fe  Fe228     1.0  0.88941  0.26237  0.52404  1.0000
  H   H1354     1.0  0.82561  0.43925  0.51111  1.0000
  C   C1362     1.0  0.67671  0.44128  0.56603  1.0000
  C   C1363     1.0  0.94306  0.27097  0.54365  1.0000
  H   H1355     1.0  0.68637  0.41336  0.55705  1.0000
  H   H1356     1.0  0.97733  0.30038  0.34501  1.0000
  C   C1364     1.0  0.56804  0.32416  0.63995  1.0000
  C   C1365     1.0  0.94152  0.29334  0.42877  1.0000
  H   H1357     1.0  0.54176  0.34416  0.62163  1.0000
  H   H1358     1.0  0.89169  0.26308  0.44045  1.0000
  C   C1366     1.0  0.80135  0.30315  0.55405  1.0000
  H   H1359     1.0  0.62569  0.42612  0.56452  1.0000
  N   N115      1.0  0.65580  0.41810  0.55958  1.0000
  C   C1367     1.0  0.97260  0.27468  0.56598  1.0000
  C   C1368     1.0  0.79635  0.49346  0.52242  1.0000
  C   C1369     1.0  0.82511  0.42726  0.52223  1.0000
  C   C1370     1.0  0.92295  0.30027  0.43537  1.0000
  H   H1360     1.0  0.94480  0.29185  0.41369  1.0000
  H   H1361     1.0  0.63880  0.39848  0.54892  1.0000
  H   H1362     1.0  0.66402  0.39508  0.54194  1.0000
  H   H1363     1.0  0.92774  0.29452  0.55789  1.0000
  H   H1364     1.0  0.86415  0.46035  0.55387  1.0000
  H   H1365     1.0  0.98478  0.27873  0.44450  1.0000
  H   H1366     1.0  0.90366  0.30572  0.46020  1.0000
  S   S456      1.0  0.97104  0.26916  0.38488  1.0000
  H   H1367     1.0  0.82797  0.41369  0.51512  1.0000
  C   C1371     1.0  0.80203  0.30268  0.57371  1.0000
  H   H1368     1.0  0.96087  0.28272  0.47022  1.0000
  H   H1369     1.0  0.58971  0.30093  0.64514  1.0000
  C   C1372     1.0  0.51031  0.49674  0.44065  1.0000
  H   H1370     1.0  0.92794  0.28171  0.61773  1.0000
  S   S457      1.0  0.90111  0.27535  0.59133  1.0000
  Fe  Fe229     1.0  0.88536  0.27019  0.56590  1.0000
  C   C1373     1.0  0.59425  0.32593  0.65919  1.0000
  H   H1371     1.0  0.85884  0.40137  0.57199  1.0000
  C   C1374     1.0  0.91823  0.30114  0.45483  1.0000
  H   H1372     1.0  0.87267  0.43191  0.57554  1.0000
  H   H1373     1.0  0.56074  0.31604  0.63096  1.0000
  C   C1375     1.0  0.94109  0.28538  0.55623  1.0000
  S   S458      1.0  0.91591  0.25493  0.50390  1.0000
  H   H1374     1.0  0.81229  0.48690  0.49590  1.0000
  H   H1375     1.0  0.92821  0.29478  0.48260  1.0000
  C   C1376     1.0  0.53285  0.47981  0.58970  1.0000
  H   H1376     1.0  0.96065  0.26661  0.62334  1.0000
  H   H1377     1.0  0.84219  0.45797  0.52915  1.0000
  H   H1378     1.0  0.50431  0.45746  0.45533  1.0000
  C   C1377     1.0  0.81995  0.48010  0.66196  1.0000
  C   C1378     1.0  0.95254  0.26117  0.61307  1.0000
  H   H1379     1.0  0.80999  0.29968  0.51758  1.0000
  Fe  Fe230     1.0  0.97409  0.25481  0.35753  1.0000
  C   C1379     1.0  0.65329  0.39910  0.55379  1.0000
  C   C1380     1.0  0.84356  0.41279  0.54804  1.0000
  C   C1381     1.0  0.67393  0.42329  0.56040  1.0000
  C   C1382     1.0  0.66080  0.45371  0.57148  1.0000
  C   C1383     1.0  0.83079  0.44869  0.65183  1.0000
  S   S459      1.0  0.85740  0.26676  0.52145  1.0000
  H   H1380     1.0  0.53951  0.46719  0.59710  1.0000
  C   C1384     1.0  0.80326  0.26936  0.55526  1.0000
  H   H1381     1.0  0.88781  0.26355  0.47562  1.0000
  C   C1385     1.0  0.93401  0.26970  0.60986  1.0000
  H   H1382     1.0  0.52331  0.46087  0.43675  1.0000
  H   H1383     1.0  0.74417  0.48997  0.63824  1.0000
  C   C1386     1.0  0.54349  0.49520  0.58391  1.0000
  C   C1387     1.0  0.90143  0.25837  0.46855  1.0000
  C   C1388     1.0  0.50750  0.46245  0.44023  1.0000
  C   C1389     1.0  0.75218  0.43614  0.65242  1.0000
  H   H1384     1.0  0.97315  0.26460  0.42983  1.0000
  H   H1385     1.0  0.80383  0.25623  0.54816  1.0000
  H   H1386     1.0  0.55841  0.49457  0.58691  1.0000
  N   N116      1.0  0.50573  0.49594  0.57499  1.0000
  H   H1387     1.0  0.75483  0.42089  0.65558  1.0000
  H   H1388     1.0  0.52475  0.49353  0.44503  1.0000
  N   N117      1.0  0.97448  0.26068  0.55347  1.0000
  H   H1389     1.0  0.50604  0.46796  0.58868  1.0000
  H   H1390     1.0  0.79281  0.43477  0.65569  1.0000
  C   C1390     1.0  0.57116  0.35304  0.65388  1.0000
  C   C1391     1.0  0.90367  0.25811  0.44862  1.0000
  C   C1392     1.0  0.51394  0.48034  0.58492  1.0000
  H   H1391     1.0  0.56623  0.36783  0.65609  1.0000
  H   H1392     1.0  0.77178  0.47707  0.65592  1.0000
  S   S460      1.0  0.92429  0.25412  0.41405  1.0000
  H   H1393     1.0  0.80504  0.25453  0.58287  1.0000
  C   C1393     1.0  0.78174  0.44049  0.66655  1.0000
  C   C1394     1.0  0.96888  0.47887  0.75195  1.0000
  H   H1394     1.0  0.69890  0.37673  0.97885  1.0000
  Fe  Fe231     1.0  0.84973  0.48896  0.76277  1.0000
  S   S461      1.0  0.99070  0.41384  0.74383  1.0000
  Fe  Fe232     1.0  0.88642  0.46196  0.75857  1.0000
  S   S462      1.0  0.89395  0.47322  0.72880  1.0000
  S   S463      1.0  0.90443  0.43808  0.77369  1.0000
  Fe  Fe233     1.0  0.86272  0.47194  0.72443  1.0000
  S   S464      1.0  0.85706  0.45462  0.69977  1.0000
  H   H1395     1.0  0.77679  0.49888  0.92362  1.0000
  S   S465      1.0  0.85563  0.45892  0.75403  1.0000
  C   C1395     1.0  0.74162  0.49768  0.94375  1.0000
  C   C1396     1.0  0.78761  0.49022  0.82751  1.0000
  Fe  Fe234     1.0  0.53395  0.29390  0.88148  1.0000
  Fe  Fe235     1.0  0.88530  0.50215  0.73987  1.0000
  S   S466      1.0  0.53710  0.32589  0.87642  1.0000
  N   N118      1.0  0.75972  0.49335  0.94938  1.0000
  H   H1396     1.0  0.73578  0.41399  0.99302  1.0000
  C   C1397     1.0  0.55393  0.48149  0.75531  1.0000
  H   H1397     1.0  0.93048  0.49006  0.74213  1.0000
  S   S467      1.0  0.53077  0.28227  0.91192  1.0000
  Fe  Fe236     1.0  0.72881  0.46566  0.90568  1.0000
  H   H1398     1.0  0.56985  0.48073  0.75255  1.0000
  S   S468      1.0  0.72096  0.44654  0.93202  1.0000
  Fe  Fe237     1.0  0.75224  0.47193  0.86738  1.0000
  S   S469      1.0  0.77503  0.45745  0.84694  1.0000
  H   H1399     1.0  0.57599  0.39078  0.71273  1.0000
  Fe  Fe238     1.0  0.70991  0.48740  0.87227  1.0000
  H   H1400     1.0  0.97214  0.48724  0.73877  1.0000
  S   S470      1.0  0.75735  0.47680  0.89733  1.0000
  S   S471      1.0  0.72493  0.45800  0.87612  1.0000
  Fe  Fe239     1.0  0.58822  0.43888  0.77218  1.0000
  S   S472      1.0  0.55940  0.42866  0.78124  1.0000
  S   S473      1.0  0.59865  0.44520  0.74114  1.0000
  Fe  Fe240     1.0  0.59824  0.44081  0.81338  1.0000
  S   S474      1.0  0.56954  0.43086  0.82515  1.0000
  S   S475      1.0  0.62169  0.44021  0.83408  1.0000
  Fe  Fe241     1.0  0.57427  0.40930  0.80315  1.0000
  S   S476      1.0  0.57231  0.37702  0.80626  1.0000
  Fe  Fe242     1.0  0.55669  0.45124  0.80240  1.0000
  S   S477      1.0  0.52653  0.46703  0.80689  1.0000
  S   S478      1.0  0.60348  0.41806  0.79246  1.0000
  S   S479      1.0  0.58500  0.46268  0.79219  1.0000
  H   H1401     1.0  0.77685  0.38554  0.94467  1.0000
  C   C1398     1.0  0.66677  0.47894  0.84919  1.0000
  C   C1399     1.0  0.66675  0.46000  0.85661  1.0000
  C   C1400     1.0  0.65295  0.44843  0.85169  1.0000
  C   C1401     1.0  0.63913  0.45548  0.83910  1.0000
  C   C1402     1.0  0.63938  0.47431  0.83138  1.0000
  C   C1403     1.0  0.65306  0.48596  0.83648  1.0000
  H   H1402     1.0  0.67710  0.45437  0.86646  1.0000
  H   H1403     1.0  0.65290  0.43393  0.85782  1.0000
  H   H1404     1.0  0.62887  0.48002  0.82174  1.0000
  S   S480      1.0  0.82519  0.50246  0.78202  1.0000
  C   C1404     1.0  0.54685  0.33970  0.85661  1.0000
  C   C1405     1.0  0.55844  0.33146  0.84175  1.0000
  C   C1406     1.0  0.56606  0.34314  0.82643  1.0000
  C   C1407     1.0  0.56221  0.36311  0.82581  1.0000
  C   C1408     1.0  0.55069  0.37133  0.84070  1.0000
  C   C1409     1.0  0.54309  0.35966  0.85601  1.0000
  H   H1405     1.0  0.56155  0.31612  0.84210  1.0000
  H   H1406     1.0  0.57506  0.33665  0.81502  1.0000
  H   H1407     1.0  0.54766  0.38668  0.84043  1.0000
  H   H1408     1.0  0.53420  0.36617  0.86750  1.0000
  H   H1409     1.0  0.85067  0.43203  0.66943  1.0000
  H   H1410     1.0  0.55535  0.44100  0.70728  1.0000
  H   H1411     1.0  0.56887  0.27725  0.93210  1.0000
  S   S481      1.0  0.55291  0.26815  0.87193  1.0000
  H   H1412     1.0  0.71537  0.38892  0.95096  1.0000
  S   S482      1.0  0.73713  0.50094  0.86163  1.0000
  H   H1413     1.0  0.70655  0.50292  0.82034  1.0000
  C   C1410     1.0  0.81208  0.48970  0.80057  1.0000
  N   N119      1.0  0.73399  0.46079  0.81888  1.0000
  C   C1411     1.0  0.72893  0.47677  0.96932  1.0000
  C   C1412     1.0  0.78975  0.47029  0.82983  1.0000
  C   C1413     1.0  0.80323  0.46015  0.81754  1.0000
  C   C1414     1.0  0.81439  0.46979  0.80302  1.0000
  H   H1414     1.0  0.80499  0.44474  0.81922  1.0000
  H   H1415     1.0  0.82466  0.46180  0.79364  1.0000
  C   C1415     1.0  0.98279  0.46495  0.75848  1.0000
  S   S483      1.0  0.87993  0.49090  0.77003  1.0000
  H   H1416     1.0  0.95126  0.40719  0.70608  1.0000
  C   C1416     1.0  0.76165  0.42060  0.97620  1.0000
  C   C1417     1.0  0.74176  0.42048  0.97979  1.0000
  C   C1418     1.0  0.72954  0.42856  0.96611  1.0000
  C   C1419     1.0  0.73704  0.43693  0.94875  1.0000
  C   C1420     1.0  0.75692  0.43734  0.94523  1.0000
  C   C1421     1.0  0.76916  0.42918  0.95892  1.0000
  S   S484      1.0  0.58710  0.39475  0.67283  1.0000
  H   H1417     1.0  0.71417  0.42827  0.96897  1.0000
  H   H1418     1.0  0.76286  0.44374  0.93191  1.0000
  H   H1419     1.0  0.78455  0.42932  0.95602  1.0000
  C   C1422     1.0  0.96659  0.41966  0.75221  1.0000
  C   C1423     1.0  0.95821  0.41090  0.76884  1.0000
  C   C1424     1.0  0.93907  0.41660  0.77524  1.0000
  C   C1425     1.0  0.92828  0.43112  0.76512  1.0000
  C   C1426     1.0  0.93666  0.43977  0.74843  1.0000
  C   C1427     1.0  0.95571  0.43403  0.74200  1.0000
  H   H1420     1.0  0.96650  0.39984  0.77681  1.0000
  H   H1421     1.0  0.93264  0.40983  0.78817  1.0000
  H   H1422     1.0  0.92851  0.45088  0.74047  1.0000
  H   H1423     1.0  0.96215  0.44086  0.72911  1.0000
  C   C1428     1.0  0.59114  0.40869  0.69164  1.0000
  C   C1429     1.0  0.60106  0.42502  0.68859  1.0000
  C   C1430     1.0  0.60344  0.43588  0.70392  1.0000
  C   C1431     1.0  0.59609  0.43049  0.72248  1.0000
  C   C1432     1.0  0.58621  0.41414  0.72554  1.0000
  C   C1433     1.0  0.58369  0.40338  0.71019  1.0000
  H   H1424     1.0  0.78800  0.45161  0.67365  1.0000
  H   H1425     1.0  0.61109  0.44852  0.70138  1.0000
  H   H1426     1.0  0.58043  0.40984  0.73972  1.0000
  H   H1427     1.0  0.74206  0.43858  0.83912  1.0000
  H   H1428     1.0  0.51017  0.43762  0.75242  1.0000
  H   H1429     1.0  0.77715  0.47699  0.96903  1.0000
  C   C1434     1.0  0.51573  0.49083  0.80287  1.0000
  H   H1430     1.0  0.98894  0.44244  0.77991  1.0000
  C   C1435     1.0  0.76278  0.48083  0.96476  1.0000
  C   C1436     1.0  0.74742  0.47246  0.97503  1.0000
  S   S485      1.0  0.77755  0.40973  0.99263  1.0000
  C   C1437     1.0  0.55484  0.46067  0.72914  1.0000
  H   H1431     1.0  0.83134  0.48790  0.68732  1.0000
  C   C1438     1.0  0.75089  0.48586  0.80219  1.0000
  S   S486      1.0  0.60231  0.27195  0.98996  1.0000
  C   C1439     1.0  0.91227  0.40161  0.73742  1.0000
  H   H1432     1.0  0.74740  0.35981  0.99428  1.0000
  H   H1433     1.0  0.62962  0.27385  0.94563  1.0000
  H   H1434     1.0  0.92660  0.42855  0.68964  1.0000
  N   N120      1.0  0.51105  0.31676  0.82813  1.0000
  C   C1440     1.0  0.84244  0.45957  0.68039  1.0000
  H   H1435     1.0  0.86997  0.42662  0.72908  1.0000
  H   H1436     1.0  0.92476  0.49945  0.76503  1.0000
  H   H1437     1.0  0.58236  0.28981  0.95912  1.0000
  H   H1438     1.0  0.51947  0.34469  0.82020  1.0000
  Fe  Fe243     1.0  0.54746  0.25572  0.90217  1.0000
  C   C1441     1.0  0.94682  0.47052  0.77798  1.0000
  C   C1442     1.0  0.59075  0.26212  0.97239  1.0000
  H   H1439     1.0  0.71083  0.35412  0.98692  1.0000
  H   H1440     1.0  0.64410  0.25486  0.97220  1.0000
  C   C1443     1.0  0.58240  0.27456  0.95841  1.0000
  H   H1441     1.0  0.76262  0.45671  0.80600  1.0000
  C   C1444     1.0  0.71190  0.36978  0.98520  1.0000
  H   H1442     1.0  0.76388  0.49052  0.79450  1.0000
  C   C1445     1.0  0.52268  0.44407  0.74567  1.0000
  H   H1443     1.0  0.74068  0.43110  0.81558  1.0000
  Fe  Fe244     1.0  0.52528  0.25613  0.86696  1.0000
  C   C1446     1.0  0.52156  0.32968  0.81747  1.0000
  C   C1447     1.0  0.73388  0.44085  0.82634  1.0000
  C   C1448     1.0  0.71849  0.47357  0.82299  1.0000
  H   H1444     1.0  0.98872  0.32154  0.98638  1.0000
  S   S487      1.0  0.85466  0.50208  0.73283  1.0000
  C   C1449     1.0  0.93123  0.39902  0.72943  1.0000
  C   C1450     1.0  0.53902  0.30431  0.80030  1.0000
  H   H1445     1.0  0.55077  0.47976  0.77095  1.0000
  H   H1446     1.0  0.71701  0.46980  0.97666  1.0000
  N   N121      1.0  0.60501  0.37458  0.84166  1.0000
  C   C1451     1.0  0.59510  0.36376  0.85531  1.0000
  C   C1452     1.0  0.60602  0.39354  0.84363  1.0000
  C   C1453     1.0  0.58516  0.37209  0.87105  1.0000
  C   C1454     1.0  0.59639  0.40232  0.85925  1.0000
  C   C1455     1.0  0.58575  0.39154  0.87294  1.0000
  C   C1456     1.0  0.61532  0.36572  0.82519  1.0000
  H   H1447     1.0  0.59434  0.34870  0.85382  1.0000
  H   H1448     1.0  0.61417  0.40203  0.83299  1.0000
  H   H1449     1.0  0.57674  0.36357  0.88147  1.0000
  H   H1450     1.0  0.59707  0.41746  0.86055  1.0000
  H   H1451     1.0  0.57794  0.39827  0.88495  1.0000
  H   H1452     1.0  0.60834  0.35314  0.82170  1.0000
  H   H1453     1.0  0.61496  0.37584  0.81236  1.0000
  H   H1454     1.0  0.63046  0.36136  0.82797  1.0000
  N   N122      1.0  0.72965  0.37382  0.97369  1.0000
  C   C1457     1.0  0.74691  0.36763  0.98054  1.0000
  C   C1458     1.0  0.72900  0.38368  0.95633  1.0000
  C   C1459     1.0  0.76412  0.37160  0.97016  1.0000
  C   C1460     1.0  0.74596  0.38780  0.94550  1.0000
  C   C1461     1.0  0.79866  0.49985  0.81290  1.0000
  H   H1455     1.0  0.87868  0.41951  0.75176  1.0000
  H   H1456     1.0  0.74995  0.46214  0.98691  1.0000
  S   S488      1.0  0.68350  0.49440  0.85534  1.0000
  C   C1462     1.0  0.72599  0.48940  0.95354  1.0000
  N   N123      1.0  0.89885  0.41342  0.72835  1.0000
  C   C1463     1.0  0.54792  0.44605  0.72031  1.0000
  H   H1457     1.0  0.52660  0.42597  0.72222  1.0000
  C   C1464     1.0  0.53184  0.43760  0.72875  1.0000
  H   H1458     1.0  0.74538  0.39627  0.93209  1.0000
  C   C1465     1.0  0.52998  0.45875  0.75410  1.0000
  C   C1466     1.0  0.92269  0.42079  0.70301  1.0000
  C   C1467     1.0  0.93646  0.40874  0.71215  1.0000
  C   C1468     1.0  0.51442  0.29771  0.82531  1.0000
  C   C1469     1.0  0.75006  0.46671  0.80866  1.0000
  N   N124      1.0  0.54618  0.46647  0.74606  1.0000
  H   H1459     1.0  0.90842  0.39449  0.75114  1.0000
  H   H1460     1.0  0.71904  0.43693  0.83037  1.0000
  C   C1470     1.0  0.87902  0.41542  0.73691  1.0000
  H   H1461     1.0  0.55005  0.29941  0.78957  1.0000
  H   H1462     1.0  0.87248  0.40177  0.73687  1.0000
  C   C1471     1.0  0.90380  0.42292  0.71132  1.0000
  C   C1472     1.0  0.76361  0.38179  0.95255  1.0000
  H   H1463     1.0  0.94197  0.39002  0.73688  1.0000
  C   C1473     1.0  0.71881  0.49282  0.81674  1.0000
  H   H1464     1.0  0.60685  0.42931  0.67441  1.0000
  C   C1474     1.0  0.97853  0.45380  0.77515  1.0000
  H   H1465     1.0  0.77836  0.42892  0.67748  1.0000
  C   C1475     1.0  0.96044  0.45658  0.78500  1.0000
  H   H1466     1.0  0.89318  0.43231  0.70410  1.0000
  H   H1467     1.0  0.56762  0.46688  0.72270  1.0000
  C   C1476     1.0  0.57468  0.26747  0.94308  1.0000
  H   H1468     1.0  0.93252  0.47199  0.78528  1.0000
  H   H1469     1.0  0.95670  0.44744  0.79752  1.0000
  C   C1477     1.0  0.52845  0.29120  0.81141  1.0000
  C   C1478     1.0  0.83124  0.47691  0.67755  1.0000
  C   C1479     1.0  0.99570  0.31052  0.99552  1.0000
  H   H1470     1.0  0.77774  0.36735  0.97604  1.0000
  H   H1471     1.0  0.77729  0.49821  0.83684  1.0000
  C   C1480     1.0  0.53552  0.32370  0.80325  1.0000
  H   H1472     1.0  0.54390  0.33403  0.79496  1.0000
  H   H1473     1.0  0.52291  0.46359  0.76736  1.0000
  S   S489      1.0  0.71200  0.49451  0.90251  1.0000
  N   N125      1.0  0.95123  0.48160  0.76177  1.0000
  C   C1481     1.0  0.93667  0.49570  0.75415  1.0000
  S   S490      1.0  0.50661  0.28276  0.87506  1.0000
  H   H1474     1.0  0.53116  0.27603  0.80946  1.0000
  H   H1475     1.0  0.70585  0.46897  0.83135  1.0000
  H   H1476     1.0  0.61676  0.25743  0.92043  1.0000
  C   C1482     1.0  0.77577  0.50228  0.93873  1.0000
  C   C1483     1.0  0.73516  0.49899  0.80637  1.0000
  H   H1477     1.0  0.65289  0.50058  0.83063  1.0000
  H   H1478     1.0  0.78975  0.49736  0.94438  1.0000
  H   H1479     1.0  0.59503  0.35313  0.67091  1.0000
  H   H1480     1.0  0.99655  0.46229  0.75035  1.0000
  Fe  Fe245     1.0  0.50480  0.26920  0.90468  1.0000
  H   H1481     1.0  0.50412  0.32472  0.85626  1.0000
  H   H1482     1.0  0.54752  0.49571  0.75011  1.0000
  H   H1483     1.0  0.71177  0.49234  0.94859  1.0000
  H   H1484     1.0  0.50634  0.28734  0.83387  1.0000
  C   C1484     1.0  0.84209  0.44550  0.66743  1.0000
  C   C1485     1.0  0.63116  0.25839  0.94583  1.0000
  H   H1485     1.0  0.71195  0.37500  0.99957  1.0000
  N   N126      1.0  0.62444  0.57737  0.26179  1.0000
  S   S491      1.0  0.71853  0.52325  0.12910  1.0000
  Fe  Fe246     1.0  0.75795  0.53657  0.16033  1.0000
  S   S492      1.0  0.72903  0.55340  0.15891  1.0000
  S   S493      1.0  0.78046  0.55040  0.17466  1.0000
  Fe  Fe247     1.0  0.71678  0.52514  0.16080  1.0000
  S   S494      1.0  0.69051  0.51855  0.18087  1.0000
  Fe  Fe248     1.0  0.73320  0.55026  0.12749  1.0000
  S   S495      1.0  0.72594  0.57512  0.10637  1.0000
  Fe  Fe249     1.0  0.00163  0.62713  0.25688  1.0000
  S   S496      1.0  0.76267  0.53553  0.12865  1.0000
  Fe  Fe250     1.0  0.53454  0.72708  0.15729  1.0000
  H   H1486     1.0  0.74453  0.57051  0.02875  1.0000
  S   S497      1.0  0.55266  0.70075  0.16875  1.0000
  C   C1486     1.0  0.51241  0.73998  0.21768  1.0000
  Fe  Fe251     1.0  0.77201  0.61465  0.00922  1.0000
  S   S498      1.0  0.53393  0.73298  0.12581  1.0000
  Fe  Fe252     1.0  0.56792  0.56920  0.25225  1.0000
  S   S499      1.0  0.57819  0.59335  0.23267  1.0000
  S   S500      1.0  0.57710  0.56226  0.28224  1.0000
  Fe  Fe253     1.0  0.54763  0.55214  0.22169  1.0000
  S   S501      1.0  0.55691  0.57521  0.19980  1.0000
  S   S502      1.0  0.53274  0.52808  0.21036  1.0000
  Fe  Fe254     1.0  0.58579  0.57099  0.21159  1.0000
  S   S503      1.0  0.61286  0.57327  0.19146  1.0000
  Fe  Fe255     1.0  0.54873  0.59599  0.22217  1.0000
  S   S504      1.0  0.53014  0.62392  0.21589  1.0000
  S   S505      1.0  0.57744  0.54654  0.23165  1.0000
  S   S506      1.0  0.53756  0.57326  0.24360  1.0000
  S   S507      1.0  0.50348  0.73792  0.16322  1.0000
  S   S508      1.0  0.88978  0.52367  0.24646  1.0000
  Fe  Fe256     1.0  0.86300  0.54761  0.29061  1.0000
  S   S509      1.0  0.85945  0.55918  0.26046  1.0000
  H   H1487     1.0  0.58626  0.57193  0.16331  1.0000
  Fe  Fe257     1.0  0.85783  0.52886  0.25374  1.0000
  S   S510      1.0  0.83577  0.51593  0.23810  1.0000
  Fe  Fe258     1.0  0.89164  0.55313  0.25586  1.0000
  S   S511      1.0  0.91007  0.57458  0.23927  1.0000
  S   S512      1.0  0.85914  0.51755  0.28433  1.0000
  S   S513      1.0  0.89518  0.54348  0.28621  1.0000
  C   C1487     1.0  0.90552  0.61786  0.26917  1.0000
  S   S514      1.0  0.97968  0.60840  0.27244  1.0000
  C   C1488     1.0  0.61293  0.51835  0.17629  1.0000
  S   S515      1.0  0.78223  0.59484  0.03378  1.0000
  H   H1488     1.0  0.79605  0.51867  0.25775  1.0000
  C   C1489     1.0  0.69254  0.69807  0.00252  1.0000
  C   C1490     1.0  0.97578  0.71018  0.00910  1.0000
  C   C1491     1.0  0.80209  0.56235  0.27183  1.0000
  H   H1489     1.0  0.69924  0.63887  0.00690  1.0000
  H   H1490     1.0  0.71466  0.54081  0.08335  1.0000
  N   N127      1.0  0.74817  0.54437  0.04604  1.0000
  C   C1492     1.0  0.76084  0.52915  0.05090  1.0000
  C   C1493     1.0  0.93058  0.58245  0.24796  1.0000
  C   C1494     1.0  0.93598  0.57654  0.26612  1.0000
  C   C1495     1.0  0.95147  0.58416  0.27312  1.0000
  C   C1496     1.0  0.96183  0.59768  0.26204  1.0000
  C   C1497     1.0  0.95669  0.60337  0.24374  1.0000
  C   C1498     1.0  0.94110  0.59581  0.23678  1.0000
  H   H1491     1.0  0.92805  0.56631  0.27490  1.0000
  H   H1492     1.0  0.95529  0.57972  0.28731  1.0000
  H   H1493     1.0  0.96448  0.61383  0.23509  1.0000
  H   H1494     1.0  0.93705  0.60048  0.22271  1.0000
  C   C1499     1.0  0.62233  0.59655  0.25690  1.0000
  C   C1500     1.0  0.63100  0.58355  0.29325  1.0000
  S   S516      1.0  0.59878  0.74181  0.03236  1.0000
  H   H1495     1.0  0.62997  0.61313  0.29905  1.0000
  H   H1496     1.0  0.51550  0.68759  0.18430  1.0000
  H   H1497     1.0  0.63388  0.57833  0.30759  1.0000
  C   C1501     1.0  0.62229  0.56359  0.24791  1.0000
  C   C1502     1.0  0.88284  0.59666  0.28411  1.0000
  C   C1503     1.0  0.54588  0.67927  0.18131  1.0000
  C   C1504     1.0  0.56029  0.66463  0.18551  1.0000
  C   C1505     1.0  0.55573  0.64750  0.19579  1.0000
  C   C1506     1.0  0.53667  0.64488  0.20220  1.0000
  C   C1507     1.0  0.52226  0.65954  0.19798  1.0000
  C   C1508     1.0  0.52679  0.67658  0.18750  1.0000
  H   H1498     1.0  0.57511  0.66652  0.18083  1.0000
  H   H1499     1.0  0.56698  0.63640  0.19893  1.0000
  H   H1500     1.0  0.63595  0.55445  0.24527  1.0000
  C   C1509     1.0  0.79851  0.52954  0.26702  1.0000
  C   C1510     1.0  0.79579  0.54045  0.19223  1.0000
  C   C1511     1.0  0.80876  0.55192  0.19873  1.0000
  C   C1512     1.0  0.82124  0.54466  0.21259  1.0000
  C   C1513     1.0  0.82087  0.52580  0.22016  1.0000
  C   C1514     1.0  0.80784  0.51437  0.21374  1.0000
  C   C1515     1.0  0.79538  0.52162  0.19986  1.0000
  H   H1501     1.0  0.67459  0.63393  0.00573  1.0000
  H   H1502     1.0  0.83118  0.55362  0.21736  1.0000
  C   C1516     1.0  0.72748  0.53720  0.07408  1.0000
  C   C1517     1.0  0.62882  0.60311  0.28844  1.0000
  C   C1518     1.0  0.74162  0.58016  0.08610  1.0000
  C   C1519     1.0  0.73621  0.59528  0.07307  1.0000
  C   C1520     1.0  0.74846  0.59986  0.05688  1.0000
  C   C1521     1.0  0.76628  0.58940  0.05370  1.0000
  C   C1522     1.0  0.77164  0.57418  0.06664  1.0000
  C   C1523     1.0  0.75934  0.56953  0.08275  1.0000
  H   H1503     1.0  0.72252  0.60357  0.07556  1.0000
  H   H1504     1.0  0.74422  0.61164  0.04701  1.0000
  H   H1505     1.0  0.78539  0.56598  0.06421  1.0000
  H   H1506     1.0  0.76364  0.55780  0.09259  1.0000
  C   C1524     1.0  0.66945  0.53443  0.18439  1.0000
  C   C1525     1.0  0.65510  0.52975  0.19874  1.0000
  C   C1526     1.0  0.63787  0.54170  0.20149  1.0000
  C   C1527     1.0  0.63477  0.55837  0.18977  1.0000
  C   C1528     1.0  0.64916  0.56311  0.17555  1.0000
  C   C1529     1.0  0.66642  0.55126  0.17289  1.0000
  C   C1530     1.0  0.59321  0.58569  0.32816  1.0000
  H   H1507     1.0  0.62687  0.53777  0.21238  1.0000
  H   H1508     1.0  0.64691  0.57598  0.16641  1.0000
  H   H1509     1.0  0.67730  0.55503  0.16181  1.0000
  H   H1510     1.0  0.58199  0.62690  0.30187  1.0000
  H   H1511     1.0  0.61882  0.60180  0.24275  1.0000
  C   C1531     1.0  0.53350  0.74431  0.04282  1.0000
  C   C1532     1.0  0.57945  0.59877  0.29309  1.0000
  C   C1533     1.0  0.58191  0.57917  0.29789  1.0000
  C   C1534     1.0  0.58872  0.57270  0.31551  1.0000
  C   C1535     1.0  0.58390  0.61175  0.30573  1.0000
  H   H1512     1.0  0.57418  0.60393  0.27961  1.0000
  H   H1513     1.0  0.59068  0.55754  0.31932  1.0000
  C   C1536     1.0  0.81192  0.53246  0.31642  1.0000
  C   C1537     1.0  0.90816  0.60594  0.30113  1.0000
  H   H1514     1.0  0.52430  0.71633  0.20128  1.0000
  H   H1515     1.0  0.78551  0.51262  0.19504  1.0000
  H   H1516     1.0  0.58836  0.55987  0.14158  1.0000
  C   C1538     1.0  0.62862  0.57080  0.27972  1.0000
  Fe  Fe259     1.0  0.89118  0.51428  0.27722  1.0000
  H   H1517     1.0  0.69057  0.69673  0.01785  1.0000
  H   H1518     1.0  0.92601  0.64152  0.29325  1.0000
  C   C1539     1.0  0.50385  0.51438  0.23656  1.0000
  H   H1519     1.0  0.87055  0.58866  0.28355  1.0000
  C   C1540     1.0  0.54601  0.73384  0.20737  1.0000
  C   C1541     1.0  0.60503  0.71932  0.09837  1.0000
  H   H1520     1.0  0.56062  0.74046  0.09342  1.0000
  H   H1521     1.0  0.62972  0.55562  0.28373  1.0000
  C   C1542     1.0  0.75713  0.51761  0.06753  1.0000
  H   H1522     1.0  0.61848  0.57068  0.23404  1.0000
  H   H1523     1.0  0.65733  0.51674  0.20768  1.0000
  C   C1543     1.0  0.57453  0.53222  0.17844  1.0000
  H   H1524     1.0  0.88709  0.58684  0.31297  1.0000
  S   S517      1.0  0.72320  0.67139  0.00658  1.0000
  H   H1525     1.0  0.77398  0.52595  0.04199  1.0000
  H   H1526     1.0  0.61728  0.54313  0.15746  1.0000
  C   C1544     1.0  0.62441  0.60970  0.27016  1.0000
  C   C1545     1.0  0.58546  0.72435  0.13363  1.0000
  H   H1527     1.0  0.88282  0.60798  0.25505  1.0000
  S   S518      1.0  0.84692  0.56676  0.31258  1.0000
  H   H1528     1.0  0.97455  0.71047  0.03965  1.0000
  N   N128      1.0  0.91465  0.61680  0.28547  1.0000
  C   C1546     1.0  0.59424  0.70495  0.10715  1.0000
  H   H1529     1.0  0.80923  0.56650  0.19292  1.0000
  H   H1530     1.0  0.63223  0.74819  0.10243  1.0000
  H   H1531     1.0  0.55948  0.53757  0.17953  1.0000
  H   H1532     1.0  0.50790  0.52404  0.24626  1.0000
  C   C1547     1.0  0.75211  0.55593  0.02827  1.0000
  C   C1548     1.0  0.99221  0.69828  0.19857  1.0000
  C   C1549     1.0  0.51347  0.51371  0.21840  1.0000
  H   H1533     1.0  0.73734  0.51284  0.09204  1.0000
  H   H1534     1.0  0.57462  0.72724  0.06338  1.0000
  C   C1550     1.0  0.60672  0.53515  0.16595  1.0000
  H   H1535     1.0  0.91089  0.62607  0.25659  1.0000
  H   H1536     1.0  0.80453  0.51994  0.32262  1.0000
  C   C1551     1.0  0.58026  0.51549  0.18913  1.0000
  H   H1537     1.0  0.56972  0.50815  0.19838  1.0000
  H   H1538     1.0  0.80973  0.56758  0.29941  1.0000
  H   H1539     1.0  0.61071  0.55445  0.25334  1.0000
  C   C1552     1.0  0.58443  0.70751  0.12492  1.0000
  H   H1540     1.0  0.80431  0.50951  0.29052  1.0000
  C   C1553     1.0  0.93093  0.62803  0.28653  1.0000
  C   C1554     1.0  0.58172  0.55972  0.15640  1.0000
  S   S519      1.0  0.74560  0.50811  0.16418  1.0000
  C   C1555     1.0  0.59086  0.60530  0.32327  1.0000
  C   C1556     1.0  0.74032  0.52168  0.07912  1.0000
  H   H1541     1.0  0.93814  0.63150  0.27222  1.0000
  C   C1557     1.0  0.57702  0.74160  0.06623  1.0000
  Fe  Fe260     1.0  0.74802  0.50837  0.13216  1.0000
  H   H1542     1.0  0.62231  0.62490  0.26641  1.0000
  H   H1543     1.0  0.61251  0.71731  0.08448  1.0000
  H   H1544     1.0  0.94209  0.61984  0.29481  1.0000
  N   N129      1.0  0.76888  0.59337  0.12733  1.0000
  C   C1558     1.0  0.78557  0.58157  0.12739  1.0000
  C   C1559     1.0  0.76538  0.60577  0.11200  1.0000
  C   C1560     1.0  0.79925  0.58199  0.11176  1.0000
  C   C1561     1.0  0.77884  0.60672  0.09621  1.0000
  C   C1562     1.0  0.79584  0.59469  0.09610  1.0000
  C   C1563     1.0  0.75469  0.59313  0.14381  1.0000
  H   H1545     1.0  0.78835  0.57164  0.13950  1.0000
  H   H1546     1.0  0.75190  0.61470  0.11176  1.0000
  H   H1547     1.0  0.81232  0.57242  0.11178  1.0000
  H   H1548     1.0  0.77581  0.61623  0.08386  1.0000
  H   H1549     1.0  0.80613  0.59496  0.08370  1.0000
  H   H1550     1.0  0.74042  0.59069  0.13937  1.0000
  H   H1551     1.0  0.75860  0.58160  0.15473  1.0000
  H   H1552     1.0  0.75354  0.60691  0.15052  1.0000
  C   C1564     1.0  0.80324  0.52446  0.28555  1.0000
  C   C1565     1.0  0.89219  0.59566  0.30067  1.0000
  N   N130      1.0  0.58772  0.54180  0.16701  1.0000
  C   C1566     1.0  0.73157  0.54837  0.05730  1.0000
  H   H1553     1.0  0.91543  0.60504  0.31401  1.0000
  Fe  Fe261     1.0  0.50364  0.74626  0.13171  1.0000
  C   C1567     1.0  0.98370  0.71144  0.02654  1.0000
  H   H1554     1.0  0.87809  0.64217  0.00026  1.0000
  S   S520      1.0  0.99775  0.65698  0.24323  1.0000
  N   N131      1.0  0.60573  0.73591  0.10693  1.0000
  H   H1555     1.0  0.72164  0.56058  0.05366  1.0000
  C   C1568     1.0  0.88954  0.60776  0.26823  1.0000
  H   H1556     1.0  0.74750  0.54901  0.01617  1.0000
  H   H1557     1.0  0.55759  0.72530  0.19988  1.0000
  C   C1569     1.0  0.52727  0.72878  0.20816  1.0000
  H   H1558     1.0  0.68074  0.65790  0.00822  1.0000
  C   C1570     1.0  0.56896  0.74911  0.08323  1.0000
  H   H1559     1.0  0.72235  0.73104  0.00905  1.0000
  H   H1560     1.0  0.54419  0.58096  0.32742  1.0000
  H   H1561     1.0  0.59343  0.69194  0.10021  1.0000
  H   H1562     1.0  0.76720  0.50562  0.07158  1.0000
  H   H1563     1.0  0.80213  0.57715  0.26648  1.0000
  H   H1564     1.0  0.51539  0.74215  0.06895  1.0000
  H   H1565     1.0  0.56588  0.56187  0.15593  1.0000
  H   H1566     1.0  0.99137  0.69319  0.18425  1.0000
  H   H1567     1.0  0.57596  0.69653  0.13197  1.0000
  N   N132      1.0  0.80673  0.53810  0.29712  1.0000
  H   H1568     1.0  0.79491  0.55256  0.24556  1.0000
  C   C1571     1.0  0.79803  0.54859  0.26011  1.0000
  H   H1569     1.0  0.76767  0.55791  0.02568  1.0000
  H   H1570     1.0  0.96071  0.70828  0.00898  1.0000
  S   S521      1.0  0.77626  0.64588  0.00407  1.0000
  H   H1571     1.0  0.57789  0.72643  0.14743  1.0000
  C   C1572     1.0  0.80643  0.55682  0.29042  1.0000
  C   C1573     1.0  0.58829  0.75244  0.05296  1.0000
  H   H1572     1.0  0.61825  0.75053  0.08207  1.0000
  H   H1573     1.0  0.50748  0.65764  0.20285  1.0000
  H   H1574     1.0  0.62809  0.51331  0.17558  1.0000
  C   C1574     1.0  0.59960  0.50855  0.18804  1.0000
  C   C1575     1.0  0.54969  0.75002  0.21600  1.0000
  C   C1576     1.0  0.59618  0.73851  0.12437  1.0000
  H   H1575     1.0  0.98937  0.68593  0.20880  1.0000
  H   H1576     1.0  0.98093  0.71015  0.20117  1.0000
  C   C1577     1.0  0.68527  0.64434  0.00140  1.0000
  C   C1578     1.0  0.61749  0.75061  0.09778  1.0000
  H   H1577     1.0  0.82768  0.52886  0.31621  1.0000
  H   H1578     1.0  0.54493  0.61585  0.32927  1.0000
  S   S522      1.0  0.74140  0.61852  0.00253  1.0000
  H   H1579     1.0  0.53108  0.73033  0.03872  1.0000
  H   H1580     1.0  0.80779  0.54419  0.32601  1.0000
  H   H1581     1.0  0.59651  0.75176  0.13107  1.0000
  C   C1579     1.0  0.52478  0.75101  0.05989  1.0000
  H   H1582     1.0  0.55286  0.75049  0.01812  1.0000
  Fe  Fe262     1.0  0.60438  0.61805  0.36905  1.0000
  S   S523      1.0  0.58512  0.63491  0.39003  1.0000
  C   C1580     1.0  0.96923  0.69231  0.65103  1.0000
  Fe  Fe263     1.0  0.63229  0.60394  0.39917  1.0000
  S   S524      1.0  0.61472  0.61974  0.42232  1.0000
  S   S525      1.0  0.65933  0.58375  0.40324  1.0000
  Fe  Fe264     1.0  0.58932  0.60904  0.41050  1.0000
  S   S526      1.0  0.56151  0.60057  0.42691  1.0000
  Fe  Fe265     1.0  0.61177  0.64428  0.40006  1.0000
  S   S527      1.0  0.61644  0.67584  0.40067  1.0000
  S   S528      1.0  0.60687  0.59161  0.38876  1.0000
  S   S529      1.0  0.63102  0.62901  0.37766  1.0000
  S   S530      1.0  0.92887  0.73981  0.61203  1.0000
  H   H1583     1.0  0.88060  0.71619  0.43285  1.0000
  C   C1581     1.0  0.51598  0.51120  0.56940  1.0000
  C   C1582     1.0  0.91020  0.73384  0.58085  1.0000
  S   S531      1.0  0.90010  0.72250  0.48378  1.0000
  H   H1584     1.0  0.55209  0.73404  0.41756  1.0000
  C   C1583     1.0  0.90646  0.73630  0.56158  1.0000
  S   S532      1.0  0.86274  0.73033  0.51384  1.0000
  Fe  Fe266     1.0  0.89105  0.74258  0.50670  1.0000
  C   C1584     1.0  0.55028  0.57430  0.35665  1.0000
  Fe  Fe267     1.0  0.87058  0.71213  0.48898  1.0000
  S   S533      1.0  0.86693  0.68008  0.49113  1.0000
  S   S534      1.0  0.85748  0.73372  0.46791  1.0000
  Fe  Fe268     1.0  0.76723  0.59190  0.43307  1.0000
  S   S535      1.0  0.77688  0.56058  0.43734  1.0000
  S   S536      1.0  0.73834  0.60802  0.42714  1.0000
  Fe  Fe269     1.0  0.80580  0.60451  0.44329  1.0000
  S   S537      1.0  0.81828  0.57403  0.44845  1.0000
  S   S538      1.0  0.81982  0.63278  0.44101  1.0000
  Fe  Fe270     1.0  0.80502  0.56840  0.42183  1.0000
  S   S539      1.0  0.82296  0.54929  0.40087  1.0000
  Fe  Fe271     1.0  0.78952  0.56806  0.46353  1.0000
  S   S540      1.0  0.78259  0.55372  0.49324  1.0000
  S   S541      1.0  0.79438  0.59904  0.41572  1.0000
  S   S542      1.0  0.77806  0.59912  0.46019  1.0000
  C   C1585     1.0  0.54698  0.60621  0.34173  1.0000
  C   C1586     1.0  0.78815  0.53030  0.50395  1.0000
  C   C1587     1.0  0.90081  0.68522  0.45275  1.0000
  S   S543      1.0  0.51848  0.51203  0.51898  1.0000
  C   C1588     1.0  0.78096  0.52597  0.52283  1.0000
  S   S544      1.0  0.90126  0.75126  0.43480  1.0000
  H   H1585     1.0  0.88503  0.69483  0.41997  1.0000
  H   H1586     1.0  0.77226  0.53686  0.53048  1.0000
  H   H1587     1.0  0.94094  0.68071  0.47658  1.0000
  H   H1588     1.0  0.74517  0.54717  0.48021  1.0000
  H   H1589     1.0  0.50956  0.52351  0.56137  1.0000
  H   H1590     1.0  0.90895  0.66807  0.47771  1.0000
  S   S545      1.0  0.57834  0.74046  0.45397  1.0000
  C   C1589     1.0  0.85271  0.66751  0.47771  1.0000
  C   C1590     1.0  0.84992  0.64832  0.48325  1.0000
  C   C1591     1.0  0.83942  0.63760  0.47259  1.0000
  C   C1592     1.0  0.83181  0.64588  0.45603  1.0000
  C   C1593     1.0  0.83477  0.66500  0.45039  1.0000
  C   C1594     1.0  0.84497  0.67581  0.46123  1.0000
  H   H1591     1.0  0.85584  0.64172  0.49597  1.0000
  H   H1592     1.0  0.83734  0.62291  0.47712  1.0000
  H   H1593     1.0  0.82898  0.67157  0.43761  1.0000
  H   H1594     1.0  0.84691  0.69054  0.45676  1.0000
  C   C1595     1.0  0.79943  0.51601  0.49432  1.0000
  C   C1596     1.0  0.84659  0.54420  0.34660  1.0000
  C   C1597     1.0  0.84091  0.54064  0.36605  1.0000
  C   C1598     1.0  0.82920  0.55437  0.37627  1.0000
  C   C1599     1.0  0.82328  0.57178  0.36682  1.0000
  C   C1600     1.0  0.82898  0.57535  0.34738  1.0000
  H   H1595     1.0  0.59855  0.58057  0.34161  1.0000
  H   H1596     1.0  0.84562  0.52715  0.37324  1.0000
  H   H1597     1.0  0.81421  0.58245  0.37445  1.0000
  H   H1598     1.0  0.98342  0.69658  0.64629  1.0000
  N   N133      1.0  0.55407  0.58138  0.37318  1.0000
  C   C1601     1.0  0.55767  0.56853  0.38996  1.0000
  C   C1602     1.0  0.89188  0.70650  0.42554  1.0000
  H   H1599     1.0  0.95457  0.71305  0.63215  1.0000
  H   H1600     1.0  0.55934  0.55328  0.38677  1.0000
  H   H1601     1.0  0.88673  0.68000  0.45365  1.0000
  C   C1603     1.0  0.54787  0.54229  0.45621  1.0000
  C   C1604     1.0  0.53466  0.55838  0.45787  1.0000
  C   C1605     1.0  0.53920  0.57614  0.44902  1.0000
  C   C1606     1.0  0.55704  0.57809  0.43864  1.0000
  C   C1607     1.0  0.57032  0.56204  0.43713  1.0000
  C   C1608     1.0  0.56567  0.54422  0.44573  1.0000
  H   H1602     1.0  0.52093  0.55714  0.46588  1.0000
  H   H1603     1.0  0.52884  0.58848  0.45026  1.0000
  H   H1604     1.0  0.58415  0.56331  0.42929  1.0000
  H   H1605     1.0  0.57600  0.53186  0.44439  1.0000
  C   C1609     1.0  0.93127  0.68550  0.46577  1.0000
  C   C1610     1.0  0.60705  0.69303  0.41691  1.0000
  C   C1611     1.0  0.59360  0.68893  0.43210  1.0000
  C   C1612     1.0  0.58534  0.70354  0.44359  1.0000
  C   C1613     1.0  0.59026  0.72239  0.43992  1.0000
  C   C1614     1.0  0.60400  0.72640  0.42496  1.0000
  C   C1615     1.0  0.61238  0.71176  0.41359  1.0000
  H   H1606     1.0  0.58942  0.67458  0.43486  1.0000
  H   H1607     1.0  0.57485  0.70026  0.45524  1.0000
  C   C1616     1.0  0.93633  0.69937  0.45157  1.0000
  H   H1608     1.0  0.62289  0.71502  0.40196  1.0000
  C   C1617     1.0  0.68148  0.59087  0.40905  1.0000
  C   C1618     1.0  0.69752  0.57727  0.40994  1.0000
  C   C1619     1.0  0.71523  0.58230  0.41497  1.0000
  C   C1620     1.0  0.71701  0.60100  0.41927  1.0000
  C   C1621     1.0  0.70102  0.61459  0.41825  1.0000
  C   C1622     1.0  0.68336  0.60959  0.41317  1.0000
  H   H1609     1.0  0.69622  0.56277  0.40673  1.0000
  H   H1610     1.0  0.72740  0.57169  0.41571  1.0000
  H   H1611     1.0  0.70223  0.62911  0.42151  1.0000
  H   H1612     1.0  0.67117  0.62020  0.41253  1.0000
  H   H1613     1.0  0.90211  0.72434  0.59045  1.0000
  H   H1614     1.0  0.54570  0.57076  0.40119  1.0000
  S   S546      1.0  0.98191  0.74197  0.62473  1.0000
  H   H1615     1.0  0.57391  0.68512  0.38723  1.0000
  Fe  Fe272     1.0  0.97885  0.74671  0.65587  1.0000
  H   H1616     1.0  0.55216  0.69965  0.41297  1.0000
  H   H1617     1.0  0.71785  0.54127  0.46213  1.0000
  H   H1618     1.0  0.59494  0.70527  0.36615  1.0000
  C   C1623     1.0  0.58482  0.71174  0.37683  1.0000
  C   C1624     1.0  0.58442  0.73117  0.37968  1.0000
  C   C1625     1.0  0.91695  0.74845  0.54903  1.0000
  H   H1619     1.0  0.59411  0.73976  0.37075  1.0000
  H   H1620     1.0  0.55035  0.55907  0.35558  1.0000
  H   H1621     1.0  0.89566  0.72862  0.55644  1.0000
  C   C1626     1.0  0.54661  0.58661  0.34070  1.0000
  S   S547      1.0  0.54245  0.51938  0.46613  1.0000
  C   C1627     1.0  0.56079  0.70853  0.40316  1.0000
  C   C1628     1.0  0.57294  0.70039  0.38868  1.0000
  H   H1622     1.0  0.80506  0.51904  0.47981  1.0000
  H   H1623     1.0  0.54330  0.52289  0.56874  1.0000
  N   N134      1.0  0.72442  0.59237  0.47462  1.0000
  C   C1629     1.0  0.73708  0.57746  0.48024  1.0000
  C   C1630     1.0  0.70940  0.58927  0.46467  1.0000
  C   C1631     1.0  0.73486  0.55886  0.47595  1.0000
  C   C1632     1.0  0.70664  0.57083  0.46027  1.0000
  C   C1633     1.0  0.71955  0.55557  0.46585  1.0000
  C   C1634     1.0  0.72755  0.61193  0.47824  1.0000
  H   H1624     1.0  0.74917  0.57988  0.48790  1.0000
  H   H1625     1.0  0.69981  0.60116  0.45952  1.0000
  H   H1626     1.0  0.92727  0.71695  0.42745  1.0000
  H   H1627     1.0  0.69492  0.56856  0.45201  1.0000
  C   C1635     1.0  0.91341  0.67833  0.46636  1.0000
  H   H1628     1.0  0.71368  0.62054  0.48145  1.0000
  H   H1629     1.0  0.73631  0.61222  0.49043  1.0000
  H   H1630     1.0  0.73521  0.61876  0.46547  1.0000
  C   C1636     1.0  0.53506  0.51099  0.57364  1.0000
  H   H1631     1.0  0.57110  0.57158  0.39576  1.0000
  H   H1632     1.0  0.55726  0.60616  0.38744  1.0000
  C   C1637     1.0  0.55425  0.60058  0.37434  1.0000
  H   H1633     1.0  0.60817  0.74074  0.42216  1.0000
  N   N135      1.0  0.85390  0.60068  0.41372  1.0000
  C   C1638     1.0  0.85983  0.60329  0.43108  1.0000
  C   C1639     1.0  0.85442  0.58273  0.40763  1.0000
  C   C1640     1.0  0.86662  0.58769  0.44277  1.0000
  C   C1641     1.0  0.86125  0.56681  0.41888  1.0000
  C   C1642     1.0  0.86735  0.56933  0.43658  1.0000
  C   C1643     1.0  0.84601  0.61699  0.40187  1.0000
  H   H1634     1.0  0.85893  0.61745  0.43619  1.0000
  H   H1635     1.0  0.84915  0.58059  0.39416  1.0000
  H   H1636     1.0  0.87078  0.58982  0.45673  1.0000
  H   H1637     1.0  0.86108  0.55258  0.41415  1.0000
  H   H1638     1.0  0.87209  0.55704  0.44568  1.0000
  H   H1639     1.0  0.85166  0.61599  0.38681  1.0000
  H   H1640     1.0  0.83010  0.61732  0.40290  1.0000
  H   H1641     1.0  0.84952  0.63077  0.40661  1.0000
  H   H1642     1.0  0.82421  0.58883  0.34021  1.0000
  C   C1644     1.0  0.78499  0.50770  0.53201  1.0000
  Fe  Fe273     1.0  0.88655  0.74526  0.46426  1.0000
  H   H1643     1.0  0.55192  0.62841  0.35937  1.0000
  C   C1645     1.0  0.56085  0.72798  0.40569  1.0000
  H   H1644     1.0  0.94994  0.70547  0.45123  1.0000
  C   C1646     1.0  0.55089  0.61327  0.35862  1.0000
  S   S548      1.0  0.59628  0.62238  0.33844  1.0000
  H   H1645     1.0  0.89865  0.71498  0.41331  1.0000
  N   N136      1.0  0.90587  0.69880  0.43889  1.0000
  C   C1647     1.0  0.92338  0.70587  0.43816  1.0000
  N   N137      1.0  0.57262  0.73899  0.39407  1.0000
  H   H1646     1.0  0.51089  0.52705  0.44243  1.0000
  Fe  Fe274     1.0  0.51711  0.51301  0.48739  1.0000
  C   C1648     1.0  0.84063  0.56160  0.33716  1.0000
  C   C1649     1.0  0.92442  0.74348  0.58775  1.0000
  H   H1647     1.0  0.77939  0.50471  0.54654  1.0000
  C   C1650     1.0  0.95307  0.70175  0.64329  1.0000
  H   H1648     1.0  0.85560  0.53349  0.33898  1.0000
  H   H1649     1.0  0.92230  0.70413  0.64398  1.0000
  C   C1651     1.0  0.93487  0.69667  0.64997  1.0000
  C   C1652     1.0  0.96695  0.67771  0.66532  1.0000
  Fe  Fe275     1.0  0.85132  0.75273  0.49226  1.0000
  S   S549      1.0  0.91302  0.75233  0.52463  1.0000
  C   C1653     1.0  0.93309  0.68206  0.66436  1.0000
  C   C1654     1.0  0.50253  0.51577  0.43924  1.0000
  C   C1655     1.0  0.94913  0.70876  0.84313  1.0000
  C   C1656     1.0  0.90308  0.69732  0.87059  1.0000
  S   S550      1.0  0.90366  0.52673  0.73136  1.0000
  H   H1650     1.0  0.79676  0.51525  0.81113  1.0000
  H   H1651     1.0  0.82030  0.66357  0.99147  1.0000
  S   S551      1.0  0.50609  0.73315  0.86705  1.0000
  S   S552      1.0  0.66632  0.72795  0.95917  1.0000
  Fe  Fe276     1.0  0.97032  0.63797  0.79619  1.0000
  H   H1652     1.0  0.97959  0.67068  0.67147  1.0000
  S   S553      1.0  0.97727  0.65392  0.82133  1.0000
  Fe  Fe277     1.0  0.94884  0.60862  0.77857  1.0000
  S   S554      1.0  0.96279  0.61521  0.74945  1.0000
  S   S555      1.0  0.92803  0.58567  0.78632  1.0000
  N   N138      1.0  0.92092  0.70611  0.86473  1.0000
  Fe  Fe278     1.0  0.95804  0.64611  0.75583  1.0000
  S   S556      1.0  0.94487  0.66909  0.73513  1.0000
  S   S557      1.0  0.97646  0.60633  0.79281  1.0000
  S   S558      1.0  0.94166  0.63973  0.78417  1.0000
  C   C1657     1.0  0.56079  0.73479  0.88028  1.0000
  S   S559      1.0  0.75524  0.64438  0.96426  1.0000
  Fe  Fe279     1.0  0.64261  0.74815  0.97293  1.0000
  S   S560      1.0  0.78322  0.60732  0.97966  1.0000
  Fe  Fe280     1.0  0.78533  0.63905  0.97393  1.0000
  S   S561      1.0  0.81097  0.65023  0.95545  1.0000
  Fe  Fe281     1.0  0.75261  0.61315  0.97250  1.0000
  S   S562      1.0  0.73326  0.59446  0.95953  1.0000
  N   N139      1.0  0.85527  0.55087  0.78099  1.0000
  Fe  Fe282     1.0  0.90647  0.70286  0.95742  1.0000
  S   S563      1.0  0.93321  0.68243  0.95460  1.0000
  S   S564      1.0  0.88055  0.69397  0.97687  1.0000
  Fe  Fe283     1.0  0.92385  0.73297  0.92931  1.0000
  S   S565      1.0  0.95136  0.71422  0.92423  1.0000
  Fe  Fe284     1.0  0.93292  0.69022  0.92315  1.0000
  S   S566      1.0  0.93110  0.66794  0.90180  1.0000
  Fe  Fe285     1.0  0.94959  0.70822  0.95619  1.0000
  C   C1658     1.0  0.53989  0.73944  0.92681  1.0000
  S   S567      1.0  0.90543  0.70935  0.92618  1.0000
  S   S568      1.0  0.92283  0.72835  0.96113  1.0000
  H   H1653     1.0  0.92553  0.55912  0.72439  1.0000
  S   S569      1.0  0.52610  0.72361  0.91686  1.0000
  C   C1659     1.0  0.87134  0.57059  0.74893  1.0000
  S   S570      1.0  0.75583  0.52996  0.90096  1.0000
  H   H1654     1.0  0.84761  0.68060  0.99918  1.0000
  H   H1655     1.0  0.95368  0.74270  0.98673  1.0000
  H   H1656     1.0  0.50848  0.59813  0.81970  1.0000
  H   H1657     1.0  0.87190  0.63010  0.93365  1.0000
  H   H1658     1.0  0.96805  0.72915  0.84944  1.0000
  H   H1659     1.0  0.54185  0.50385  0.79420  1.0000
  C   C1660     1.0  0.74003  0.57611  0.94377  1.0000
  C   C1661     1.0  0.72606  0.56452  0.93947  1.0000
  C   C1662     1.0  0.73063  0.55017  0.92659  1.0000
  C   C1663     1.0  0.74921  0.54743  0.91768  1.0000
  C   C1664     1.0  0.76320  0.55891  0.92211  1.0000
  C   C1665     1.0  0.75869  0.57309  0.93516  1.0000
  H   H1660     1.0  0.71155  0.56679  0.94599  1.0000
  H   H1661     1.0  0.71967  0.54159  0.92322  1.0000
  H   H1662     1.0  0.77760  0.55695  0.91526  1.0000
  H   H1663     1.0  0.76956  0.58194  0.93823  1.0000
  C   C1666     1.0  0.82887  0.66430  0.96155  1.0000
  C   C1667     1.0  0.83065  0.66827  0.98027  1.0000
  C   C1668     1.0  0.84619  0.67793  0.98461  1.0000
  C   C1669     1.0  0.86014  0.68371  0.97034  1.0000
  C   C1670     1.0  0.85801  0.68027  0.95154  1.0000
  C   C1671     1.0  0.84249  0.67062  0.94721  1.0000
  H   H1664     1.0  0.86841  0.68486  0.94037  1.0000
  H   H1665     1.0  0.84118  0.66776  0.93267  1.0000
  C   C1672     1.0  0.96450  0.65702  0.84389  1.0000
  C   C1673     1.0  0.94722  0.64906  0.84933  1.0000
  C   C1674     1.0  0.93742  0.65230  0.86724  1.0000
  C   C1675     1.0  0.94456  0.66380  0.87978  1.0000
  C   C1676     1.0  0.96185  0.67176  0.87436  1.0000
  C   C1677     1.0  0.97182  0.66823  0.85659  1.0000
  H   H1666     1.0  0.94147  0.64032  0.83978  1.0000
  H   H1667     1.0  0.92415  0.64592  0.87133  1.0000
  H   H1668     1.0  0.96761  0.68050  0.88388  1.0000
  H   H1669     1.0  0.98525  0.67435  0.85258  1.0000
  C   C1678     1.0  0.68207  0.71238  0.97254  1.0000
  C   C1679     1.0  0.67740  0.66464  0.95212  1.0000
  H   H1670     1.0  0.86107  0.54932  0.73326  1.0000
  C   C1680     1.0  0.67575  0.66157  0.97189  1.0000
  C   C1681     1.0  0.71029  0.68909  0.97323  1.0000
  C   C1682     1.0  0.69748  0.70168  0.96304  1.0000
  S   S571      1.0  0.61166  0.74255  0.97944  1.0000
  C   C1683     1.0  0.93205  0.70052  0.84891  1.0000
  H   H1671     1.0  0.72204  0.68084  0.96577  1.0000
  H   H1672     1.0  0.69949  0.70309  0.94771  1.0000
  H   H1673     1.0  0.50313  0.53333  0.83638  1.0000
  C   C1684     1.0  0.55655  0.73201  0.93539  1.0000
  H   H1674     1.0  0.90212  0.64176  0.92436  1.0000
  H   H1675     1.0  0.56036  0.71676  0.93636  1.0000
  C   C1685     1.0  0.97845  0.70933  0.69337  1.0000
  C   C1686     1.0  0.98832  0.69505  0.70461  1.0000
  C   C1687     1.0  0.97826  0.68290  0.71780  1.0000
  C   C1688     1.0  0.95820  0.68500  0.71993  1.0000
  C   C1689     1.0  0.94833  0.69945  0.70882  1.0000
  C   C1690     1.0  0.95838  0.71157  0.69559  1.0000
  C   C1691     1.0  0.70783  0.68722  0.99303  1.0000
  H   H1676     1.0  0.98603  0.67178  0.72620  1.0000
  H   H1677     1.0  0.93280  0.70110  0.71031  1.0000
  H   H1678     1.0  0.95060  0.72243  0.68694  1.0000
  C   C1692     1.0  0.86172  0.55457  0.74713  1.0000
  H   H1679     1.0  0.90424  0.68230  0.86663  1.0000
  C   C1693     1.0  0.91149  0.54211  0.74708  1.0000
  C   C1694     1.0  0.90710  0.53989  0.76672  1.0000
  C   C1695     1.0  0.91279  0.55303  0.77859  1.0000
  C   C1696     1.0  0.92290  0.56849  0.77099  1.0000
  C   C1697     1.0  0.92768  0.57042  0.75141  1.0000
  C   C1698     1.0  0.92200  0.55729  0.73955  1.0000
  H   H1680     1.0  0.89896  0.52836  0.77275  1.0000
  H   H1681     1.0  0.90904  0.55142  0.79372  1.0000
  H   H1682     1.0  0.93544  0.58225  0.74536  1.0000
  C   C1699     1.0  0.85365  0.54487  0.76341  1.0000
  C   C1700     1.0  0.86001  0.62601  0.96244  1.0000
  H   H1683     1.0  0.92814  0.68917  0.84099  1.0000
  C   C1701     1.0  0.87276  0.57674  0.76690  1.0000
  H   H1684     1.0  0.85068  0.62543  0.99222  1.0000
  C   C1702     1.0  0.87709  0.63869  0.98580  1.0000
  C   C1703     1.0  0.86465  0.56661  0.78290  1.0000
  C   C1704     1.0  0.84706  0.54004  0.79774  1.0000
  H   H1685     1.0  0.86634  0.57121  0.79681  1.0000
  H   H1686     1.0  0.84934  0.54619  0.81118  1.0000
  H   H1687     1.0  0.83135  0.53974  0.79703  1.0000
  H   H1688     1.0  0.85370  0.52505  0.79824  1.0000
  N   N140      1.0  0.88887  0.64115  0.95290  1.0000
  C   C1705     1.0  0.94680  0.65724  0.68657  1.0000
  H   H1689     1.0  0.84756  0.61964  0.95869  1.0000
  C   C1706     1.0  0.70028  0.63592  0.97024  1.0000
  H   H1690     1.0  0.66552  0.67085  0.98016  1.0000
  N   N141      1.0  0.68734  0.64754  0.98070  1.0000
  H   H1691     1.0  0.56593  0.72656  0.89313  1.0000
  Fe  Fe286     1.0  0.99013  0.61464  0.76383  1.0000
  H   H1692     1.0  0.66858  0.67619  0.94527  1.0000
  H   H1693     1.0  0.57061  0.73109  0.86768  1.0000
  C   C1707     1.0  0.87377  0.63209  0.94832  1.0000
  H   H1694     1.0  0.51012  0.56299  0.82026  1.0000
  C   C1708     1.0  0.92594  0.72040  0.87469  1.0000
  C   C1709     1.0  0.71541  0.74055  0.99845  1.0000
  C   C1710     1.0  0.70234  0.63859  0.95046  1.0000
  H   H1695     1.0  0.70917  0.62452  0.97715  1.0000
  H   H1696     1.0  0.90007  0.69672  0.88627  1.0000
  H   H1697     1.0  0.52548  0.53638  0.78857  1.0000
  C   C1711     1.0  0.89056  0.64462  0.97132  1.0000
  C   C1712     1.0  0.98737  0.71127  0.99196  1.0000
  C   C1713     1.0  0.70938  0.74904  0.96583  1.0000
  H   H1698     1.0  0.89951  0.66408  0.93537  1.0000
  C   C1714     1.0  0.69088  0.65312  0.94137  1.0000
  H   H1699     1.0  0.87827  0.57781  0.73648  1.0000
  S   S572      1.0  0.97818  0.71043  0.96929  1.0000
  H   H1700     1.0  0.96689  0.74629  0.95142  1.0000
  C   C1715     1.0  0.95466  0.72292  0.85355  1.0000
  C   C1716     1.0  0.86172  0.62934  0.98128  1.0000
  S   S573      1.0  0.99178  0.72384  0.67659  1.0000
  C   C1717     1.0  0.90263  0.64841  0.93795  1.0000
  H   H1701     1.0  0.93442  0.66089  0.69703  1.0000
  H   H1702     1.0  0.84630  0.53234  0.76194  1.0000
  C   C1718     1.0  0.56857  0.74416  0.94241  1.0000
  C   C1719     1.0  0.94293  0.72892  0.86935  1.0000
  H   H1703     1.0  0.89090  0.70557  0.86389  1.0000
  C   C1720     1.0  0.51705  0.52467  0.79345  1.0000
  H   H1704     1.0  0.73921  0.50741  0.93145  1.0000
  S   S574      1.0  0.98640  0.64611  0.76798  1.0000
  H   H1705     1.0  0.95827  0.70367  0.83100  1.0000
  C   C1721     1.0  0.52639  0.50617  0.79652  1.0000
  H   H1706     1.0  0.77342  0.51805  0.93919  1.0000
  C   C1722     1.0  0.67968  0.71056  0.99234  1.0000
  H   H1707     1.0  0.95959  0.65448  0.69486  1.0000
  H   H1708     1.0  0.91889  0.67819  0.66953  1.0000
  H   H1709     1.0  0.90193  0.65273  0.97482  1.0000
  H   H1710     1.0  0.97317  0.74595  0.70702  1.0000
  H   H1711     1.0  0.94458  0.64396  0.68003  1.0000
  Fe  Fe287     1.0  0.74615  0.64925  0.99478  1.0000
  H   H1712     1.0  0.58157  0.73825  0.94857  1.0000
  H   H1713     1.0  0.69248  0.65544  0.92604  1.0000
  H   H1714     1.0  0.71282  0.62941  0.94230  1.0000
  H   H1715     1.0  0.54642  0.73011  0.87873  1.0000
  H   H1716     1.0  0.91690  0.72523  0.88695  1.0000
  N   N142      1.0  0.94902  0.67287  0.67190  1.0000
  H   H1717     1.0  0.88083  0.58878  0.76850  1.0000
  Fe  Fe288     1.0  0.74050  0.50533  0.89226  1.0000
  C   C1723     1.0  0.71899  0.73715  0.97931  1.0000
  H   H1718     1.0  0.91756  0.64542  0.94207  1.0000
  H   H1719     1.0  0.73575  0.51396  0.80184  1.0000
  H   H1720     1.0  0.66791  0.71876  0.99981  1.0000
  H   H1721     1.0  0.72868  0.72501  0.97500  1.0000
  H   H1722     1.0  0.94694  0.74001  0.87757  1.0000
  H   H1723     1.0  0.94296  0.50921  0.74901  1.0000
  H   H1724     1.0  0.71165  0.74589  0.95104  1.0000
  H   H1725     1.0  0.97671  0.75155  0.98773  1.0000
  H   H1726     1.0  0.58333  0.75310  0.89943  1.0000
  H   H1727     1.0  0.71021  0.99955  0.30918  1.0000
  N   N143      1.0  0.52824  0.76843  0.06529  1.0000
  Fe  Fe289     1.0  0.54272  0.76177  0.12978  1.0000
  Fe  Fe290     1.0  0.51499  0.76656  0.16529  1.0000
  H   H1728     1.0  0.50417  0.78135  0.08147  1.0000
  Fe  Fe291     1.0  0.52052  0.86860  0.29962  1.0000
  S   S575      1.0  0.54948  0.86231  0.28424  1.0000
  N   N144      1.0  0.51617  0.75567  0.22633  1.0000
  H   H1729     1.0  0.58254  0.87516  0.25727  1.0000
  S   S576      1.0  0.53510  0.89169  0.24968  1.0000
  Fe  Fe292     1.0  0.53371  0.86045  0.25824  1.0000
  S   S577      1.0  0.54613  0.83894  0.23667  1.0000
  Fe  Fe293     1.0  0.54834  0.89395  0.27683  1.0000
  S   S578      1.0  0.57503  0.90788  0.28215  1.0000
  C   C1724     1.0  0.67865  0.91011  0.01390  1.0000
  S   S579      1.0  0.52012  0.90047  0.29357  1.0000
  C   C1725     1.0  0.54557  0.75567  0.03117  1.0000
  S   S580      1.0  0.50443  0.86445  0.27418  1.0000
  H   H1730     1.0  0.69009  0.90700  0.02324  1.0000
  H   H1731     1.0  0.59988  0.77950  0.04650  1.0000
  H   H1732     1.0  0.57345  0.87058  0.23544  1.0000
  Fe  Fe294     1.0  0.61302  0.75727  0.00627  1.0000
  C   C1726     1.0  0.58021  0.93106  0.27293  1.0000
  C   C1727     1.0  0.56923  0.94149  0.25956  1.0000
  C   C1728     1.0  0.57497  0.95895  0.25105  1.0000
  C   C1729     1.0  0.59160  0.96626  0.25594  1.0000
  C   C1730     1.0  0.60218  0.95620  0.26986  1.0000
  C   C1731     1.0  0.59655  0.93862  0.27821  1.0000
  H   H1733     1.0  0.55665  0.93583  0.25534  1.0000
  H   H1734     1.0  0.56672  0.96661  0.24028  1.0000
  H   H1735     1.0  0.61506  0.96161  0.27369  1.0000
  H   H1736     1.0  0.60517  0.93065  0.28853  1.0000
  H   H1737     1.0  0.55815  0.78242  0.02767  1.0000
  H   H1738     1.0  0.56300  0.89926  0.32628  1.0000
  C   C1732     1.0  0.66872  0.89547  0.00869  1.0000
  C   C1733     1.0  0.51512  0.80108  0.20133  1.0000
  H   H1739     1.0  0.57473  0.93077  0.20346  1.0000
  H   H1740     1.0  0.54579  0.88209  0.32495  1.0000
  C   C1734     1.0  0.53367  0.82481  0.22305  1.0000
  C   C1735     1.0  0.54423  0.81342  0.20953  1.0000
  C   C1736     1.0  0.53504  0.80171  0.19868  1.0000
  C   C1737     1.0  0.51373  0.82431  0.22556  1.0000
  H   H1741     1.0  0.55964  0.81371  0.20741  1.0000
  H   H1742     1.0  0.54339  0.79304  0.18840  1.0000
  H   H1743     1.0  0.60163  0.94552  0.21536  1.0000
  C   C1738     1.0  0.53452  0.76079  0.22556  1.0000
  H   H1744     1.0  0.59850  0.86501  0.23843  1.0000
  S   S581      1.0  0.56439  0.77644  0.10943  1.0000
  C   C1739     1.0  0.53970  0.77986  0.05375  1.0000
  H   H1745     1.0  0.56415  0.75430  0.21518  1.0000
  C   C1740     1.0  0.58336  0.77846  0.07385  1.0000
  C   C1741     1.0  0.57238  0.76745  0.08727  1.0000
  H   H1746     1.0  0.55093  0.83782  0.32435  1.0000
  C   C1742     1.0  0.50455  0.81251  0.21478  1.0000
  S   S582      1.0  0.59935  0.98705  0.24307  1.0000
  H   H1747     1.0  0.54245  0.79367  0.05803  1.0000
  H   H1748     1.0  0.58607  0.79268  0.07687  1.0000
  H   H1749     1.0  0.56751  0.89828  0.21583  1.0000
  S   S583      1.0  0.51260  0.77553  0.13433  1.0000
  S   S584      1.0  0.64461  0.76049  0.00066  1.0000
  H   H1750     1.0  0.62079  0.92754  0.23962  1.0000
  H   H1751     1.0  0.67237  0.88082  0.01388  1.0000
  C   C1743     1.0  0.54856  0.77364  0.03654  1.0000
  C   C1744     1.0  0.59123  0.77103  0.05667  1.0000
  N   N145      1.0  0.59015  0.89467  0.23423  1.0000
  C   C1745     1.0  0.60493  0.90270  0.24083  1.0000
  C   C1746     1.0  0.57942  0.90451  0.22089  1.0000
  C   C1747     1.0  0.60945  0.92096  0.23394  1.0000
  C   C1748     1.0  0.58347  0.92286  0.21377  1.0000
  C   C1749     1.0  0.59863  0.93108  0.22033  1.0000
  C   C1750     1.0  0.58594  0.87543  0.24166  1.0000
  H   H1752     1.0  0.61295  0.89520  0.25192  1.0000
  H   H1753     1.0  0.52728  0.78577  0.08885  1.0000
  S   S585      1.0  0.99416  0.97842  0.02208  1.0000
  H   H1754     1.0  0.57029  0.87660  0.31655  1.0000
  S   S586      1.0  0.54591  0.75523  0.16091  1.0000
  H   H1755     1.0  0.68164  0.94033  0.01070  1.0000
  H   H1756     1.0  0.61114  0.76509  0.10140  1.0000
  H   H1757     1.0  0.69961  0.75871  0.01872  1.0000
  C   C1751     1.0  0.68429  0.00261  0.01315  1.0000
  H   H1758     1.0  0.51849  0.76300  0.09428  1.0000
  C   C1752     1.0  0.51908  0.77506  0.08329  1.0000
  H   H1759     1.0  0.99360  0.93125  0.01086  1.0000
  C   C1753     1.0  0.56079  0.88384  0.32775  1.0000
  H   H1760     1.0  0.50502  0.77995  0.24169  1.0000
  Fe  Fe295     1.0  0.50656  0.89593  0.26699  1.0000
  H   H1761     1.0  0.50538  0.83297  0.23585  1.0000
  C   C1754     1.0  0.70261  0.75597  0.00387  1.0000
  H   H1762     1.0  0.53748  0.77347  0.23208  1.0000
  C   C1755     1.0  0.67393  0.92881  0.00685  1.0000
  S   S587      1.0  0.51278  0.85840  0.33050  1.0000
  S   S588      1.0  0.50293  0.78527  0.18934  1.0000
  H   H1763     1.0  0.66914  0.00075  0.01552  1.0000
  C   C1756     1.0  0.69594  0.99151  0.00008  1.0000
  H   H1764     1.0  0.95559  0.76268  0.00029  1.0000
  C   C1757     1.0  0.52035  0.79109  0.50925  1.0000
  S   S589      1.0  0.77115  0.97613  0.40178  1.0000
  S   S590      1.0  0.82201  0.76754  0.50147  1.0000
  S   S591      1.0  0.71178  0.96773  0.66386  1.0000
  Fe  Fe296     1.0  0.98981  0.77209  0.62065  1.0000
  S   S592      1.0  0.95924  0.78497  0.61835  1.0000
  H   H1765     1.0  0.81391  0.94750  0.60273  1.0000
  H   H1766     1.0  0.53693  0.88545  0.35905  1.0000
  C   C1758     1.0  0.96903  0.81199  0.39984  1.0000
  H   H1767     1.0  0.87358  0.75686  0.54296  1.0000
  Fe  Fe297     1.0  0.95811  0.78691  0.65001  1.0000
  C   C1759     1.0  0.81755  0.98509  0.38126  1.0000
  C   C1760     1.0  0.77950  0.78025  0.46579  1.0000
  Fe  Fe298     1.0  0.78605  0.96796  0.65058  1.0000
  S   S593      1.0  0.76482  0.94918  0.64139  1.0000
  H   H1768     1.0  0.81196  0.97827  0.39460  1.0000
  Fe  Fe299     1.0  0.76769  0.96599  0.61328  1.0000
  S   S594      1.0  0.77399  0.95387  0.58424  1.0000
  Fe  Fe300     1.0  0.74193  0.97218  0.65039  1.0000
  S   S595      1.0  0.79012  0.98365  0.62184  1.0000
  Fe  Fe301     1.0  0.71436  0.86043  0.49186  1.0000
  S   S596      1.0  0.73412  0.87032  0.46693  1.0000
  S   S597      1.0  0.69419  0.83678  0.49122  1.0000
  Fe  Fe302     1.0  0.73319  0.88365  0.51939  1.0000
  S   S598      1.0  0.75418  0.89486  0.49650  1.0000
  S   S599      1.0  0.72957  0.89190  0.55007  1.0000
  Fe  Fe303     1.0  0.72920  0.89939  0.47860  1.0000
  S   S600      1.0  0.72041  0.92839  0.46399  1.0000
  Fe  Fe304     1.0  0.75759  0.86486  0.48684  1.0000
  S   S601      1.0  0.78698  0.85119  0.47612  1.0000
  S   S602      1.0  0.70770  0.88983  0.50220  1.0000
  S   S603      1.0  0.73837  0.85328  0.51111  1.0000
  Fe  Fe305     1.0  0.57745  0.77277  0.44842  1.0000
  S   S604      1.0  0.54943  0.78626  0.43842  1.0000
  C   C1761     1.0  0.95488  0.76185  0.41214  1.0000
  Fe  Fe306     1.0  0.59353  0.81152  0.45065  1.0000
  S   S605      1.0  0.56634  0.82717  0.44062  1.0000
  S   S606      1.0  0.61462  0.83344  0.45451  1.0000
  Fe  Fe307     1.0  0.55049  0.80678  0.46099  1.0000
  S   S607      1.0  0.52477  0.81937  0.47990  1.0000
  Fe  Fe308     1.0  0.56761  0.80538  0.41908  1.0000
  S   S608      1.0  0.56814  0.81011  0.38676  1.0000
  S   S609      1.0  0.57747  0.79238  0.47224  1.0000
  S   S610      1.0  0.59573  0.79067  0.42787  1.0000
  C   C1762     1.0  0.54609  0.83599  0.33923  1.0000
  Fe  Fe309     1.0  0.95137  0.75495  0.62464  1.0000
  H   H1769     1.0  0.96565  0.83216  0.34534  1.0000
  C   C1763     1.0  0.76129  0.78778  0.47287  1.0000
  H   H1770     1.0  0.95763  0.80867  0.37346  1.0000
  H   H1771     1.0  0.53215  0.78279  0.50191  1.0000
  C   C1764     1.0  0.80709  0.98607  0.36541  1.0000
  S   S611      1.0  0.94014  0.81054  0.66603  1.0000
  C   C1765     1.0  0.67219  0.83614  0.48067  1.0000
  C   C1766     1.0  0.66338  0.81894  0.48212  1.0000
  C   C1767     1.0  0.64595  0.81770  0.47403  1.0000
  C   C1768     1.0  0.63704  0.83372  0.46439  1.0000
  C   C1769     1.0  0.64578  0.85093  0.46304  1.0000
  C   C1770     1.0  0.66324  0.85214  0.47104  1.0000
  H   H1772     1.0  0.67015  0.80645  0.48951  1.0000
  H   H1773     1.0  0.63948  0.80435  0.47521  1.0000
  H   H1774     1.0  0.63903  0.86345  0.45568  1.0000
  H   H1775     1.0  0.66976  0.86548  0.46978  1.0000
  C   C1771     1.0  0.99657  0.83008  0.39774  1.0000
  C   C1772     1.0  0.52187  0.84144  0.36520  1.0000
  C   C1773     1.0  0.53383  0.83093  0.37797  1.0000
  C   C1774     1.0  0.55201  0.82287  0.37140  1.0000
  C   C1775     1.0  0.55796  0.82532  0.35195  1.0000
  H   H1776     1.0  0.86115  0.83296  0.50590  1.0000
  H   H1777     1.0  0.52901  0.82910  0.39286  1.0000
  H   H1778     1.0  0.57194  0.81907  0.34670  1.0000
  C   C1776     1.0  0.76178  0.93618  0.57534  1.0000
  C   C1777     1.0  0.74586  0.92872  0.58548  1.0000
  C   C1778     1.0  0.73641  0.91488  0.57768  1.0000
  C   C1779     1.0  0.74264  0.90851  0.55965  1.0000
  C   C1780     1.0  0.75873  0.91578  0.54965  1.0000
  C   C1781     1.0  0.76831  0.92945  0.55754  1.0000
  H   H1779     1.0  0.74077  0.93367  0.59926  1.0000
  H   H1780     1.0  0.72404  0.90925  0.58557  1.0000
  H   H1781     1.0  0.76372  0.91094  0.53579  1.0000
  H   H1782     1.0  0.78069  0.93505  0.54963  1.0000
  H   H1783     1.0  0.86039  0.76895  0.56226  1.0000
  C   C1782     1.0  0.59629  0.83071  0.50062  1.0000
  H   H1784     1.0  0.80663  0.91866  0.64676  1.0000
  H   H1785     1.0  0.96257  0.76240  0.39821  1.0000
  C   C1783     1.0  0.57211  0.80599  0.52047  1.0000
  H   H1786     1.0  0.98953  0.83959  0.34264  1.0000
  H   H1787     1.0  0.92699  0.75997  0.46215  1.0000
  C   C1784     1.0  0.81307  0.79116  0.49478  1.0000
  C   C1785     1.0  0.82313  0.80275  0.48128  1.0000
  C   C1786     1.0  0.81518  0.82133  0.47611  1.0000
  C   C1787     1.0  0.79711  0.82842  0.48428  1.0000
  C   C1788     1.0  0.78724  0.81693  0.49801  1.0000
  C   C1789     1.0  0.79522  0.79840  0.50325  1.0000
  H   H1788     1.0  0.83692  0.79735  0.47472  1.0000
  H   H1789     1.0  0.82289  0.83015  0.46545  1.0000
  H   H1790     1.0  0.77336  0.82222  0.50443  1.0000
  H   H1791     1.0  0.78739  0.78954  0.51377  1.0000
  C   C1790     1.0  0.55432  0.87060  0.37986  1.0000
  C   C1791     1.0  0.60411  0.81505  0.51159  1.0000
  H   H1792     1.0  0.61956  0.81260  0.51220  1.0000
  H   H1793     1.0  0.94579  0.76317  0.58029  1.0000
  C   C1792     1.0  0.76515  0.81700  0.45462  1.0000
  C   C1793     1.0  0.73499  0.94154  0.44703  1.0000
  C   C1794     1.0  0.72799  0.96000  0.44049  1.0000
  C   C1795     1.0  0.73898  0.97087  0.42684  1.0000
  C   C1796     1.0  0.75706  0.96331  0.41949  1.0000
  C   C1797     1.0  0.76413  0.94490  0.42616  1.0000
  C   C1798     1.0  0.75321  0.93408  0.43993  1.0000
  H   H1794     1.0  0.71389  0.96585  0.44585  1.0000
  H   H1795     1.0  0.73331  0.98495  0.42177  1.0000
  H   H1796     1.0  0.77808  0.93890  0.42055  1.0000
  H   H1797     1.0  0.75876  0.91989  0.44482  1.0000
  H   H1798     1.0  0.77900  0.89671  0.59170  1.0000
  H   H1799     1.0  0.83341  0.93015  0.60933  1.0000
  H   H1800     1.0  0.55544  0.84661  0.48166  1.0000
  H   H1801     1.0  0.56243  0.79640  0.52808  1.0000
  N   N146      1.0  0.56470  0.87570  0.34679  1.0000
  H   H1802     1.0  0.80493  0.78592  0.44769  1.0000
  C   C1799     1.0  0.58218  0.86610  0.34981  1.0000
  H   H1803     1.0  0.58404  0.76621  0.38834  1.0000
  C   C1800     1.0  0.83497  0.99331  0.37989  1.0000
  S   S612      1.0  0.87909  0.76620  0.48667  1.0000
  C   C1801     1.0  0.99533  0.83313  0.37817  1.0000
  C   C1802     1.0  0.93482  0.75566  0.57519  1.0000
  H   H1804     1.0  0.78338  0.89437  0.65190  1.0000
  C   C1803     1.0  0.98060  0.82821  0.34906  1.0000
  S   S613      1.0  0.98742  0.77343  0.42561  1.0000
  H   H1805     1.0  0.78533  0.76614  0.47086  1.0000
  H   H1806     1.0  0.59956  0.84994  0.37022  1.0000
  H   H1807     1.0  0.98636  0.81473  0.34259  1.0000
  H   H1808     1.0  0.50784  0.84765  0.37041  1.0000
  N   N147      1.0  0.71648  0.94121  0.53110  1.0000
  C   C1804     1.0  0.72580  0.95219  0.54161  1.0000
  C   C1805     1.0  0.72231  0.93933  0.51236  1.0000
  C   C1806     1.0  0.74185  0.96109  0.53355  1.0000
  C   C1807     1.0  0.73833  0.94796  0.50385  1.0000
  C   C1808     1.0  0.74821  0.95879  0.51457  1.0000
  C   C1809     1.0  0.69959  0.93213  0.53972  1.0000
  H   H1809     1.0  0.72123  0.95366  0.55649  1.0000
  H   H1810     1.0  0.71466  0.93101  0.50390  1.0000
  H   H1811     1.0  0.74959  0.96921  0.54216  1.0000
  H   H1812     1.0  0.74304  0.94611  0.48903  1.0000
  H   H1813     1.0  0.76083  0.96530  0.50819  1.0000
  H   H1814     1.0  0.69829  0.91859  0.53313  1.0000
  H   H1815     1.0  0.70089  0.92811  0.55504  1.0000
  H   H1816     1.0  0.68640  0.94188  0.53794  1.0000
  N   N148      1.0  0.86073  0.78470  0.53558  1.0000
  C   C1810     1.0  0.87771  0.79253  0.53082  1.0000
  C   C1811     1.0  0.84384  0.79420  0.53051  1.0000
  C   C1812     1.0  0.87817  0.80991  0.51996  1.0000
  C   C1813     1.0  0.84373  0.81177  0.51994  1.0000
  C   C1814     1.0  0.86104  0.81953  0.51444  1.0000
  C   C1815     1.0  0.52797  0.84416  0.34579  1.0000
  H   H1817     1.0  0.57574  0.76038  0.41250  1.0000
  H   H1818     1.0  0.83033  0.78806  0.53434  1.0000
  H   H1819     1.0  0.89176  0.81576  0.51583  1.0000
  H   H1820     1.0  0.83030  0.81916  0.51579  1.0000
  C   C1816     1.0  0.59192  0.80253  0.52145  1.0000
  H   H1821     1.0  0.76005  0.83171  0.45083  1.0000
  H   H1822     1.0  0.73683  0.81883  0.48939  1.0000
  C   C1817     1.0  0.51088  0.78332  0.52608  1.0000
  H   H1823     1.0  0.81927  0.94394  0.62692  1.0000
  H   H1824     1.0  0.54311  0.87195  0.39139  1.0000
  N   N149      1.0  0.57694  0.83352  0.49910  1.0000
  H   H1825     1.0  0.79214  0.81900  0.43775  1.0000
  H   H1826     1.0  0.55869  0.76709  0.39502  1.0000
  H   H1827     1.0  0.89106  0.78527  0.53528  1.0000
  C   C1818     1.0  0.73549  0.81368  0.47524  1.0000
  C   C1819     1.0  0.79053  0.79138  0.45279  1.0000
  C   C1820     1.0  0.86059  0.76650  0.54699  1.0000
  C   C1821     1.0  0.78335  0.80988  0.44715  1.0000
  S   S614      1.0  0.76266  0.98970  0.66160  1.0000
  C   C1822     1.0  0.56482  0.82175  0.50928  1.0000
  C   C1823     1.0  0.95375  0.76523  0.44586  1.0000
  H   H1828     1.0  0.95891  0.80337  0.40819  1.0000
  S   S615      1.0  0.98921  0.77613  0.65191  1.0000
  H   H1829     1.0  0.75296  0.77923  0.48331  1.0000
  H   H1830     1.0  0.59781  0.79019  0.52982  1.0000
  C   C1824     1.0  0.93466  0.76047  0.44819  1.0000
  N   N150      1.0  0.98132  0.82569  0.36967  1.0000
  N   N151      1.0  0.80548  0.92153  0.61673  1.0000
  C   C1825     1.0  0.80070  0.91380  0.63462  1.0000
  C   C1826     1.0  0.79833  0.91504  0.60142  1.0000
  C   C1827     1.0  0.78759  0.89998  0.63762  1.0000
  C   C1828     1.0  0.78519  0.90124  0.60387  1.0000
  C   C1829     1.0  0.77967  0.89382  0.62212  1.0000
  C   C1830     1.0  0.81873  0.93646  0.61378  1.0000
  H   H1831     1.0  0.57450  0.85378  0.39697  1.0000
  H   H1832     1.0  0.80226  0.92103  0.58721  1.0000
  C   C1831     1.0  0.96394  0.76597  0.42786  1.0000
  C   C1832     1.0  0.55092  0.87817  0.36154  1.0000
  H   H1833     1.0  0.56646  0.86262  0.49517  1.0000
  H   H1834     1.0  0.57924  0.85257  0.47435  1.0000
  C   C1833     1.0  0.56911  0.84969  0.48704  1.0000
  H   H1835     1.0  0.96063  0.76845  0.45809  1.0000
  S   S616      1.0  0.74310  0.98740  0.62126  1.0000
  H   H1836     1.0  0.60586  0.84042  0.49307  1.0000
  C   C1834     1.0  0.93110  0.75811  0.55596  1.0000
  H   H1837     1.0  0.76920  0.88338  0.62423  1.0000
  H   H1838     1.0  0.54944  0.82431  0.50852  1.0000
  N   N152      1.0  0.75427  0.80585  0.46707  1.0000
  C   C1835     1.0  0.96839  0.81506  0.38022  1.0000
  H   H1839     1.0  0.51551  0.76903  0.53154  1.0000
  H   H1840     1.0  0.72926  0.82581  0.46611  1.0000
  C   C1836     1.0  0.58599  0.85819  0.36793  1.0000
  C   C1837     1.0  0.98330  0.81943  0.40861  1.0000
  S   S617      1.0  0.94784  0.75756  0.65623  1.0000
  C   C1838     1.0  0.57194  0.86044  0.38301  1.0000
  H   H1841     1.0  0.80583  0.99656  0.33620  1.0000
  H   H1842     1.0  0.72496  0.80280  0.47687  1.0000
  C   C1839     1.0  0.51420  0.80932  0.50172  1.0000
  C   C1840     1.0  0.93563  0.75745  0.41442  1.0000
  H   H1843     1.0  0.84797  0.75893  0.54465  1.0000
  H   H1844     1.0  0.98436  0.81644  0.42374  1.0000
  C   C1841     1.0  0.57278  0.75914  0.39757  1.0000
  N   N153      1.0  0.84182  0.00217  0.36316  1.0000
  H   H1845     1.0  0.79341  0.97999  0.36637  1.0000
  C   C1842     1.0  0.92543  0.75681  0.43244  1.0000
  H   H1846     1.0  0.93931  0.76753  0.54638  1.0000
  H   H1847     1.0  0.87220  0.99854  0.36275  1.0000
  H   H1848     1.0  0.84291  0.99265  0.39235  1.0000
  C   C1843     1.0  0.81413  0.99520  0.34844  1.0000
  H   H1849     1.0  0.59312  0.86415  0.33814  1.0000
  H   H1850     1.0  0.92860  0.75458  0.40217  1.0000
  H   H1851     1.0  0.97636  0.82811  0.66608  1.0000
  H   H1852     1.0  0.83087  0.98496  0.66005  1.0000
  C   C1844     1.0  0.83170  0.00310  0.34751  1.0000
  Fe  Fe310     1.0  0.90072  0.91573  0.91933  1.0000
  S   S618      1.0  0.92192  0.89252  0.90805  1.0000
  S   S619      1.0  0.90708  0.94080  0.93559  1.0000
  Fe  Fe311     1.0  0.86739  0.90156  0.90048  1.0000
  S   S620      1.0  0.88654  0.87754  0.88749  1.0000
  S   S621      1.0  0.83623  0.90380  0.89346  1.0000
  Fe  Fe312     1.0  0.89851  0.87286  0.91592  1.0000
  S   S622      1.0  0.90013  0.84477  0.93427  1.0000
  Fe  Fe313     1.0  0.90805  0.89912  0.88047  1.0000
  S   S623      1.0  0.92763  0.90331  0.85321  1.0000
  S   S624      1.0  0.87812  0.89579  0.92929  1.0000
  S   S625      1.0  0.88815  0.92346  0.89132  1.0000
  H   H1853     1.0  0.95753  0.80572  0.70169  1.0000
  C   C1845     1.0  0.67559  0.97192  0.71198  1.0000
  H   H1854     1.0  0.92939  0.87565  0.80511  1.0000
  Fe  Fe314     1.0  0.95167  0.95230  0.72435  1.0000
  S   S626      1.0  0.92034  0.96028  0.73285  1.0000
  S   S627      1.0  0.97720  0.96677  0.73317  1.0000
  Fe  Fe315     1.0  0.94284  0.91422  0.70928  1.0000
  S   S628      1.0  0.91098  0.91975  0.71658  1.0000
  S   S629      1.0  0.96038  0.88737  0.69870  1.0000
  Fe  Fe316     1.0  0.91441  0.94979  0.70490  1.0000
  S   S630      1.0  0.89251  0.96832  0.68778  1.0000
  Fe  Fe317     1.0  0.91882  0.92977  0.74397  1.0000
  S   S631      1.0  0.89980  0.92088  0.77024  1.0000
  S   S632      1.0  0.94609  0.94384  0.69549  1.0000
  S   S633      1.0  0.95030  0.92223  0.73760  1.0000
  H   H1855     1.0  0.92196  0.97102  0.91072  1.0000
  S   S634      1.0  0.53236  0.88851  0.76419  1.0000
  H   H1856     1.0  0.90784  0.88422  0.74386  1.0000
  Fe  Fe318     1.0  0.64767  0.98046  0.76315  1.0000
  S   S635      1.0  0.67822  0.98142  0.74894  1.0000
  Fe  Fe319     1.0  0.60619  0.96885  0.76865  1.0000
  S   S636      1.0  0.60100  0.98044  0.79752  1.0000
  S   S637      1.0  0.58099  0.96109  0.75326  1.0000
  Fe  Fe320     1.0  0.63078  0.96733  0.80283  1.0000
  S   S638      1.0  0.63815  0.95000  0.83027  1.0000
  H   H1857     1.0  0.71624  0.98126  0.73044  1.0000
  S   S639      1.0  0.63499  0.95342  0.77487  1.0000
  H   H1858     1.0  0.91825  0.86010  0.74008  1.0000
  Fe  Fe321     1.0  0.63591  0.78898  0.98549  1.0000
  S   S640      1.0  0.63538  0.77662  0.95734  1.0000
  H   H1859     1.0  0.65659  0.00037  0.95310  1.0000
  Fe  Fe322     1.0  0.60440  0.77197  0.96636  1.0000
  S   S641      1.0  0.57983  0.77997  0.94740  1.0000
  C   C1846     1.0  0.95163  0.78728  0.97145  1.0000
  C   C1847     1.0  0.55784  0.79444  0.88594  1.0000
  Fe  Fe323     1.0  0.73050  0.93043  0.94426  1.0000
  S   S642      1.0  0.70922  0.92470  0.96960  1.0000
  S   S643      1.0  0.76199  0.92294  0.94972  1.0000
  Fe  Fe324     1.0  0.69923  0.95056  0.92042  1.0000
  S   S644      1.0  0.67651  0.94678  0.94437  1.0000
  S   S645      1.0  0.69250  0.96824  0.89290  1.0000
  Fe  Fe325     1.0  0.69738  0.95525  0.96382  1.0000
  S   S646      1.0  0.68510  0.97527  0.98711  1.0000
  Fe  Fe326     1.0  0.69021  0.91657  0.94827  1.0000
  S   S647      1.0  0.66841  0.89419  0.94983  1.0000
  S   S648      1.0  0.71927  0.96131  0.93954  1.0000
  S   S649      1.0  0.71228  0.92009  0.92326  1.0000
  H   H1860     1.0  0.51145  0.81811  0.82454  1.0000
  H   H1861     1.0  0.66047  0.97080  0.71590  1.0000
  H   H1862     1.0  0.72987  0.97615  0.69743  1.0000
  H   H1863     1.0  0.83424  0.93391  0.73290  1.0000
  C   C1848     1.0  0.71551  0.99415  0.99731  1.0000
  H   H1864     1.0  0.54333  0.78658  0.93177  1.0000
  C   C1849     1.0  0.95597  0.87610  0.78731  1.0000
  C   C1850     1.0  0.67935  0.99973  0.93055  1.0000
  C   C1851     1.0  0.65965  0.83412  0.97830  1.0000
  H   H1865     1.0  0.94847  0.79303  0.98523  1.0000
  C   C1852     1.0  0.67856  0.86185  0.97344  1.0000
  C   C1853     1.0  0.66623  0.87062  0.96029  1.0000
  C   C1854     1.0  0.65073  0.86093  0.95613  1.0000
  C   C1855     1.0  0.64753  0.84276  0.96493  1.0000
  C   C1856     1.0  0.54594  0.76732  0.87383  1.0000
  H   H1866     1.0  0.69052  0.86909  0.97683  1.0000
  H   H1867     1.0  0.86178  0.93114  0.75304  1.0000
  H   H1868     1.0  0.66904  0.92451  0.79622  1.0000
  C   C1857     1.0  0.65228  0.95598  0.84816  1.0000
  C   C1858     1.0  0.66066  0.97324  0.84713  1.0000
  C   C1859     1.0  0.67275  0.97681  0.86102  1.0000
  C   C1860     1.0  0.67651  0.96329  0.87620  1.0000
  C   C1861     1.0  0.66789  0.94617  0.87739  1.0000
  C   C1862     1.0  0.65588  0.94256  0.86345  1.0000
  H   H1869     1.0  0.65791  0.98377  0.83558  1.0000
  H   H1870     1.0  0.67923  0.99015  0.85999  1.0000
  H   H1871     1.0  0.67058  0.93562  0.88896  1.0000
  H   H1872     1.0  0.64945  0.92919  0.86446  1.0000
  H   H1873     1.0  0.83142  0.91670  0.93201  1.0000
  S   S650      1.0  0.61938  0.99505  0.75478  1.0000
  C   C1863     1.0  0.63505  0.92239  0.97599  1.0000
  C   C1864     1.0  0.93117  0.84520  0.68160  1.0000
  C   C1865     1.0  0.54500  0.90930  0.76166  1.0000
  C   C1866     1.0  0.56137  0.90953  0.77160  1.0000
  C   C1867     1.0  0.57238  0.92534  0.76947  1.0000
  C   C1868     1.0  0.56727  0.94105  0.75712  1.0000
  C   C1869     1.0  0.55092  0.94079  0.74710  1.0000
  C   C1870     1.0  0.53977  0.92507  0.74942  1.0000
  H   H1874     1.0  0.56560  0.89740  0.78107  1.0000
  H   H1875     1.0  0.58491  0.92528  0.77723  1.0000
  H   H1876     1.0  0.54689  0.95283  0.73746  1.0000
  H   H1877     1.0  0.52730  0.92506  0.74158  1.0000
  C   C1871     1.0  0.54704  0.77132  0.93289  1.0000
  C   C1872     1.0  0.70298  0.97053  0.68785  1.0000
  C   C1873     1.0  0.71478  0.97490  0.70140  1.0000
  C   C1874     1.0  0.70700  0.97780  0.72011  1.0000
  C   C1875     1.0  0.68735  0.97647  0.72547  1.0000
  H   H1878     1.0  0.91844  0.94628  0.84807  1.0000
  H   H1879     1.0  0.53375  0.79635  0.86887  1.0000
  S   S651      1.0  0.92190  0.75992  0.90944  1.0000
  C   C1876     1.0  0.86338  0.94473  0.68520  1.0000
  C   C1877     1.0  0.87007  0.96271  0.68094  1.0000
  H   H1880     1.0  0.52023  0.87424  0.68516  1.0000
  H   H1881     1.0  0.87229  0.93352  0.69228  1.0000
  H   H1882     1.0  0.67416  0.96547  0.68294  1.0000
  C   C1878     1.0  0.95415  0.86688  0.68833  1.0000
  C   C1879     1.0  0.93519  0.86230  0.68884  1.0000
  H   H1883     1.0  0.94459  0.93396  0.86791  1.0000
  H   H1884     1.0  0.92362  0.87182  0.69489  1.0000
  H   H1885     1.0  0.63550  0.83559  0.96159  1.0000
  C   C1880     1.0  0.92738  0.94426  0.94775  1.0000
  C   C1881     1.0  0.92877  0.96225  0.95449  1.0000
  C   C1882     1.0  0.94481  0.96585  0.96379  1.0000
  C   C1883     1.0  0.95967  0.95145  0.96650  1.0000
  C   C1884     1.0  0.95828  0.93347  0.95972  1.0000
  C   C1885     1.0  0.94226  0.92987  0.95041  1.0000
  H   H1886     1.0  0.91733  0.97348  0.95259  1.0000
  H   H1887     1.0  0.94562  0.97974  0.96894  1.0000
  H   H1888     1.0  0.96965  0.92219  0.96177  1.0000
  H   H1889     1.0  0.94139  0.91593  0.94541  1.0000
  C   C1886     1.0  0.91923  0.90948  0.83055  1.0000
  C   C1887     1.0  0.93213  0.91579  0.81556  1.0000
  C   C1888     1.0  0.92624  0.91996  0.79712  1.0000
  C   C1889     1.0  0.90744  0.91760  0.79347  1.0000
  C   C1890     1.0  0.89449  0.91156  0.80853  1.0000
  C   C1891     1.0  0.90030  0.90763  0.82701  1.0000
  H   H1890     1.0  0.94680  0.91732  0.81817  1.0000
  H   H1891     1.0  0.93636  0.92463  0.78567  1.0000
  H   H1892     1.0  0.87990  0.90972  0.80588  1.0000
  H   H1893     1.0  0.89023  0.90280  0.83842  1.0000
  C   C1892     1.0  0.90509  0.82128  0.92675  1.0000
  C   C1893     1.0  0.90350  0.80574  0.94028  1.0000
  C   C1894     1.0  0.90811  0.78684  0.93515  1.0000
  C   C1895     1.0  0.91446  0.78330  0.91638  1.0000
  C   C1896     1.0  0.91575  0.79881  0.90278  1.0000
  C   C1897     1.0  0.91108  0.81772  0.90791  1.0000
  H   H1894     1.0  0.89881  0.80834  0.95488  1.0000
  H   H1895     1.0  0.90701  0.77505  0.94575  1.0000
  H   H1896     1.0  0.92062  0.79623  0.88822  1.0000
  H   H1897     1.0  0.91238  0.82953  0.89735  1.0000
  C   C1898     1.0  0.81581  0.91135  0.90861  1.0000
  C   C1899     1.0  0.79743  0.91113  0.90235  1.0000
  C   C1900     1.0  0.78075  0.91552  0.91445  1.0000
  C   C1901     1.0  0.78232  0.92006  0.93303  1.0000
  C   C1902     1.0  0.80070  0.92070  0.93915  1.0000
  C   C1903     1.0  0.81738  0.91645  0.92700  1.0000
  H   H1898     1.0  0.79607  0.90724  0.88813  1.0000
  H   H1899     1.0  0.76671  0.91488  0.90959  1.0000
  H   H1900     1.0  0.80205  0.92420  0.95350  1.0000
  N   N154      1.0  0.83692  0.86044  0.92754  1.0000
  C   C1904     1.0  0.81793  0.86575  0.92544  1.0000
  C   C1905     1.0  0.84442  0.86257  0.94427  1.0000
  C   C1906     1.0  0.80589  0.87338  0.94034  1.0000
  C   C1907     1.0  0.83287  0.87052  0.95934  1.0000
  C   C1908     1.0  0.81347  0.87595  0.95731  1.0000
  C   C1909     1.0  0.84904  0.85219  0.91174  1.0000
  H   H1901     1.0  0.81214  0.86465  0.91197  1.0000
  H   H1902     1.0  0.85950  0.85840  0.94596  1.0000
  H   H1903     1.0  0.79096  0.87811  0.93844  1.0000
  H   H1904     1.0  0.83900  0.87270  0.97237  1.0000
  H   H1905     1.0  0.80439  0.88260  0.96865  1.0000
  H   H1906     1.0  0.84796  0.86192  0.89870  1.0000
  H   H1907     1.0  0.86441  0.85004  0.91463  1.0000
  H   H1908     1.0  0.84440  0.83814  0.90913  1.0000
  N   N155      1.0  0.54699  0.86437  0.72254  1.0000
  C   C1910     1.0  0.55487  0.88131  0.72253  1.0000
  C   C1911     1.0  0.53502  0.86166  0.70907  1.0000
  H   H1909     1.0  0.94344  0.81424  0.95628  1.0000
  H   H1910     1.0  0.69761  0.78370  0.94705  1.0000
  C   C1912     1.0  0.53765  0.89388  0.69576  1.0000
  C   C1913     1.0  0.55211  0.84878  0.73657  1.0000
  Fe  Fe327     1.0  0.50378  0.88344  0.75336  1.0000
  C   C1914     1.0  0.83304  0.95579  0.67149  1.0000
  H   H1911     1.0  0.96985  0.99960  0.70553  1.0000
  N   N156      1.0  0.55959  0.75536  0.88243  1.0000
  C   C1915     1.0  0.53510  0.75918  0.92573  1.0000
  H   H1912     1.0  0.83992  0.92742  0.68406  1.0000
  C   C1916     1.0  0.84288  0.94576  0.73318  1.0000
  C   C1917     1.0  0.85823  0.97709  0.67169  1.0000
  C   C1918     1.0  0.93414  0.94524  0.87290  1.0000
  C   C1919     1.0  0.87771  0.99162  0.73255  1.0000
  C   C1920     1.0  0.98702  0.98924  0.72836  1.0000
  C   C1921     1.0  0.91935  0.95215  0.86160  1.0000
  H   H1913     1.0  0.72476  0.98576  0.98741  1.0000
  C   C1922     1.0  0.54480  0.78700  0.87553  1.0000
  C   C1923     1.0  0.92153  0.96591  0.89675  1.0000
  C   C1924     1.0  0.98780  0.79727  0.69869  1.0000
  N   N157      1.0  0.95801  0.76844  0.96999  1.0000
  H   H1914     1.0  0.63142  0.90928  0.96992  1.0000
  H   H1915     1.0  0.54070  0.83884  0.73916  1.0000
  H   H1916     1.0  0.96409  0.94117  0.89357  1.0000
  H   H1917     1.0  0.52231  0.76512  0.91925  1.0000
  H   H1918     1.0  0.69877  0.93014  0.84540  1.0000
  H   H1919     1.0  0.69549  0.98295  0.78470  1.0000
  C   C1925     1.0  0.96847  0.79376  0.70166  1.0000
  H   H1920     1.0  0.67645  0.78730  0.96306  1.0000
  C   C1926     1.0  0.96188  0.76122  0.95257  1.0000
  N   N158      1.0  0.69264  0.96108  0.80712  1.0000
  C   C1927     1.0  0.68230  0.95066  0.79701  1.0000
  C   C1928     1.0  0.69873  0.95378  0.82419  1.0000
  C   C1929     1.0  0.67788  0.93239  0.80392  1.0000
  C   C1930     1.0  0.69460  0.93554  0.83150  1.0000
  C   C1931     1.0  0.68399  0.92486  0.82133  1.0000
  C   C1932     1.0  0.69602  0.98070  0.80035  1.0000
  H   H1921     1.0  0.67705  0.95661  0.78372  1.0000
  H   H1922     1.0  0.70619  0.96232  0.83262  1.0000
  H   H1923     1.0  0.97980  0.87691  0.76584  1.0000
  C   C1933     1.0  0.84499  0.94133  0.68051  1.0000
  C   C1934     1.0  0.53014  0.87636  0.69550  1.0000
  C   C1935     1.0  0.85056  0.97744  0.72192  1.0000
  H   H1924     1.0  0.67988  0.91109  0.82725  1.0000
  C   C1936     1.0  0.69349  0.76775  0.98999  1.0000
  H   H1925     1.0  0.82723  0.96373  0.71276  1.0000
  H   H1926     1.0  0.95041  0.80128  0.92464  1.0000
  C   C1937     1.0  0.94594  0.83267  0.67339  1.0000
  H   H1927     1.0  0.64104  0.86757  0.94605  1.0000
  H   H1928     1.0  0.58185  0.78771  0.90296  1.0000
  H   H1929     1.0  0.67904  0.76745  0.94846  1.0000
  H   H1930     1.0  0.92884  0.88030  0.72785  1.0000
  C   C1938     1.0  0.96892  0.85434  0.68014  1.0000
  H   H1931     1.0  0.94590  0.93035  0.90944  1.0000
  C   C1939     1.0  0.85831  0.94418  0.74440  1.0000
  H   H1932     1.0  0.88617  0.99065  0.74511  1.0000
  H   H1933     1.0  0.56436  0.88348  0.73323  1.0000
  H   H1934     1.0  0.93771  0.77279  0.72185  1.0000
  N   N159      1.0  0.96337  0.77549  0.70401  1.0000
  H   H1935     1.0  0.95249  0.95366  0.91317  1.0000
  H   H1936     1.0  0.84793  0.99006  0.71245  1.0000
  H   H1937     1.0  0.71037  0.98411  0.80365  1.0000
  H   H1938     1.0  0.68479  0.99077  0.80720  1.0000
  C   C1940     1.0  0.90641  0.97300  0.88593  1.0000
  C   C1941     1.0  0.67518  0.84380  0.98248  1.0000
  C   C1942     1.0  0.94302  0.77209  0.70668  1.0000
  H   H1939     1.0  0.89535  0.98342  0.89150  1.0000
  C   C1943     1.0  0.95927  0.77291  0.93602  1.0000
  H   H1940     1.0  0.64013  0.93187  0.96370  1.0000
  C   C1944     1.0  0.57266  0.76256  0.89238  1.0000
  N   N160      1.0  0.65009  0.91807  0.98908  1.0000
  C   C1945     1.0  0.90536  0.96607  0.86822  1.0000
  H   H1941     1.0  0.88151  0.95803  0.75298  1.0000
  C   C1946     1.0  0.68702  0.77625  0.95676  1.0000
  Fe  Fe328     1.0  0.98883  0.98134  0.99113  1.0000
  C   C1947     1.0  0.55014  0.89640  0.70932  1.0000
  H   H1942     1.0  0.55368  0.85444  0.75048  1.0000
  C   C1948     1.0  0.93618  0.87537  0.79073  1.0000
  H   H1943     1.0  0.70467  0.00078  0.91107  1.0000
  C   C1949     1.0  0.95019  0.94397  0.90214  1.0000
  C   C1950     1.0  0.86951  0.95948  0.74424  1.0000
  C   C1951     1.0  0.96444  0.87617  0.76872  1.0000
  H   H1944     1.0  0.96463  0.87687  0.79905  1.0000
  C   C1952     1.0  0.98134  0.00244  0.71374  1.0000
  C   C1953     1.0  0.99663  0.76336  0.70164  1.0000
  S   S652      1.0  0.64471  0.99344  0.79146  1.0000
  C   C1954     1.0  0.96485  0.83747  0.67251  1.0000
  H   H1945     1.0  0.52887  0.84818  0.70892  1.0000
  N   N161      1.0  0.93515  0.95222  0.89017  1.0000
  N   N162      1.0  0.93344  0.87552  0.75724  1.0000
  C   C1955     1.0  0.95292  0.87562  0.75377  1.0000
  C   C1956     1.0  0.92505  0.87523  0.77542  1.0000
  S   S653      1.0  0.98022  0.95499  0.97825  1.0000
  C   C1957     1.0  0.68340  0.96893  0.69329  1.0000
  C   C1958     1.0  0.92149  0.87495  0.74150  1.0000
  H   H1946     1.0  0.95961  0.87577  0.73932  1.0000
  H   H1947     1.0  0.90957  0.87545  0.77817  1.0000
  C   C1959     1.0  0.83886  0.96254  0.72196  1.0000
  C   C1960     1.0  0.83984  0.97368  0.66699  1.0000
  C   C1961     1.0  0.56399  0.76393  0.94099  1.0000
  H   H1948     1.0  0.55592  0.91001  0.70987  1.0000
  N   N163      1.0  0.86550  0.97588  0.73315  1.0000
  H   H1949     1.0  0.56581  0.84076  0.73159  1.0000
  H   H1950     1.0  0.57103  0.99487  0.77315  1.0000
  H   H1951     1.0  0.55693  0.80963  0.88767  1.0000
  H   H1952     1.0  0.68356  0.77971  0.99433  1.0000
  H   H1953     1.0  0.89351  0.97114  0.85983  1.0000
  H   H1954     1.0  0.98363  0.85779  0.67954  1.0000
  C   C1962     1.0  0.94894  0.79940  0.95516  1.0000
  H   H1955     1.0  0.93430  0.78287  0.69800  1.0000
  C   C1963     1.0  0.95289  0.79214  0.93736  1.0000
  C   C1964     1.0  0.65955  0.93256  0.99434  1.0000
  S   S654      1.0  0.65570  0.81169  0.99070  1.0000
  C   C1965     1.0  0.57195  0.78218  0.89434  1.0000
  H   H1956     1.0  0.53363  0.90551  0.68558  1.0000
  C   C1966     1.0  0.97716  0.76041  0.70461  1.0000
  H   H1957     1.0  0.53571  0.76172  0.86570  1.0000
  H   H1958     1.0  0.67212  0.99139  0.92168  1.0000
  H   H1959     1.0  0.94072  0.75792  0.70194  1.0000
  H   H1960     1.0  0.91648  0.84167  0.68231  1.0000
  H   H1961     1.0  0.62191  0.92937  0.98340  1.0000
  N   N164      1.0  0.69680  0.76408  0.97126  1.0000
  H   H1962     1.0  0.68465  0.83729  0.99280  1.0000
  H   H1963     1.0  0.88790  0.99127  0.71958  1.0000
  H   H1964     1.0  0.65624  0.94711  0.98865  1.0000
  H   H1965     1.0  0.64675  0.88826  0.99223  1.0000
  H   H1966     1.0  0.86326  0.99103  0.66825  1.0000
  H   H1967     1.0  0.96176  0.76699  0.92225  1.0000
  H   H1968     1.0  0.99171  0.81179  0.69618  1.0000
  S   S655      1.0  0.60423  0.78665  0.99361  1.0000
  C   C1967     1.0  0.96112  0.75584  0.98706  1.0000
  C   C1968     1.0  0.65425  0.89977  0.99637  1.0000
  S   S656      1.0  0.80953  0.95091  0.66705  1.0000
