data_image0
_chemical_formula_structural       HSHFeSHFe2SHSFeS2FeS2FeSFeS3FeSHFeS2FeSFeS2FeS2FeS2FeSFeS3C6H4C6H4C5H3CHC6H4C2FeH2C2HC3HC3H2NHC2H7NCHC3H2CH2C2H2SC2HCHC2HC2HCH2NC3H2NH2CNH3C2HC2HC3HCH2SC2H3C2NHC2H2C4H6SH5CHC6H2S2H2NHC2H2N2HFeS2FeS2FeSFeHS2FeS2FeSFeSFeS3C4H3C6H4C3H2C6H4NSCH2SCH3C6H3FeH2CHCH2C3HC2H2CH2C2H4CH3CHCHCHC2HNH2C2H2C3HCH2CHNC2H7CHCH6SC2HC3S5HFeS2FeS2FeHFeS3FeS2FeS2FeSFeHS2C6H4NH3CSC2H2C3HC2H4C5HFeH3C6H4C6H8FeCHC2HFeHC2FeH2C2SCHCSCHCH2SHCH2FeC3H2C4NCHCSCFeSHCH2CHN2HC2H2CHCFeSHCH3NCHCNHC2HCHCH3CHC2HS2CFeS2FeS2FeSFeS3FeS2FeS2FeHFeS2FeS2FeSHFeSFeS3FeSFeSHFeHFeS3C6H4C4H5C7H4C6H4C2H2C2HCH2CSHCH3CHCH6C2H3NC6H8C2H5C2HCSNHC2SC2NHC2H2NCHC2NCHC2H6N2CHC2H2CSHSCHCHCNCHCSC3H3CH4CHC2H2C2HC6H3FeS2H4CFeSCSH3CHCFeCFeSHSFeS2FeS2FeSFeS3FeS2FeS2FeSFeS3C6H5CH2C8H4C6H4C6H5C3HCH6FeHC3SHNC6H10FeHN2H2C3HCHC2H5CSCHCHCSCHC2HC3HCHC3H3NCHSCH3C2HC2HC3NHC3H2NC2HNC2NC2HNHCH3C2H2CH4C2HSC3Fe2S2FeS2FeS2FeS2FeS2FeS2FeSFeS3FeS2FeS2FeSFeS3C2FeC2H6CHC5HC2H2C6H4CHSHCH2C3HFeNH2C6H4CHCHC3H2C6H4NC2H2C3NH3C3SHCHCH4SHC2HNHSCH5FeSHC2H4CHSC2HCNC2HCHCH3CH2FeCHC4H2C2H3CFeS2FeS2FeSFeS3FeS2FeS2FeSFeS3H2C3HCH3NC7H4C6H4C6H5C3HFeH4C6SCHC7H4C6H4SHSHCHSCHCH2NCH2SC2SC2NH10NH2CHCNC3H2C2H5CH3C5HC3H7C4H4CH3CHSH3C2HC2HFeS2FeS2FeSFeS3FeS2FeS2FeSFeHS2C6H4C6H4C6H3C6H5CNHC8H4C2H3SH2NCHCHCHN2HCNH2CHC3HCH4CHSCH2C2H2SH3CH3CHCHNC5H2C2SHCH5CSHC2HSFeSHFeSFeSHS2CSCFeSFeSFeSH2SFeSFeSNS4CFeSFeSH4C5H2C5NCH4C6H4C4HC4H4C2HC6H2CHSFeCH4FeHC7H5SNH6C3SCHCSNC6H12CHC5HC3HSNC3SCHFeC2H2FeSC2HC2FeSH2SHC2H5NC2SCH2FeSCNCSCHNH4C2H2C2HCH3CHCHCNHCH2CHCHC2HFeS2FeS2FeSFeS3FeS2FeS2FeSFeS3HC3HC4H4C2NH2CH4C7H3C6H4C2H2C2HC2HCSH2C6H4CHC8H5FeCHCHC2HC2H4S2Fe2SFeSHCHC2NCHFeC2HC3HSH2C2NSC2H2NC2H2CH2SHSHCH3C5H2CSC2SCHCHSCH2C3NH3C2HFeNFeC2H3CNSH4CHC2H3SHCHC2HCH2CSCSC2HSC3H2CH2C2HC2H2CSCHFeS2FeS2FeSFeS3FeS2FeS2FeSFeS3C3HC4HC7H4C2HC2HC2HC9H6CH5CHNHCHCHC6H5C3H5C2H2CFeHCH5SHSHC2HN2HC2HCH2C2HC2HC2HC3HCHNH2CH2NH2NHC3HC2H8C3HNC3HC2HCH2SFeS2FeSCFeSFeS3HSCFeSCFeSFeNSCFeS2FeSCFeSFeS3FeS2FeC2FeH3S2H2NH3C2H3C7H6FeH2C2SHSCNCH3C3H3C6H4C6H4CH3C2H3SC2HC3NC4HCH2CH5NC4H6NC3HC3SFeHSH2C2HC2HCHCHCH2CH2C4H2CH2CSH3C2HC2H2C2H4C3
_chemical_formula_sum              "H960 S320 Fe160 C960 N80"
_cell_length_a       79.9144
_cell_length_b       79.9976
_cell_length_c       37.136
_cell_angle_alpha    88.7823
_cell_angle_beta     88.8426
_cell_angle_gamma    79.2389

_space_group_name_H-M_alt    "P 1"
_space_group_IT_number       1

loop_
  _space_group_symop_operation_xyz
  'x, y, z'

loop_
  _atom_site_type_symbol
  _atom_site_label
  _atom_site_symmetry_multiplicity
  _atom_site_fract_x
  _atom_site_fract_y
  _atom_site_fract_z
  _atom_site_occupancy
  H   H1        1.0  0.22991  0.09098  0.18435  1.0000
  S   S1        1.0  0.05884  0.22226  0.72398  1.0000
  H   H2        1.0  0.23763  0.11261  0.72721  1.0000
  Fe  Fe1       1.0  0.05468  0.24104  0.62729  1.0000
  S   S2        1.0  0.05767  0.21284  0.63803  1.0000
  H   H3        1.0  0.09185  0.24021  0.55322  1.0000
  Fe  Fe2       1.0  0.03862  0.22047  0.68329  1.0000
  Fe  Fe3       1.0  0.07760  0.21673  0.67746  1.0000
  S   S3        1.0  0.10521  0.20194  0.67502  1.0000
  H   H4        1.0  0.07817  0.18805  0.48250  1.0000
  S   S4        1.0  0.07550  0.24481  0.66417  1.0000
  Fe  Fe4       1.0  0.20560  0.08915  0.69411  1.0000
  S   S5        1.0  0.17940  0.08374  0.70854  1.0000
  S   S6        1.0  0.22929  0.07821  0.72695  1.0000
  Fe  Fe5       1.0  0.19426  0.10190  0.61905  1.0000
  S   S7        1.0  0.16767  0.09738  0.62727  1.0000
  S   S8        1.0  0.20300  0.11201  0.56620  1.0000
  Fe  Fe6       1.0  0.16897  0.10918  0.68126  1.0000
  S   S9        1.0  0.14445  0.12595  0.70324  1.0000
  Fe  Fe7       1.0  0.17975  0.07257  0.65351  1.0000
  S   S10       1.0  0.17229  0.04843  0.63281  1.0000
  S   S11       1.0  0.19522  0.11540  0.67140  1.0000
  S   S12       1.0  0.20634  0.07633  0.64064  1.0000
  Fe  Fe8       1.0  0.05085  0.24031  0.31231  1.0000
  S   S13       1.0  0.05112  0.21832  0.27546  1.0000
  H   H5        1.0  0.14497  0.18568  0.74903  1.0000
  Fe  Fe9       1.0  0.05208  0.21661  0.37885  1.0000
  S   S14       1.0  0.05188  0.19341  0.34580  1.0000
  S   S15       1.0  0.05191  0.20875  0.43756  1.0000
  Fe  Fe10      1.0  0.07130  0.20323  0.31124  1.0000
  S   S16       1.0  0.09380  0.18501  0.28568  1.0000
  Fe  Fe11      1.0  0.03184  0.21027  0.31366  1.0000
  S   S17       1.0  0.07263  0.22590  0.34574  1.0000
  S   S18       1.0  0.03053  0.23269  0.34909  1.0000
  Fe  Fe12      1.0  0.20489  0.09134  0.30828  1.0000
  S   S19       1.0  0.17912  0.09168  0.28381  1.0000
  S   S20       1.0  0.22511  0.10110  0.27325  1.0000
  Fe  Fe13      1.0  0.19404  0.07617  0.37917  1.0000
  S   S21       1.0  0.16804  0.07496  0.35927  1.0000
  S   S22       1.0  0.19923  0.06402  0.43424  1.0000
  Fe  Fe14      1.0  0.18155  0.06530  0.30839  1.0000
  S   S23       1.0  0.17888  0.04203  0.27661  1.0000
  Fe  Fe15      1.0  0.16771  0.10156  0.33715  1.0000
  S   S24       1.0  0.14430  0.12110  0.35547  1.0000
  S   S25       1.0  0.20772  0.06458  0.32966  1.0000
  S   S26       1.0  0.19331  0.10314  0.36018  1.0000
  C   C1        1.0  0.10792  0.16750  0.30585  1.0000
  C   C2        1.0  0.10606  0.16243  0.34180  1.0000
  C   C3        1.0  0.11728  0.14823  0.35632  1.0000
  C   C4        1.0  0.13055  0.13889  0.33527  1.0000
  C   C5        1.0  0.13236  0.14393  0.29930  1.0000
  C   C6        1.0  0.12110  0.15810  0.28474  1.0000
  H   H6        1.0  0.09600  0.16947  0.35842  1.0000
  H   H7        1.0  0.11571  0.14448  0.38415  1.0000
  H   H8        1.0  0.14245  0.13693  0.28268  1.0000
  H   H9        1.0  0.12267  0.16186  0.25690  1.0000
  C   C7        1.0  0.20292  0.09828  0.52978  1.0000
  C   C8        1.0  0.20595  0.10395  0.49465  1.0000
  C   C9        1.0  0.20485  0.09354  0.46506  1.0000
  C   C10       1.0  0.20105  0.07730  0.47060  1.0000
  C   C11       1.0  0.19844  0.07149  0.50579  1.0000
  C   C12       1.0  0.19919  0.08201  0.53528  1.0000
  H   H10       1.0  0.20892  0.11650  0.49027  1.0000
  H   H11       1.0  0.20715  0.09799  0.43804  1.0000
  H   H12       1.0  0.19547  0.05895  0.51022  1.0000
  H   H13       1.0  0.19668  0.07758  0.56220  1.0000
  C   C13       1.0  0.05167  0.24262  0.53516  1.0000
  C   C14       1.0  0.04875  0.22600  0.53912  1.0000
  C   C15       1.0  0.04831  0.21602  0.50871  1.0000
  C   C16       1.0  0.05069  0.22258  0.47408  1.0000
  C   C17       1.0  0.05323  0.23935  0.46986  1.0000
  H   H14       1.0  0.09695  0.19093  0.60451  1.0000
  H   H15       1.0  0.04688  0.22078  0.56560  1.0000
  H   H16       1.0  0.04623  0.20309  0.51210  1.0000
  C   C18       1.0  0.20765  0.01573  0.34804  1.0000
  H   H17       1.0  0.01111  0.21096  0.62508  1.0000
  C   C19       1.0  0.11519  0.18003  0.67675  1.0000
  C   C20       1.0  0.13282  0.17569  0.66953  1.0000
  C   C21       1.0  0.14178  0.15886  0.67476  1.0000
  C   C22       1.0  0.13323  0.14614  0.68766  1.0000
  C   C23       1.0  0.11546  0.15034  0.69341  1.0000
  C   C24       1.0  0.10646  0.16713  0.68774  1.0000
  H   H18       1.0  0.13974  0.18553  0.66099  1.0000
  H   H19       1.0  0.15545  0.15594  0.67055  1.0000
  H   H20       1.0  0.10865  0.14063  0.70319  1.0000
  H   H21       1.0  0.09290  0.17021  0.69331  1.0000
  C   C25       1.0  0.17002  0.13039  0.43878  1.0000
  C   C26       1.0  0.10700  0.16544  0.78118  1.0000
  Fe  Fe16      1.0  0.05514  0.24997  0.70717  1.0000
  H   H22       1.0  0.11828  0.13119  0.76560  1.0000
  H   H23       1.0  0.09164  0.19058  0.77422  1.0000
  C   C27       1.0  0.13651  0.16275  0.76717  1.0000
  C   C28       1.0  0.15638  0.09028  0.50288  1.0000
  H   H24       1.0  0.18986  0.06664  0.22339  1.0000
  C   C29       1.0  0.06633  0.15595  0.29180  1.0000
  C   C30       1.0  0.16035  0.10455  0.51923  1.0000
  C   C31       1.0  0.24908  0.11747  0.63103  1.0000
  H   H25       1.0  0.02499  0.15355  0.34550  1.0000
  C   C32       1.0  0.12517  0.13728  0.78583  1.0000
  C   C33       1.0  0.11814  0.19027  0.76199  1.0000
  C   C34       1.0  0.09508  0.21634  0.58256  1.0000
  H   H26       1.0  0.18315  0.09454  0.19890  1.0000
  H   H27       1.0  0.03892  0.18489  0.24559  1.0000
  N   N1        1.0  0.20902  0.01375  0.62829  1.0000
  H   H28       1.0  0.16255  0.13260  0.41359  1.0000
  C   C35       1.0  0.16785  0.01535  0.63872  1.0000
  C   C36       1.0  0.15665  0.08941  0.46538  1.0000
  H   H29       1.0  0.16125  0.10206  0.41566  1.0000
  H   H30       1.0  0.16854  0.12838  0.51084  1.0000
  H   H31       1.0  0.16801  0.14265  0.45314  1.0000
  H   H32       1.0  0.15405  0.07820  0.45227  1.0000
  H   H33       1.0  0.15354  0.07974  0.51929  1.0000
  H   H34       1.0  0.18374  0.12666  0.43142  1.0000
  H   H35       1.0  0.20545  0.03639  0.59567  1.0000
  N   N2        1.0  0.05098  0.16444  0.27955  1.0000
  C   C37       1.0  0.03623  0.16317  0.29789  1.0000
  H   H36       1.0  0.07960  0.14038  0.33430  1.0000
  C   C38       1.0  0.03670  0.15402  0.33051  1.0000
  C   C39       1.0  0.17216  0.02451  0.29870  1.0000
  C   C40       1.0  0.19481  0.00852  0.40420  1.0000
  H   H37       1.0  0.16674  0.01613  0.60973  1.0000
  H   H38       1.0  0.02399  0.16952  0.28777  1.0000
  C   C41       1.0  0.05238  0.14583  0.34387  1.0000
  H   H39       1.0  0.07799  0.15659  0.27679  1.0000
  H   H40       1.0  0.08781  0.20365  0.45917  1.0000
  C   C42       1.0  0.21474  0.05099  0.22214  1.0000
  C   C43       1.0  0.16456  0.02603  0.33302  1.0000
  H   H41       1.0  0.19986  0.03356  0.39064  1.0000
  H   H42       1.0  0.09616  0.15970  0.78895  1.0000
  S   S27       1.0  0.00809  0.20378  0.28913  1.0000
  C   C44       1.0  0.20553  0.02280  0.59676  1.0000
  C   C45       1.0  0.06730  0.14666  0.32428  1.0000
  H   H43       1.0  0.16235  0.03818  0.34620  1.0000
  C   C46       1.0  0.20114  0.01488  0.56600  1.0000
  H   H44       1.0  0.20868  0.01656  0.68530  1.0000
  C   C47       1.0  0.17478  0.00864  0.28181  1.0000
  C   C48       1.0  0.09280  0.22653  0.55148  1.0000
  H   H45       1.0  0.14899  0.15485  0.76320  1.0000
  C   C49       1.0  0.24628  0.09059  0.26253  1.0000
  C   C50       1.0  0.23194  0.05023  0.21359  1.0000
  H   H46       1.0  0.16077  0.10512  0.54836  1.0000
  C   C51       1.0  0.24239  0.10257  0.63265  1.0000
  H   H47       1.0  0.19850  0.10528  0.21889  1.0000
  H   H48       1.0  0.19867  0.10229  0.17078  1.0000
  N   N3        1.0  0.16468  0.11688  0.46100  1.0000
  C   C52       1.0  0.16467  0.11774  0.49778  1.0000
  C   C53       1.0  0.16084  0.10292  0.44475  1.0000
  C   C54       1.0  0.20318  0.06618  0.21623  1.0000
  H   H49       1.0  0.08891  0.22717  0.49447  1.0000
  H   H50       1.0  0.21033  0.03997  0.23372  1.0000
  N   N4        1.0  0.20862  0.08024  0.20217  1.0000
  H   H51       1.0  0.15365  0.01318  0.37668  1.0000
  H   H52       1.0  0.09635  0.22197  0.60845  1.0000
  C   C55       1.0  0.17149  0.02857  0.69522  1.0000
  N   N5        1.0  0.09146  0.20193  0.51638  1.0000
  H   H53       1.0  0.21178  0.02506  0.33002  1.0000
  H   H54       1.0  0.19779  0.02227  0.54150  1.0000
  H   H55       1.0  0.09357  0.17834  0.54535  1.0000
  C   C56       1.0  0.09351  0.19187  0.54682  1.0000
  C   C57       1.0  0.24754  0.08631  0.73994  1.0000
  H   H56       1.0  0.05003  0.16620  0.22257  1.0000
  C   C58       1.0  0.09541  0.19890  0.58032  1.0000
  C   C59       1.0  0.09106  0.21907  0.51836  1.0000
  H   H57       1.0  0.11613  0.20366  0.75422  1.0000
  C   C60       1.0  0.05035  0.17451  0.24600  1.0000
  C   C61       1.0  0.17022  0.02972  0.65768  1.0000
  C   C62       1.0  0.23737  0.06460  0.19917  1.0000
  H   H58       1.0  0.00465  0.19492  0.36553  1.0000
  C   C63       1.0  0.10435  0.18289  0.77307  1.0000
  H   H59       1.0  0.17325  0.03957  0.71017  1.0000
  H   H60       1.0  0.05512  0.24447  0.44321  1.0000
  S   S28       1.0  0.01593  0.20921  0.70323  1.0000
  C   C64       1.0  0.13433  0.18018  0.75904  1.0000
  C   C65       1.0  0.15963  0.01183  0.35024  1.0000
  H   H61       1.0  0.24110  0.03864  0.21867  1.0000
  H   H62       1.0  0.05297  0.13890  0.36939  1.0000
  H   H63       1.0  0.10107  0.18439  0.47535  1.0000
  C   C66       1.0  0.08962  0.19411  0.48168  1.0000
  C   C67       1.0  0.22548  0.07962  0.19389  1.0000
  N   N6        1.0  0.12293  0.15562  0.77825  1.0000
  H   H64       1.0  0.24548  0.06785  0.29396  1.0000
  C   C68       1.0  0.19660  0.09635  0.19739  1.0000
  C   C69       1.0  0.17025  0.01319  0.71352  1.0000
  H   H65       1.0  0.12028  0.13484  0.81326  1.0000
  H   H66       1.0  0.13878  0.13092  0.78398  1.0000
  C   C70       1.0  0.20083  0.02052  0.38196  1.0000
  C   C71       1.0  0.24845  0.10360  0.73706  1.0000
  C   C72       1.0  0.21340  0.02227  0.66042  1.0000
  C   C73       1.0  0.05372  0.24936  0.50045  1.0000
  H   H67       1.0  0.06168  0.18075  0.24329  1.0000
  H   H68       1.0  0.17095  0.01247  0.74258  1.0000
  H   H69       1.0  0.18058  0.00735  0.25519  1.0000
  H   H70       1.0  0.18921  0.01243  0.43023  1.0000
  H   H71       1.0  0.20720  0.03594  0.66023  1.0000
  H   H72       1.0  0.24173  0.12894  0.61898  1.0000
  S   S29       1.0  0.03410  0.24827  0.66904  1.0000
  H   H73       1.0  0.22987  0.10245  0.62195  1.0000
  H   H74       1.0  0.25079  0.06435  0.19345  1.0000
  H   H75       1.0  0.22740  0.02131  0.66172  1.0000
  H   H76       1.0  0.25128  0.11129  0.22836  1.0000
  H   H77       1.0  0.24649  0.07639  0.65086  1.0000
  C   C74       1.0  0.25182  0.08789  0.64837  1.0000
  H   H78       1.0  0.00864  0.24084  0.26693  1.0000
  C   C75       1.0  0.25301  0.07423  0.27562  1.0000
  C   C76       1.0  0.01583  0.33253  0.28807  1.0000
  C   C77       1.0  0.07891  0.45483  0.62851  1.0000
  C   C78       1.0  0.09566  0.36455  0.01521  1.0000
  C   C79       1.0  0.05300  0.28175  0.26490  1.0000
  C   C80       1.0  0.04271  0.30312  0.65999  1.0000
  H   H79       1.0  0.01340  0.29734  0.75356  1.0000
  H   H80       1.0  0.09022  0.36465  0.07197  1.0000
  S   S30       1.0  0.06194  0.50138  0.72942  1.0000
  S   S31       1.0  0.06320  0.46746  0.29785  1.0000
  H   H81       1.0  0.05780  0.32254  0.65067  1.0000
  H   H82       1.0  0.09484  0.39998  0.96278  1.0000
  N   N7        1.0  0.01184  0.44713  0.24620  1.0000
  H   H83       1.0  0.01736  0.35447  0.80344  1.0000
  C   C81       1.0  0.04334  0.29498  0.24435  1.0000
  C   C82       1.0  0.09085  0.39964  0.02062  1.0000
  H   H84       1.0  0.07310  0.45072  0.60492  1.0000
  H   H85       1.0  0.09282  0.39107  0.10753  1.0000
  N   N8        1.0  0.09129  0.47588  0.65821  1.0000
  N   N9        1.0  0.04940  0.32474  0.31071  1.0000
  H   H86       1.0  0.00873  0.32636  0.79885  1.0000
  Fe  Fe17      1.0  0.05981  0.38793  0.17171  1.0000
  S   S32       1.0  0.03745  0.38772  0.13588  1.0000
  S   S33       1.0  0.06835  0.41364  0.17117  1.0000
  Fe  Fe18      1.0  0.06351  0.34933  0.18925  1.0000
  S   S34       1.0  0.04191  0.34681  0.15376  1.0000
  S   S35       1.0  0.07724  0.32638  0.22157  1.0000
  Fe  Fe19      1.0  0.05265  0.36361  0.11364  1.0000
  S   S36       1.0  0.05434  0.35489  0.05542  1.0000
  Fe  Fe20      1.0  0.02899  0.37105  0.17926  1.0000
  H   H87       1.0  0.06847  0.47046  0.21949  1.0000
  S   S37       1.0  0.07566  0.36436  0.14716  1.0000
  S   S38       1.0  0.05002  0.37305  0.21690  1.0000
  Fe  Fe21      1.0  0.05592  0.38946  0.85362  1.0000
  S   S39       1.0  0.07280  0.38731  0.80341  1.0000
  S   S40       1.0  0.06199  0.39644  0.91049  1.0000
  Fe  Fe22      1.0  0.02523  0.38596  0.81168  1.0000
  S   S41       1.0  0.03898  0.38332  0.75885  1.0000
  Fe  Fe23      1.0  0.05939  0.36582  0.78895  1.0000
  S   S42       1.0  0.07291  0.34221  0.75953  1.0000
  Fe  Fe24      1.0  0.05102  0.40498  0.77663  1.0000
  S   S43       1.0  0.05006  0.42502  0.73147  1.0000
  S   S44       1.0  0.04438  0.36673  0.84111  1.0000
  S   S45       1.0  0.03539  0.40877  0.82754  1.0000
  C   C83       1.0  0.06938  0.29408  0.73111  1.0000
  C   C84       1.0  0.07466  0.30985  0.73422  1.0000
  C   C85       1.0  0.06635  0.32221  0.75824  1.0000
  C   C86       1.0  0.05292  0.31846  0.77981  1.0000
  H   H88       1.0  0.01696  0.41640  0.70819  1.0000
  H   H89       1.0  0.08512  0.31259  0.71759  1.0000
  H   H90       1.0  0.04649  0.32778  0.79858  1.0000
  C   C87       1.0  0.05376  0.36715  0.01500  1.0000
  C   C88       1.0  0.05217  0.38486  0.01498  1.0000
  C   C89       1.0  0.05383  0.39382  0.98240  1.0000
  C   C90       1.0  0.05697  0.38520  0.94963  1.0000
  C   C91       1.0  0.05769  0.36760  0.94945  1.0000
  C   C92       1.0  0.05613  0.35864  0.98201  1.0000
  H   H91       1.0  0.05018  0.39157  0.04014  1.0000
  H   H92       1.0  0.05320  0.40745  0.98272  1.0000
  H   H93       1.0  0.06032  0.36078  0.92450  1.0000
  H   H94       1.0  0.05742  0.34493  0.98183  1.0000
  C   C93       1.0  0.06801  0.30850  0.23467  1.0000
  C   C94       1.0  0.05079  0.30824  0.22924  1.0000
  C   C95       1.0  0.07785  0.29486  0.25385  1.0000
  H   H95       1.0  0.04305  0.31854  0.21444  1.0000
  H   H96       1.0  0.09121  0.29485  0.25803  1.0000
  C   C96       1.0  0.05103  0.44689  0.73431  1.0000
  C   C97       1.0  0.04574  0.45766  0.70464  1.0000
  C   C98       1.0  0.04845  0.47456  0.70332  1.0000
  C   C99       1.0  0.05648  0.48088  0.73174  1.0000
  C   C100      1.0  0.06111  0.47036  0.76212  1.0000
  C   C101      1.0  0.05837  0.45344  0.76349  1.0000
  H   H97       1.0  0.04003  0.45273  0.68194  1.0000
  H   H98       1.0  0.04476  0.48248  0.67983  1.0000
  H   H99       1.0  0.06726  0.47517  0.78435  1.0000
  H   H100      1.0  0.06253  0.44529  0.78647  1.0000
  N   N10       1.0  0.08963  0.38978  0.05082  1.0000
  S   S46       1.0  0.04810  0.27109  0.74850  1.0000
  C   C102      1.0  0.07040  0.28156  0.26890  1.0000
  H   H101      1.0  0.06804  0.32755  0.34884  1.0000
  H   H102      1.0  0.09675  0.35087  0.01330  1.0000
  S   S47       1.0  0.04216  0.26733  0.28890  1.0000
  C   C103      1.0  0.05589  0.29037  0.75250  1.0000
  H   H103      1.0  0.07574  0.28480  0.71218  1.0000
  H   H104      1.0  0.04249  0.30283  0.33651  1.0000
  H   H105      1.0  0.00948  0.38907  0.93801  1.0000
  C   C104      1.0  0.06454  0.45284  0.26198  1.0000
  C   C105      1.0  0.06282  0.43595  0.26997  1.0000
  C   C106      1.0  0.06376  0.42385  0.24255  1.0000
  C   C107      1.0  0.06667  0.42846  0.20673  1.0000
  C   C108      1.0  0.06829  0.44537  0.19870  1.0000
  C   C109      1.0  0.06710  0.45754  0.22608  1.0000
  H   H106      1.0  0.06086  0.43217  0.29765  1.0000
  H   H107      1.0  0.06257  0.41089  0.24923  1.0000
  H   H108      1.0  0.07055  0.44909  0.17111  1.0000
  Fe  Fe25      1.0  0.06032  0.49648  0.29777  1.0000
  H   H109      1.0  0.08936  0.49593  0.49097  1.0000
  H   H110      1.0  0.03758  0.29974  0.79425  1.0000
  C   C110      1.0  0.03823  0.31437  0.32075  1.0000
  H   H111      1.0  0.08628  0.41130  0.08580  1.0000
  C   C111      1.0  0.09320  0.46595  0.68884  1.0000
  H   H112      1.0  0.01682  0.40875  0.20640  1.0000
  H   H113      1.0  0.02317  0.35431  0.26134  1.0000
  C   C112      1.0  0.04409  0.33905  0.29004  1.0000
  C   C113      1.0  0.09729  0.49211  0.65755  1.0000
  C   C114      1.0  0.02726  0.34314  0.27834  1.0000
  H   H114      1.0  0.07123  0.39731  0.09220  1.0000
  C   C115      1.0  0.01396  0.35352  0.90283  1.0000
  C   C116      1.0  0.08085  0.44460  0.65964  1.0000
  H   H115      1.0  0.04226  0.34169  0.69710  1.0000
  H   H116      1.0  0.03117  0.43341  0.21190  1.0000
  C   C117      1.0  0.08434  0.47049  0.62816  1.0000
  H   H117      1.0  0.05304  0.34710  0.28165  1.0000
  H   H118      1.0  0.07632  0.43260  0.66077  1.0000
  C   C118      1.0  0.04787  0.30256  0.77721  1.0000
  C   C119      1.0  0.08477  0.39777  0.08563  1.0000
  H   H119      1.0  0.02985  0.46236  0.22807  1.0000
  H   H120      1.0  0.09276  0.50003  0.63343  1.0000
  H   H121      1.0  0.07801  0.27149  0.28462  1.0000
  H   H122      1.0  0.02661  0.28576  0.67736  1.0000
  C   C120      1.0  0.09694  0.37449  0.98431  1.0000
  H   H123      1.0  0.08847  0.41340  0.02221  1.0000
  H   H124      1.0  0.08920  0.44248  0.71460  1.0000
  H   H125      1.0  0.07132  0.30696  0.32764  1.0000
  C   C121      1.0  0.00602  0.33976  0.89570  1.0000
  H   H126      1.0  0.01618  0.33977  0.19476  1.0000
  C   C122      1.0  0.03836  0.32973  0.69141  1.0000
  H   H127      1.0  0.02757  0.35113  0.90741  1.0000
  C   C123      1.0  0.01910  0.43353  0.22583  1.0000
  H   H128      1.0  0.07588  0.32493  0.30280  1.0000
  C   C124      1.0  0.08812  0.45013  0.68996  1.0000
  C   C125      1.0  0.01103  0.41954  0.22254  1.0000
  H   H129      1.0  0.01343  0.32696  0.89421  1.0000
  N   N11       1.0  0.00472  0.36975  0.90340  1.0000
  H   H130      1.0  0.11142  0.48979  0.65710  1.0000
  H   H131      1.0  0.09908  0.36860  0.95813  1.0000
  C   C126      1.0  0.02132  0.31805  0.30940  1.0000
  C   C127      1.0  0.09458  0.39214  0.98696  1.0000
  H   H132      1.0  0.01248  0.43845  0.72109  1.0000
  H   H133      1.0  0.02988  0.29528  0.24096  1.0000
  C   C128      1.0  0.02514  0.32457  0.71142  1.0000
  C   C129      1.0  0.09192  0.37246  0.04841  1.0000
  C   C130      1.0  0.02071  0.46142  0.25066  1.0000
  H   H134      1.0  0.09246  0.49957  0.68177  1.0000
  C   C131      1.0  0.06700  0.32089  0.32331  1.0000
  H   H135      1.0  0.08283  0.47839  0.60382  1.0000
  H   H136      1.0  0.02794  0.45971  0.27618  1.0000
  C   C132      1.0  0.04717  0.31892  0.66551  1.0000
  H   H137      1.0  0.01876  0.33279  0.73232  1.0000
  N   N12       1.0  0.02080  0.30908  0.70574  1.0000
  C   C133      1.0  0.02950  0.29834  0.68068  1.0000
  C   C134      1.0  0.00762  0.30347  0.72846  1.0000
  H   H138      1.0  0.09829  0.47045  0.71294  1.0000
  H   H139      1.0  0.04978  0.29436  0.64071  1.0000
  H   H140      1.0  0.02716  0.38059  0.90904  1.0000
  H   H141      1.0  0.05596  0.26224  0.49726  1.0000
  H   H142      1.0  0.00928  0.39453  0.89030  1.0000
  H   H143      1.0  0.01269  0.30946  0.31640  1.0000
  H   H144      1.0  0.04831  0.50069  0.49793  1.0000
  C   C135      1.0  0.00761  0.42853  0.70607  1.0000
  H   H145      1.0  0.01155  0.47371  0.25155  1.0000
  C   C136      1.0  0.01306  0.38417  0.91063  1.0000
  H   H146      1.0  0.01193  0.47824  0.67711  1.0000
  H   H147      1.0  0.01764  0.49960  0.31041  1.0000
  H   H148      1.0  0.00627  0.25879  0.29646  1.0000
  H   H149      1.0  0.01692  0.48634  0.75850  1.0000
  H   H150      1.0  0.00870  0.26167  0.24851  1.0000
  H   H151      1.0  0.00681  0.43281  0.67738  1.0000
  S   S48       1.0  0.05395  0.25470  0.57325  1.0000
  C   C137      1.0  0.00887  0.50114  0.64442  1.0000
  C   C138      1.0  0.00624  0.49522  0.74734  1.0000
  H   H152      1.0  0.00512  0.47424  0.32506  1.0000
  C   C139      1.0  0.00430  0.50116  0.31760  1.0000
  C   C140      1.0  0.00406  0.48622  0.65773  1.0000
  C   C141      1.0  0.00402  0.35375  0.80247  1.0000
  S   S49       1.0  0.07164  0.54760  0.22075  1.0000
  S   S50       1.0  0.04813  0.54503  0.31281  1.0000
  S   S51       1.0  0.04579  0.54929  0.59768  1.0000
  S   S52       1.0  0.04986  0.58503  0.66123  1.0000
  S   S53       1.0  0.07499  0.53497  0.65772  1.0000
  H   H153      1.0  0.03279  0.61190  0.15780  1.0000
  Fe  Fe26      1.0  0.05754  0.64871  0.18224  1.0000
  S   S54       1.0  0.04401  0.65050  0.12964  1.0000
  S   S55       1.0  0.05726  0.62836  0.22583  1.0000
  Fe  Fe27      1.0  0.06528  0.68503  0.17380  1.0000
  S   S56       1.0  0.05242  0.68979  0.12010  1.0000
  S   S57       1.0  0.07908  0.70225  0.20545  1.0000
  Fe  Fe28      1.0  0.03240  0.67695  0.14618  1.0000
  H   H154      1.0  0.10524  0.57265  0.24237  1.0000
  Fe  Fe29      1.0  0.06510  0.66298  0.10739  1.0000
  S   S58       1.0  0.07779  0.65454  0.05375  1.0000
  S   S59       1.0  0.04409  0.67442  0.20056  1.0000
  S   S60       1.0  0.07985  0.65903  0.15915  1.0000
  Fe  Fe30      1.0  0.06374  0.65622  0.79401  1.0000
  S   S61       1.0  0.04402  0.66424  0.83732  1.0000
  S   S62       1.0  0.07420  0.62810  0.78571  1.0000
  Fe  Fe31      1.0  0.06396  0.69299  0.76911  1.0000
  S   S63       1.0  0.04416  0.70373  0.81003  1.0000
  S   S64       1.0  0.07156  0.70802  0.72084  1.0000
  Fe  Fe32      1.0  0.05860  0.68471  0.84937  1.0000
  S   S65       1.0  0.05769  0.69459  0.90657  1.0000
  Fe  Fe33      1.0  0.03126  0.68248  0.79530  1.0000
  H   H155      1.0  0.00987  0.61850  0.16058  1.0000
  S   S66       1.0  0.07983  0.67542  0.80915  1.0000
  S   S67       1.0  0.04969  0.67297  0.75131  1.0000
  C   C142      1.0  0.07082  0.66483  0.01259  1.0000
  C   C143      1.0  0.07866  0.65856  0.98011  1.0000
  C   C144      1.0  0.07432  0.66717  0.94713  1.0000
  C   C145      1.0  0.06223  0.68225  0.94648  1.0000
  C   C146      1.0  0.05419  0.68836  0.97887  1.0000
  C   C147      1.0  0.05835  0.67963  0.01175  1.0000
  H   H156      1.0  0.08835  0.64713  0.98053  1.0000
  H   H157      1.0  0.08072  0.66242  0.92242  1.0000
  H   H158      1.0  0.04481  0.70003  0.97860  1.0000
  H   H159      1.0  0.05218  0.68455  0.03654  1.0000
  N   N13       1.0  0.01998  0.59870  0.19739  1.0000
  H   H160      1.0  0.01930  0.65275  0.79963  1.0000
  H   H161      1.0  0.02020  0.50475  0.65435  1.0000
  H   H162      1.0  0.06963  0.71441  0.01559  1.0000
  C   C148      1.0  0.07282  0.53147  0.44193  1.0000
  S   S68       1.0  0.05061  0.50979  0.62755  1.0000
  C   C149      1.0  0.02156  0.61409  0.17642  1.0000
  C   C150      1.0  0.08324  0.50894  0.48537  1.0000
  H   H163      1.0  0.03373  0.73150  0.74576  1.0000
  H   H164      1.0  0.10282  0.68892  0.14858  1.0000
  C   C151      1.0  0.07148  0.72418  0.21331  1.0000
  C   C152      1.0  0.05987  0.73419  0.19030  1.0000
  C   C153      1.0  0.01021  0.60011  0.22824  1.0000
  H   H165      1.0  0.08770  0.71851  0.13739  1.0000
  C   C154      1.0  0.03680  0.65048  0.93716  1.0000
  C   C155      1.0  0.07817  0.73198  0.24190  1.0000
  H   H166      1.0  0.05471  0.72836  0.16809  1.0000
  H   H167      1.0  0.02346  0.62445  0.19456  1.0000
  H   H168      1.0  0.09607  0.60297  0.24029  1.0000
  H   H169      1.0  0.08724  0.72435  0.25968  1.0000
  C   C156      1.0  0.07717  0.65149  0.66107  1.0000
  C   C157      1.0  0.08553  0.71498  0.08013  1.0000
  C   C158      1.0  0.07186  0.73964  0.69081  1.0000
  C   C159      1.0  0.07453  0.72939  0.72217  1.0000
  C   C160      1.0  0.08006  0.73616  0.75323  1.0000
  H   H170      1.0  0.09114  0.54439  0.33384  1.0000
  Fe  Fe34      1.0  0.03126  0.52622  0.30716  1.0000
  H   H171      1.0  0.06769  0.73446  0.66659  1.0000
  H   H172      1.0  0.08231  0.72836  0.77745  1.0000
  H   H173      1.0  0.08190  0.62434  0.65523  1.0000
  C   C161      1.0  0.05541  0.59638  0.69832  1.0000
  C   C162      1.0  0.06542  0.58840  0.72650  1.0000
  C   C163      1.0  0.07054  0.59821  0.75392  1.0000
  C   C164      1.0  0.06558  0.61604  0.75364  1.0000
  C   C165      1.0  0.05516  0.62395  0.72603  1.0000
  C   C166      1.0  0.05023  0.61418  0.69840  1.0000
  H   H174      1.0  0.06950  0.57472  0.72676  1.0000
  H   H175      1.0  0.07862  0.59197  0.77514  1.0000
  H   H176      1.0  0.05136  0.63763  0.72529  1.0000
  H   H177      1.0  0.04254  0.62045  0.67663  1.0000
  C   C167      1.0  0.06684  0.57013  0.22115  1.0000
  C   C168      1.0  0.05901  0.57880  0.25109  1.0000
  C   C169      1.0  0.05576  0.59663  0.25141  1.0000
  C   C170      1.0  0.06024  0.60609  0.22176  1.0000
  C   C171      1.0  0.06784  0.59755  0.19139  1.0000
  C   C172      1.0  0.07121  0.57959  0.19120  1.0000
  H   H178      1.0  0.05575  0.57186  0.27443  1.0000
  H   H179      1.0  0.04996  0.60314  0.27507  1.0000
  H   H180      1.0  0.07149  0.60474  0.16848  1.0000
  H   H181      1.0  0.07733  0.57301  0.16789  1.0000
  H   H182      1.0  0.03319  0.55593  0.19686  1.0000
  H   H183      1.0  0.10300  0.54508  0.27148  1.0000
  H   H184      1.0  0.08318  0.59889  0.33549  1.0000
  H   H185      1.0  0.03375  0.54238  0.40034  1.0000
  Fe  Fe35      1.0  0.06295  0.53182  0.26682  1.0000
  C   C173      1.0  0.01647  0.67333  0.90873  1.0000
  H   H186      1.0  0.08095  0.57136  0.36567  1.0000
  C   C174      1.0  0.02641  0.56828  0.20558  1.0000
  C   C175      1.0  0.01102  0.74588  0.72156  1.0000
  H   H187      1.0  0.08511  0.61387  0.27758  1.0000
  Fe  Fe36      1.0  0.02985  0.53274  0.62571  1.0000
  H   H188      1.0  0.02124  0.51422  0.73335  1.0000
  C   C176      1.0  0.08453  0.63480  0.67102  1.0000
  C   C177      1.0  0.10277  0.61417  0.70994  1.0000
  Fe  Fe37      1.0  0.05636  0.51935  0.68104  1.0000
  H   H189      1.0  0.09023  0.72016  0.00657  1.0000
  H   H190      1.0  0.09532  0.60481  0.69998  1.0000
  C   C178      1.0  0.08007  0.51448  0.44943  1.0000
  C   C179      1.0  0.02206  0.53889  0.41265  1.0000
  S   S69       1.0  0.04456  0.51411  0.25813  1.0000
  C   C180      1.0  0.09072  0.66168  0.71146  1.0000
  H   H191      1.0  0.10545  0.64233  0.74478  1.0000
  C   C181      1.0  0.02780  0.58302  0.18562  1.0000
  S   S70       1.0  0.08324  0.51307  0.55880  1.0000
  C   C182      1.0  0.07335  0.74962  0.24750  1.0000
  H   H192      1.0  0.04731  0.65200  0.91801  1.0000
  C   C183      1.0  0.09609  0.60369  0.27018  1.0000
  H   H193      1.0  0.06754  0.54586  0.52822  1.0000
  H   H194      1.0  0.11582  0.61136  0.69806  1.0000
  S   S71       1.0  0.07038  0.53965  0.39737  1.0000
  H   H195      1.0  0.06899  0.65393  0.63786  1.0000
  C   C184      1.0  0.03948  0.51248  0.49252  1.0000
  H   H196      1.0  0.08388  0.50579  0.42755  1.0000
  H   H197      1.0  0.03799  0.65782  0.96178  1.0000
  Fe  Fe38      1.0  0.05216  0.55636  0.65380  1.0000
  C   C185      1.0  0.09773  0.64484  0.72086  1.0000
  C   C186      1.0  0.08037  0.66500  0.68139  1.0000
  C   C187      1.0  0.09213  0.55644  0.32080  1.0000
  H   H198      1.0  0.01157  0.55011  0.41045  1.0000
  H   H199      1.0  0.01523  0.54566  0.53587  1.0000
  C   C188      1.0  0.09914  0.69317  0.12141  1.0000
  C   C189      1.0  0.01679  0.56963  0.23750  1.0000
  C   C190      1.0  0.02718  0.74394  0.73644  1.0000
  C   C191      1.0  0.03191  0.52241  0.52100  1.0000
  N   N14       1.0  0.09458  0.63166  0.70072  1.0000
  C   C192      1.0  0.07870  0.52020  0.51401  1.0000
  H   H200      1.0  0.08653  0.69934  0.99591  1.0000
  C   C193      1.0  0.10259  0.68197  0.09280  1.0000
  S   S72       1.0  0.08022  0.51321  0.30266  1.0000
  C   C194      1.0  0.08770  0.58710  0.32147  1.0000
  Fe  Fe39      1.0  0.06709  0.52693  0.60359  1.0000
  S   S73       1.0  0.03418  0.54133  0.68117  1.0000
  H   H201      1.0  0.07470  0.67804  0.67421  1.0000
  C   C195      1.0  0.09756  0.68763  0.05809  1.0000
  H   H202      1.0  0.06276  0.55587  0.46500  1.0000
  H   H203      1.0  0.03557  0.58186  0.16120  1.0000
  C   C196      1.0  0.09900  0.55682  0.28604  1.0000
  H   H204      1.0  0.03457  0.51827  0.54868  1.0000
  N   N15       1.0  0.02526  0.53323  0.45014  1.0000
  N   N16       1.0  0.09441  0.58738  0.28730  1.0000
  H   H205      1.0  0.10808  0.60748  0.27853  1.0000
  C   C197      1.0  0.03605  0.51815  0.45703  1.0000
  C   C198      1.0  0.07092  0.53702  0.50646  1.0000
  H   H206      1.0  0.01707  0.63982  0.71810  1.0000
  H   H207      1.0  0.02560  0.68170  0.91163  1.0000
  C   C199      1.0  0.08641  0.57164  0.33868  1.0000
  H   H208      1.0  0.07867  0.72785  0.07556  1.0000
  C   C200      1.0  0.08364  0.70975  0.01579  1.0000
  Fe  Fe40      1.0  0.06390  0.52561  0.34866  1.0000
  S   S74       1.0  0.04551  0.50778  0.34688  1.0000
  H   H209      1.0  0.09309  0.67214  0.72759  1.0000
  C   C201      1.0  0.06823  0.54268  0.47057  1.0000
  H   H210      1.0  0.10876  0.66884  0.09750  1.0000
  H   H211      1.0  0.04234  0.51059  0.43500  1.0000
  H   H212      1.0  0.10348  0.61226  0.73969  1.0000
  N   N17       1.0  0.02030  0.65673  0.92038  1.0000
  C   C202      1.0  0.10017  0.57249  0.26968  1.0000
  H   H213      1.0  0.03851  0.63681  0.94509  1.0000
  C   C203      1.0  0.09060  0.70980  0.11510  1.0000
  N   N18       1.0  0.08904  0.70392  0.05217  1.0000
  H   H214      1.0  0.10019  0.67873  0.03613  1.0000
  C   C204      1.0  0.01791  0.54314  0.47796  1.0000
  C   C205      1.0  0.00866  0.51090  0.73318  1.0000
  H   H215      1.0  0.01581  0.55830  0.25350  1.0000
  C   C206      1.0  0.00855  0.58563  0.24887  1.0000
  H   H216      1.0  0.01835  0.52859  0.39667  1.0000
  C   C207      1.0  0.02107  0.53785  0.51375  1.0000
  H   H217      1.0  0.00925  0.66652  0.20723  1.0000
  H   H218      1.0  0.00958  0.55524  0.47268  1.0000
  H   H219      1.0  0.01199  0.63285  0.92482  1.0000
  C   C208      1.0  0.00572  0.65398  0.80321  1.0000
  H   H220      1.0  0.00722  0.62764  0.81892  1.0000
  C   C209      1.0  0.00893  0.64608  0.91614  1.0000
  C   C210      1.0  0.05544  0.75189  0.19528  1.0000
  H   H221      1.0  0.00480  0.73498  0.71963  1.0000
  S   S75       1.0  0.00428  0.68464  0.13935  1.0000
  S   S76       1.0  0.00436  0.53065  0.60428  1.0000
  C   C211      1.0  0.08329  0.75290  0.75257  1.0000
  Fe  Fe41      1.0  0.18560  0.94266  0.61265  1.0000
  S   S77       1.0  0.15940  0.94756  0.63760  1.0000
  S   S78       1.0  0.18796  0.95380  0.55675  1.0000
  Fe  Fe42      1.0  0.20205  0.92557  0.68134  1.0000
  S   S79       1.0  0.17682  0.92876  0.71084  1.0000
  S   S80       1.0  0.22644  0.91259  0.70871  1.0000
  Fe  Fe43      1.0  0.16595  0.92056  0.65956  1.0000
  S   S81       1.0  0.15141  0.89927  0.64505  1.0000
  Fe  Fe44      1.0  0.17257  0.95527  0.68587  1.0000
  S   S82       1.0  0.16656  0.97955  0.71787  1.0000
  S   S83       1.0  0.19178  0.91551  0.63174  1.0000
  S   S84       1.0  0.19827  0.95220  0.65937  1.0000
  Fe  Fe45      1.0  0.04248  0.82964  0.66561  1.0000
  S   S85       1.0  0.05547  0.80558  0.63894  1.0000
  S   S86       1.0  0.01482  0.83454  0.68532  1.0000
  Fe  Fe46      1.0  0.07636  0.84367  0.67225  1.0000
  S   S87       1.0  0.09157  0.82014  0.64769  1.0000
  S   S88       1.0  0.08755  0.86556  0.69562  1.0000
  Fe  Fe47      1.0  0.07018  0.82291  0.60801  1.0000
  H   H222      1.0  0.14746  0.94115  0.18230  1.0000
  Fe  Fe48      1.0  0.07545  0.80507  0.68103  1.0000
  S   S89       1.0  0.05552  0.84715  0.63141  1.0000
  S   S90       1.0  0.06185  0.82841  0.70895  1.0000
  Fe  Fe49      1.0  0.18059  0.91683  0.37352  1.0000
  S   S91       1.0  0.15361  0.93082  0.37202  1.0000
  S   S92       1.0  0.19029  0.90404  0.42570  1.0000
  Fe  Fe50      1.0  0.18765  0.92446  0.29493  1.0000
  S   S93       1.0  0.16076  0.93887  0.28762  1.0000
  H   H223      1.0  0.17684  0.92704  0.19830  1.0000
  Fe  Fe51      1.0  0.16448  0.95076  0.34034  1.0000
  S   S94       1.0  0.15694  0.97828  0.35757  1.0000
  Fe  Fe52      1.0  0.15220  0.91746  0.31975  1.0000
  S   S95       1.0  0.12790  0.90789  0.30358  1.0000
  S   S96       1.0  0.19170  0.93763  0.34597  1.0000
  S   S97       1.0  0.17885  0.90219  0.32287  1.0000
  Fe  Fe53      1.0  0.05955  0.79765  0.27742  1.0000
  S   S98       1.0  0.05550  0.82610  0.26764  1.0000
  Fe  Fe54      1.0  0.05746  0.80228  0.35959  1.0000
  S   S99       1.0  0.05267  0.83071  0.35479  1.0000
  H   H224      1.0  0.07265  0.76423  0.66606  1.0000
  Fe  Fe55      1.0  0.03498  0.82695  0.31051  1.0000
  H   H225      1.0  0.19710  0.99112  0.54412  1.0000
  Fe  Fe56      1.0  0.07385  0.82701  0.31297  1.0000
  S   S100      1.0  0.09808  0.83855  0.31994  1.0000
  S   S101      1.0  0.03840  0.79886  0.31831  1.0000
  S   S102      1.0  0.07932  0.79822  0.31963  1.0000
  C   C212      1.0  0.11972  0.88858  0.30955  1.0000
  C   C213      1.0  0.10318  0.88808  0.29764  1.0000
  C   C214      1.0  0.09626  0.87305  0.30082  1.0000
  C   C215      1.0  0.10588  0.85814  0.31558  1.0000
  C   C216      1.0  0.12247  0.85862  0.32732  1.0000
  C   C217      1.0  0.12931  0.87371  0.32458  1.0000
  H   H226      1.0  0.09559  0.89945  0.28601  1.0000
  H   H227      1.0  0.08351  0.87298  0.29163  1.0000
  H   H228      1.0  0.13012  0.84721  0.33865  1.0000
  H   H229      1.0  0.14201  0.87379  0.33401  1.0000
  C   C218      1.0  0.06731  0.81574  0.51479  1.0000
  C   C219      1.0  0.06448  0.82470  0.48201  1.0000
  C   C220      1.0  0.06045  0.81659  0.45117  1.0000
  C   C221      1.0  0.05921  0.79940  0.45274  1.0000
  H   H230      1.0  0.15535  0.92148  0.58401  1.0000
  H   H231      1.0  0.09804  0.85141  0.43672  1.0000
  H   H232      1.0  0.06623  0.83779  0.48006  1.0000
  H   H233      1.0  0.05899  0.82352  0.42600  1.0000
  H   H234      1.0  0.19658  0.95595  0.74892  1.0000
  C   C222      1.0  0.09898  0.81199  0.40515  1.0000
  C   C223      1.0  0.18935  0.93984  0.52038  1.0000
  C   C224      1.0  0.18453  0.94644  0.48607  1.0000
  C   C225      1.0  0.18510  0.93556  0.45669  1.0000
  C   C226      1.0  0.19071  0.91803  0.46145  1.0000
  C   C227      1.0  0.19585  0.91146  0.49562  1.0000
  C   C228      1.0  0.19504  0.92232  0.52512  1.0000
  H   H235      1.0  0.17992  0.95995  0.48245  1.0000
  H   H236      1.0  0.18091  0.94067  0.43051  1.0000
  H   H237      1.0  0.20027  0.89792  0.49936  1.0000
  H   H238      1.0  0.19898  0.91716  0.55138  1.0000
  C   C229      1.0  0.13339  0.89036  0.65956  1.0000
  C   C230      1.0  0.12945  0.87653  0.64064  1.0000
  C   C231      1.0  0.11537  0.86898  0.65081  1.0000
  C   C232      1.0  0.10497  0.87516  0.68019  1.0000
  C   C233      1.0  0.10896  0.88891  0.69929  1.0000
  C   C234      1.0  0.12303  0.89649  0.68906  1.0000
  H   H239      1.0  0.13733  0.87162  0.61783  1.0000
  H   H240      1.0  0.11256  0.85840  0.63588  1.0000
  H   H241      1.0  0.10106  0.89381  0.72211  1.0000
  H   H242      1.0  0.12581  0.90710  0.70393  1.0000
  C   C235      1.0  0.16251  0.99590  0.33368  1.0000
  C   C236      1.0  0.17013  0.99433  0.29935  1.0000
  H   H243      1.0  0.02212  0.78207  0.19425  1.0000
  H   H244      1.0  0.01862  0.81336  0.39319  1.0000
  C   C237      1.0  0.23020  0.94182  0.83749  1.0000
  C   C238      1.0  0.20894  0.99665  0.62973  1.0000
  H   H245      1.0  0.17236  0.98214  0.28628  1.0000
  C   C239      1.0  0.23654  0.91890  0.27873  1.0000
  H   H246      1.0  0.04752  0.75653  0.75050  1.0000
  H   H247      1.0  0.21463  0.96560  0.82198  1.0000
  C   C240      1.0  0.22736  0.92328  0.24718  1.0000
  S   S103      1.0  0.08520  0.78396  0.72160  1.0000
  H   H248      1.0  0.02705  0.80062  0.72571  1.0000
  C   C241      1.0  0.20245  0.98734  0.35989  1.0000
  H   H249      1.0  0.04517  0.78744  0.70442  1.0000
  H   H250      1.0  0.08796  0.75789  0.77647  1.0000
  H   H251      1.0  0.14800  0.87314  0.24384  1.0000
  C   C242      1.0  0.01708  0.81583  0.21766  1.0000
  H   H252      1.0  0.16527  0.98893  0.64183  1.0000
  C   C243      1.0  0.24688  0.94964  0.75564  1.0000
  H   H253      1.0  0.04325  0.78800  0.75272  1.0000
  H   H254      1.0  0.18075  0.94999  0.77938  1.0000
  H   H255      1.0  0.18952  0.96849  0.78783  1.0000
  H   H256      1.0  0.23881  0.94768  0.85317  1.0000
  H   H257      1.0  0.04694  0.75958  0.17658  1.0000
  H   H258      1.0  0.01945  0.78363  0.24234  1.0000
  C   C244      1.0  0.23613  0.92719  0.21576  1.0000
  C   C245      1.0  0.06108  0.79063  0.48602  1.0000
  H   H259      1.0  0.02158  0.78339  0.41465  1.0000
  H   H260      1.0  0.20170  0.92162  0.77533  1.0000
  H   H261      1.0  0.08770  0.84555  0.39783  1.0000
  N   N19       1.0  0.10927  0.83374  0.74793  1.0000
  C   C246      1.0  0.12154  0.84107  0.73099  1.0000
  C   C247      1.0  0.10821  0.81721  0.74141  1.0000
  C   C248      1.0  0.13279  0.83198  0.70591  1.0000
  C   C249      1.0  0.11945  0.80764  0.71696  1.0000
  C   C250      1.0  0.13171  0.81515  0.69888  1.0000
  C   C251      1.0  0.09709  0.84351  0.77322  1.0000
  H   H262      1.0  0.12228  0.85424  0.73579  1.0000
  H   H263      1.0  0.09842  0.81142  0.75464  1.0000
  H   H264      1.0  0.14203  0.83812  0.69157  1.0000
  H   H265      1.0  0.11830  0.79463  0.71142  1.0000
  H   H266      1.0  0.14019  0.80801  0.67913  1.0000
  H   H267      1.0  0.09904  0.83806  0.80087  1.0000
  H   H268      1.0  0.09828  0.85714  0.77343  1.0000
  H   H269      1.0  0.08385  0.84331  0.76474  1.0000
  C   C252      1.0  0.13916  0.90439  0.21994  1.0000
  C   C253      1.0  0.13606  0.92043  0.20299  1.0000
  H   H270      1.0  0.12841  0.89843  0.22738  1.0000
  H   H271      1.0  0.12312  0.92666  0.19720  1.0000
  H   H272      1.0  0.17059  0.87244  0.24080  1.0000
  H   H273      1.0  0.15827  0.88288  0.27808  1.0000
  H   H274      1.0  0.23001  0.91576  0.30305  1.0000
  C   C254      1.0  0.16618  0.92065  0.20374  1.0000
  C   C255      1.0  0.10526  0.80409  0.47722  1.0000
  H   H275      1.0  0.14358  0.94869  0.55315  1.0000
  C   C256      1.0  0.16574  0.89128  0.55467  1.0000
  S   S104      1.0  0.05690  0.78216  0.22762  1.0000
  N   N20       1.0  0.00632  0.80472  0.21215  1.0000
  H   H276      1.0  0.17435  0.89375  0.57630  1.0000
  C   C257      1.0  0.06514  0.79878  0.51706  1.0000
  C   C258      1.0  0.16706  0.99989  0.65687  1.0000
  S   S105      1.0  0.00791  0.84176  0.30678  1.0000
  C   C259      1.0  0.03599  0.78818  0.72744  1.0000
  C   C260      1.0  0.09925  0.84208  0.41465  1.0000
  N   N21       1.0  0.10081  0.82454  0.42837  1.0000
  H   H277      1.0  0.09757  0.78548  0.39937  1.0000
  C   C261      1.0  0.14894  0.92244  0.48134  1.0000
  C   C262      1.0  0.14445  0.93743  0.50066  1.0000
  H   H278      1.0  0.14758  0.92260  0.45231  1.0000
  H   H279      1.0  0.13948  0.94933  0.48674  1.0000
  N   N22       1.0  0.20628  0.94459  0.79814  1.0000
  C   C263      1.0  0.00921  0.79041  0.40652  1.0000
  H   H280      1.0  0.19709  0.97703  0.44082  1.0000
  C   C264      1.0  0.06215  0.75970  0.22388  1.0000
  C   C265      1.0  0.23332  0.92422  0.83324  1.0000
  N   N23       1.0  0.02703  0.77378  0.72661  1.0000
  C   C266      1.0  0.19266  0.95527  0.77771  1.0000
  H   H281      1.0  0.24366  0.96329  0.75854  1.0000
  C   C267      1.0  0.03500  0.75812  0.73888  1.0000
  C   C268      1.0  0.16809  0.99876  0.69440  1.0000
  H   H282      1.0  0.15539  0.88554  0.56738  1.0000
  H   H283      1.0  0.24431  0.91637  0.84572  1.0000
  H   H284      1.0  0.18864  0.96787  0.40289  1.0000
  H   H285      1.0  0.06756  0.79169  0.54215  1.0000
  H   H286      1.0  0.11053  0.84331  0.39752  1.0000
  H   H287      1.0  0.10293  0.77851  0.46416  1.0000
  N   N24       1.0  0.19557  0.99221  0.39294  1.0000
  N   N25       1.0  0.15840  0.90717  0.53584  1.0000
  C   C269      1.0  0.10292  0.79131  0.45391  1.0000
  H   H288      1.0  0.18159  0.89903  0.22947  1.0000
  C   C270      1.0  0.10418  0.82075  0.46393  1.0000
  C   C271      1.0  0.15361  0.92170  0.55513  1.0000
  H   H289      1.0  0.10527  0.83069  0.48268  1.0000
  H   H290      1.0  0.17344  0.88205  0.53611  1.0000
  C   C272      1.0  0.09987  0.79523  0.41757  1.0000
  S   S106      1.0  0.20518  0.92307  0.24531  1.0000
  H   H291      1.0  0.10701  0.80135  0.50581  1.0000
  S   S107      1.0  0.05675  0.78833  0.41314  1.0000
  C   C273      1.0  0.16879  0.90474  0.22128  1.0000
  H   H292      1.0  0.09640  0.81499  0.37699  1.0000
  C   C274      1.0  0.15824  0.88047  0.24874  1.0000
  H   H293      1.0  0.15992  0.89588  0.48394  1.0000
  C   C275      1.0  0.15592  0.90732  0.49946  1.0000
  N   N26       1.0  0.15537  0.89675  0.22881  1.0000
  C   C276      1.0  0.14675  0.93708  0.53784  1.0000
  H   H294      1.0  0.22587  0.94870  0.72037  1.0000
  C   C277      1.0  0.14969  0.92857  0.19479  1.0000
  S   S108      1.0  0.07730  0.82487  0.54910  1.0000
  C   C278      1.0  0.18900  0.97999  0.41673  1.0000
  C   C279      1.0  0.24029  0.92368  0.73129  1.0000
  C   C280      1.0  0.23671  0.94140  0.73409  1.0000
  H   H295      1.0  0.22914  0.93066  0.19125  1.0000
  H   H296      1.0  0.06013  0.77732  0.48749  1.0000
  H   H297      1.0  0.20273  0.97452  0.35057  1.0000
  C   C281      1.0  0.20482  0.98831  0.59934  1.0000
  H   H298      1.0  0.20450  0.97482  0.60055  1.0000
  H   H299      1.0  0.03020  0.81111  0.22494  1.0000
  H   H300      1.0  0.01521  0.81005  0.62820  1.0000
  H   H301      1.0  0.21162  0.98944  0.65469  1.0000
  C   C282      1.0  0.01279  0.78641  0.21624  1.0000
  H   H302      1.0  0.01961  0.84215  0.22101  1.0000
  C   C283      1.0  0.21657  0.95189  0.81954  1.0000
  C   C284      1.0  0.20929  0.92734  0.79373  1.0000
  H   H303      1.0  0.17564  0.98522  0.42511  1.0000
  H   H304      1.0  0.22557  0.90333  0.80638  1.0000
  C   C285      1.0  0.01120  0.83340  0.21501  1.0000
  C   C286      1.0  0.22280  0.91690  0.81130  1.0000
  H   H305      1.0  0.21340  0.99527  0.31024  1.0000
  C   C287      1.0  0.20073  0.99751  0.56744  1.0000
  C   C288      1.0  0.07464  0.75653  0.69045  1.0000
  C   C289      1.0  0.08061  0.76315  0.72122  1.0000
  C   C290      1.0  0.00755  0.80727  0.39450  1.0000
  C   C291      1.0  0.20855  0.99902  0.33694  1.0000
  C   C292      1.0  0.01124  0.77577  0.71175  1.0000
  H   H306      1.0  0.07872  0.75546  0.26943  1.0000
  H   H307      1.0  0.00493  0.78811  0.70189  1.0000
  H   H308      1.0  0.00375  0.80607  0.30079  1.0000
  Fe  Fe57      1.0  0.47027  0.08029  0.29281  1.0000
  S   S109      1.0  0.47103  0.06678  0.34641  1.0000
  S   S110      1.0  0.45292  0.07559  0.24696  1.0000
  H   H309      1.0  0.29605  0.09204  0.69208  1.0000
  H   H310      1.0  0.34641  0.03682  0.02490  1.0000
  H   H311      1.0  0.48554  0.14777  0.23740  1.0000
  H   H312      1.0  0.40919  0.05862  0.28149  1.0000
  C   C293      1.0  0.26337  0.10925  0.74730  1.0000
  Fe  Fe58      1.0  0.47861  0.08986  0.37006  1.0000
  S   S111      1.0  0.46591  0.09598  0.42479  1.0000
  C   C294      1.0  0.48611  0.04718  0.46965  1.0000
  S   S112      1.0  0.47575  0.10441  0.31670  1.0000
  H   H313      1.0  0.36363  0.02789  0.96996  1.0000
  H   H314      1.0  0.27498  0.07692  0.67497  1.0000
  H   H315      1.0  0.44794  0.11059  0.67839  1.0000
  C   C295      1.0  0.44217  0.11363  0.62187  1.0000
  H   H316      1.0  0.47576  0.04244  0.45736  1.0000
  C   C296      1.0  0.34417  0.01235  0.23505  1.0000
  Fe  Fe59      1.0  0.50051  0.08644  0.62144  1.0000
  C   C297      1.0  0.35133  0.00917  0.13927  1.0000
  Fe  Fe60      1.0  0.48140  0.07745  0.68892  1.0000
  S   S113      1.0  0.46056  0.08505  0.73162  1.0000
  H   H317      1.0  0.27457  0.05343  0.27521  1.0000
  S   S114      1.0  0.47819  0.07341  0.62987  1.0000
  Fe  Fe61      1.0  0.35598  0.08294  0.18444  1.0000
  S   S115      1.0  0.36210  0.07155  0.12977  1.0000
  S   S116      1.0  0.37317  0.09708  0.21593  1.0000
  Fe  Fe62      1.0  0.32128  0.07057  0.19174  1.0000
  S   S117      1.0  0.32516  0.05823  0.13774  1.0000
  S   S118      1.0  0.30009  0.06287  0.22749  1.0000
  Fe  Fe63      1.0  0.35221  0.04927  0.15384  1.0000
  S   S119      1.0  0.36586  0.02226  0.14939  1.0000
  Fe  Fe64      1.0  0.33453  0.08150  0.11753  1.0000
  S   S120      1.0  0.32412  0.09347  0.06431  1.0000
  S   S121      1.0  0.34808  0.05981  0.20924  1.0000
  S   S122      1.0  0.32875  0.09490  0.17076  1.0000
  Fe  Fe65      1.0  0.36072  0.08272  0.77214  1.0000
  S   S123      1.0  0.36563  0.06227  0.81463  1.0000
  S   S124      1.0  0.38042  0.08603  0.72805  1.0000
  Fe  Fe66      1.0  0.32184  0.08950  0.78945  1.0000
  S   S125      1.0  0.32436  0.06943  0.83356  1.0000
  S   S126      1.0  0.29649  0.10539  0.77056  1.0000
  Fe  Fe67      1.0  0.34736  0.07956  0.85079  1.0000
  S   S127      1.0  0.35760  0.07706  0.90830  1.0000
  Fe  Fe68      1.0  0.34246  0.05384  0.79479  1.0000
  S   S128      1.0  0.34527  0.02601  0.78380  1.0000
  S   S129      1.0  0.34388  0.10108  0.80914  1.0000
  S   S130      1.0  0.33843  0.07296  0.74975  1.0000
  C   C298      1.0  0.33343  0.08847  0.02110  1.0000
  C   C299      1.0  0.34999  0.07918  0.01699  1.0000
  C   C300      1.0  0.35717  0.07600  0.98225  1.0000
  C   C301      1.0  0.34782  0.08176  0.95121  1.0000
  C   C302      1.0  0.33121  0.09093  0.95533  1.0000
  C   C303      1.0  0.32413  0.09437  0.99012  1.0000
  H   H318      1.0  0.35732  0.07457  0.04053  1.0000
  H   H319      1.0  0.37005  0.06894  0.97934  1.0000
  H   H320      1.0  0.32390  0.09554  0.93173  1.0000
  H   H321      1.0  0.31134  0.10166  0.99299  1.0000
  H   H322      1.0  0.47540  0.01610  0.25680  1.0000
  C   C304      1.0  0.43971  0.03842  0.29046  1.0000
  H   H323      1.0  0.29099  0.11464  0.69171  1.0000
  H   H324      1.0  0.46318  0.04053  0.51638  1.0000
  C   C305      1.0  0.45410  0.01948  0.65445  1.0000
  C   C306      1.0  0.48010  0.01323  0.28377  1.0000
  C   C307      1.0  0.43845  0.08447  0.73018  1.0000
  C   C308      1.0  0.43036  0.08218  0.69807  1.0000
  C   C309      1.0  0.41261  0.08271  0.69798  1.0000
  C   C310      1.0  0.40278  0.08519  0.73000  1.0000
  C   C311      1.0  0.41095  0.08702  0.76224  1.0000
  C   C312      1.0  0.42864  0.08686  0.76220  1.0000
  H   H325      1.0  0.43773  0.08016  0.67328  1.0000
  H   H326      1.0  0.40642  0.08118  0.67294  1.0000
  H   H327      1.0  0.40357  0.08902  0.78705  1.0000
  H   H328      1.0  0.43475  0.08872  0.78717  1.0000
  C   C313      1.0  0.47751  0.09605  0.46489  1.0000
  C   C314      1.0  0.46551  0.13469  0.55097  1.0000
  C   C315      1.0  0.30086  0.01942  0.19467  1.0000
  C   C316      1.0  0.40066  0.03984  0.74834  1.0000
  C   C317      1.0  0.47885  0.09202  0.53036  1.0000
  C   C318      1.0  0.47068  0.09083  0.49750  1.0000
  H   H329      1.0  0.43103  0.10769  0.62423  1.0000
  H   H330      1.0  0.47944  0.13454  0.54849  1.0000
  H   H331      1.0  0.47329  0.08821  0.55524  1.0000
  H   H332      1.0  0.45889  0.08602  0.49734  1.0000
  C   C319      1.0  0.43064  0.08157  0.23953  1.0000
  C   C320      1.0  0.42362  0.07479  0.20990  1.0000
  C   C321      1.0  0.40604  0.07911  0.20272  1.0000
  C   C322      1.0  0.39526  0.09050  0.22488  1.0000
  C   C323      1.0  0.40232  0.09739  0.25432  1.0000
  C   C324      1.0  0.41986  0.09285  0.26184  1.0000
  H   H333      1.0  0.43183  0.06606  0.19241  1.0000
  H   H334      1.0  0.40088  0.07377  0.17983  1.0000
  H   H335      1.0  0.39413  0.10630  0.27152  1.0000
  H   H336      1.0  0.42503  0.09823  0.28468  1.0000
  H   H337      1.0  0.30376  0.02874  0.17389  1.0000
  C   C325      1.0  0.46819  0.02669  0.64402  1.0000
  C   C326      1.0  0.47998  0.01849  0.61874  1.0000
  C   C327      1.0  0.33722  0.01533  0.11787  1.0000
  H   H338      1.0  0.47015  0.03829  0.65629  1.0000
  C   C328      1.0  0.46649  0.11394  0.22335  1.0000
  H   H339      1.0  0.30060  0.10367  0.65203  1.0000
  H   H340      1.0  0.32253  0.05120  0.90406  1.0000
  H   H341      1.0  0.47959  0.08951  0.20569  1.0000
  H   H342      1.0  0.39004  0.02773  0.20491  1.0000
  H   H343      1.0  0.45859  0.14803  0.54838  1.0000
  H   H344      1.0  0.44441  0.02704  0.30774  1.0000
  Fe  Fe69      1.0  0.49847  0.05027  0.63779  1.0000
  H   H345      1.0  0.37152  0.10626  0.03396  1.0000
  C   C329      1.0  0.27763  0.09772  0.76010  1.0000
  C   C330      1.0  0.44711  0.11983  0.58852  1.0000
  C   C331      1.0  0.27284  0.09046  0.22786  1.0000
  S   S131      1.0  0.49988  0.05285  0.69741  1.0000
  H   H346      1.0  0.31924  0.03592  0.83839  1.0000
  N   N27       1.0  0.34824  0.12282  0.10625  1.0000
  C   C332      1.0  0.36024  0.11892  0.13244  1.0000
  C   C333      1.0  0.35228  0.11862  0.07121  1.0000
  C   C334      1.0  0.37672  0.11039  0.12382  1.0000
  C   C335      1.0  0.36858  0.10994  0.06169  1.0000
  C   C336      1.0  0.38085  0.10581  0.08823  1.0000
  C   C337      1.0  0.33097  0.13175  0.11529  1.0000
  H   H347      1.0  0.35711  0.12215  0.16034  1.0000
  H   H348      1.0  0.34271  0.12155  0.05051  1.0000
  H   H349      1.0  0.38608  0.10709  0.14485  1.0000
  H   H350      1.0  0.45425  0.10997  0.22621  1.0000
  H   H351      1.0  0.39349  0.09890  0.08132  1.0000
  H   H352      1.0  0.32142  0.12458  0.10510  1.0000
  H   H353      1.0  0.32882  0.13296  0.14487  1.0000
  H   H354      1.0  0.32867  0.14469  0.10280  1.0000
  H   H355      1.0  0.46221  0.12727  0.52802  1.0000
  H   H356      1.0  0.27027  0.12914  0.64413  1.0000
  Fe  Fe70      1.0  0.49893  0.05867  0.33628  1.0000
  H   H357      1.0  0.29177  0.02635  0.21469  1.0000
  N   N28       1.0  0.46120  0.12726  0.58561  1.0000
  N   N29       1.0  0.34414  0.03917  0.93391  1.0000
  H   H358      1.0  0.48195  0.13440  0.61296  1.0000
  H   H359      1.0  0.30503  0.06053  0.95813  1.0000
  C   C338      1.0  0.46602  0.12274  0.64908  1.0000
  C   C339      1.0  0.27675  0.08044  0.76274  1.0000
  C   C340      1.0  0.39779  0.04442  0.24363  1.0000
  H   H360      1.0  0.28758  0.07141  0.77249  1.0000
  C   C341      1.0  0.42804  0.02100  0.24765  1.0000
  H   H361      1.0  0.38615  0.05389  0.24182  1.0000
  C   C342      1.0  0.32910  0.02006  0.21825  1.0000
  C   C343      1.0  0.26176  0.07482  0.75300  1.0000
  H   H362      1.0  0.36774  0.03633  0.90508  1.0000
  H   H363      1.0  0.32768  0.03316  0.20893  1.0000
  H   H364      1.0  0.44529  0.02545  0.67482  1.0000
  H   H365      1.0  0.39815  0.05324  0.75478  1.0000
  H   H366      1.0  0.43575  0.04949  0.30831  1.0000
  C   C344      1.0  0.48399  0.13518  0.22945  1.0000
  S   S132      1.0  0.50243  0.09270  0.68030  1.0000
  C   C345      1.0  0.27956  0.07410  0.24090  1.0000
  H   H367      1.0  0.49311  0.03445  0.28469  1.0000
  C   C346      1.0  0.49014  0.02359  0.29953  1.0000
  H   H368      1.0  0.26388  0.12266  0.74521  1.0000
  C   C347      1.0  0.32440  0.00572  0.11408  1.0000
  S   S133      1.0  0.49841  0.02640  0.60792  1.0000
  C   C348      1.0  0.26518  0.11748  0.64524  1.0000
  H   H369      1.0  0.47353  0.04619  0.55537  1.0000
  C   C349      1.0  0.34103  0.03984  0.99844  1.0000
  C   C350      1.0  0.35071  0.03490  0.96730  1.0000
  H   H370      1.0  0.28035  0.09685  0.20949  1.0000
  C   C351      1.0  0.43115  0.04056  0.74482  1.0000
  C   C352      1.0  0.32451  0.04915  0.99518  1.0000
  C   C353      1.0  0.40000  0.02981  0.22285  1.0000
  H   H371      1.0  0.47356  0.12384  0.67260  1.0000
  C   C354      1.0  0.29133  0.10333  0.67457  1.0000
  H   H372      1.0  0.30920  0.01977  0.88953  1.0000
  C   C355      1.0  0.33862  0.01509  0.82104  1.0000
  C   C356      1.0  0.47576  0.03948  0.52929  1.0000
  C   C357      1.0  0.26793  0.08830  0.66209  1.0000
  H   H373      1.0  0.33623  0.02746  0.10409  1.0000
  H   H374      1.0  0.37396  0.03831  0.74961  1.0000
  H   H375      1.0  0.43961  0.11868  0.56498  1.0000
  N   N30       1.0  0.49637  0.10731  0.20836  1.0000
  C   C358      1.0  0.49266  0.10242  0.46543  1.0000
  H   H376      1.0  0.31771  0.00626  0.76729  1.0000
  S   S134      1.0  0.49804  0.06997  0.28064  1.0000
  C   C359      1.0  0.25632  0.09863  0.23865  1.0000
  H   H377      1.0  0.35442  0.01935  0.23799  1.0000
  H   H378      1.0  0.45042  0.04115  0.27313  1.0000
  H   H379      1.0  0.44344  0.03182  0.74993  1.0000
  C   C360      1.0  0.26952  0.06605  0.26481  1.0000
  C   C361      1.0  0.45167  0.11521  0.65230  1.0000
  H   H380      1.0  0.31706  0.05356  0.01907  1.0000
  C   C362      1.0  0.32546  0.02299  0.84378  1.0000
  C   C363      1.0  0.50052  0.10415  0.49844  1.0000
  H   H381      1.0  0.45715  0.13924  0.24259  1.0000
  C   C364      1.0  0.41089  0.04702  0.26611  1.0000
  C   C365      1.0  0.49291  0.00547  0.35293  1.0000
  C   C366      1.0  0.49675  0.01955  0.33389  1.0000
  N   N31       1.0  0.41699  0.03131  0.74300  1.0000
  H   H382      1.0  0.43988  0.01181  0.24890  1.0000
  C   C367      1.0  0.46811  0.13037  0.23251  1.0000
  C   C368      1.0  0.31970  0.01382  0.87254  1.0000
  C   C369      1.0  0.41519  0.01796  0.22496  1.0000
  H   H383      1.0  0.48103  0.02584  0.53510  1.0000
  H   H384      1.0  0.29485  0.00999  0.18048  1.0000
  N   N32       1.0  0.48776  0.04681  0.50630  1.0000
  C   C370      1.0  0.47063  0.12876  0.61534  1.0000
  C   C371      1.0  0.49365  0.09900  0.53104  1.0000
  H   H385      1.0  0.34954  0.04134  0.87749  1.0000
  N   N33       1.0  0.27435  0.10302  0.66061  1.0000
  C   C372      1.0  0.35461  0.03390  0.90179  1.0000
  C   C373      1.0  0.38690  0.03145  0.74555  1.0000
  N   N34       1.0  0.42578  0.03537  0.26787  1.0000
  C   C374      1.0  0.32779  0.04791  0.93048  1.0000
  C   C375      1.0  0.42006  0.01448  0.73414  1.0000
  H   H386      1.0  0.43230  0.04752  0.71899  1.0000
  N   N35       1.0  0.31643  0.01109  0.21275  1.0000
  H   H387      1.0  0.43296  0.00777  0.72887  1.0000
  C   C376      1.0  0.31778  0.05312  0.96101  1.0000
  H   H388      1.0  0.42900  0.04990  0.76694  1.0000
  H   H389      1.0  0.26120  0.06144  0.75549  1.0000
  H   H390      1.0  0.35501  0.02018  0.89683  1.0000
  C   C377      1.0  0.38991  0.01421  0.73724  1.0000
  C   C378      1.0  0.48087  0.10244  0.21160  1.0000
  H   H391      1.0  0.28710  0.00597  0.77735  1.0000
  H   H392      1.0  0.41706  0.00655  0.20894  1.0000
  C   C379      1.0  0.49805  0.12345  0.21710  1.0000
  H   H393      1.0  0.50250  0.05198  0.55062  1.0000
  H   H394      1.0  0.31333  0.01069  0.09812  1.0000
  H   H395      1.0  0.37930  0.00758  0.73523  1.0000
  H   H396      1.0  0.49792  0.10671  0.44057  1.0000
  C   C380      1.0  0.50104  0.05251  0.52159  1.0000
  C   C381      1.0  0.49767  0.05383  0.44735  1.0000
  H   H397      1.0  0.49621  0.05426  0.41832  1.0000
  S   S135      1.0  0.50269  0.10323  0.57227  1.0000
  C   C382      1.0  0.40660  0.00566  0.73124  1.0000
  C   C383      1.0  0.45200  0.00402  0.63993  1.0000
  C   C384      1.0  0.47734  0.00357  0.60278  1.0000
  Fe  Fe71      1.0  0.50368  0.09295  0.30788  1.0000
  Fe  Fe72      1.0  0.45759  0.92565  0.30036  1.0000
  S   S136      1.0  0.44703  0.94870  0.33225  1.0000
  S   S137      1.0  0.44005  0.91159  0.27003  1.0000
  Fe  Fe73      1.0  0.46823  0.95976  0.30716  1.0000
  S   S138      1.0  0.46408  0.98606  0.28235  1.0000
  S   S139      1.0  0.47770  0.93755  0.27169  1.0000
  Fe  Fe74      1.0  0.44906  0.93471  0.71225  1.0000
  S   S140      1.0  0.44128  0.94302  0.65582  1.0000
  S   S141      1.0  0.43347  0.92258  0.75388  1.0000
  Fe  Fe75      1.0  0.45101  0.96665  0.66915  1.0000
  S   S142      1.0  0.43677  0.99311  0.65831  1.0000
  S   S143      1.0  0.45690  0.95915  0.72637  1.0000
  Fe  Fe76      1.0  0.30473  0.92643  0.20667  1.0000
  S   S144      1.0  0.30202  0.93137  0.14693  1.0000
  S   S145      1.0  0.28571  0.91912  0.24807  1.0000
  Fe  Fe77      1.0  0.34186  0.93326  0.20736  1.0000
  S   S146      1.0  0.34207  0.93822  0.14765  1.0000
  S   S147      1.0  0.36119  0.94137  0.24481  1.0000
  Fe  Fe78      1.0  0.31570  0.95301  0.15616  1.0000
  S   S148      1.0  0.30887  0.97870  0.12940  1.0000
  Fe  Fe79      1.0  0.32860  0.91629  0.14254  1.0000
  S   S149      1.0  0.33691  0.89702  0.09897  1.0000
  S   S150      1.0  0.31598  0.94960  0.21593  1.0000
  S   S151      1.0  0.33070  0.90955  0.20203  1.0000
  Fe  Fe80      1.0  0.31857  0.95965  0.88298  1.0000
  S   S152      1.0  0.31470  0.96013  0.82387  1.0000
  S   S153      1.0  0.31814  0.98444  0.91015  1.0000
  Fe  Fe81      1.0  0.32116  0.92224  0.88895  1.0000
  S   S154      1.0  0.31746  0.91916  0.82902  1.0000
  S   S155      1.0  0.32544  0.90022  0.92926  1.0000
  Fe  Fe82      1.0  0.33580  0.93735  0.82153  1.0000
  S   S156      1.0  0.35249  0.93932  0.77140  1.0000
  Fe  Fe83      1.0  0.29662  0.94223  0.83423  1.0000
  S   S157      1.0  0.27143  0.95117  0.80521  1.0000
  S   S158      1.0  0.34122  0.93844  0.88065  1.0000
  S   S159      1.0  0.29884  0.94372  0.89453  1.0000
  C   C385      1.0  0.25389  0.92670  0.21586  1.0000
  C   C386      1.0  0.33998  0.98876  0.85512  1.0000
  Fe  Fe84      1.0  0.46866  0.93309  0.64012  1.0000
  C   C387      1.0  0.42893  0.91531  0.38102  1.0000
  C   C388      1.0  0.41276  0.94177  0.40545  1.0000
  H   H398      1.0  0.34549  0.97545  0.85911  1.0000
  H   H399      1.0  0.41837  0.88870  0.31878  1.0000
  H   H400      1.0  0.32967  0.86658  0.14601  1.0000
  H   H401      1.0  0.42537  0.90530  0.57567  1.0000
  H   H402      1.0  0.36271  0.91750  0.03234  1.0000
  H   H403      1.0  0.30714  0.88155  0.10626  1.0000
  C   C389      1.0  0.34136  0.98155  0.74001  1.0000
  H   H404      1.0  0.41391  0.90259  0.70145  1.0000
  C   C390      1.0  0.26483  0.92266  0.77041  1.0000
  C   C391      1.0  0.43739  0.90718  0.58807  1.0000
  C   C392      1.0  0.26078  0.94031  0.77445  1.0000
  C   C393      1.0  0.32570  0.98990  0.13161  1.0000
  C   C394      1.0  0.34016  0.98345  0.15176  1.0000
  H   H405      1.0  0.29648  0.88016  0.23777  1.0000
  C   C395      1.0  0.46175  0.93625  0.47454  1.0000
  C   C396      1.0  0.29938  0.96719  0.73956  1.0000
  H   H406      1.0  0.34112  0.97151  0.16625  1.0000
  H   H407      1.0  0.40916  0.99235  0.72384  1.0000
  C   C397      1.0  0.33290  0.89926  0.05211  1.0000
  C   C398      1.0  0.32273  0.91364  0.03607  1.0000
  C   C399      1.0  0.32037  0.91442  0.99821  1.0000
  C   C400      1.0  0.32815  0.90083  0.97653  1.0000
  C   C401      1.0  0.33801  0.88654  0.99301  1.0000
  C   C402      1.0  0.34043  0.88581  0.03028  1.0000
  H   H408      1.0  0.31668  0.92407  0.05269  1.0000
  H   H409      1.0  0.31234  0.92534  0.98588  1.0000
  H   H410      1.0  0.34389  0.87590  0.97672  1.0000
  H   H411      1.0  0.34824  0.87463  0.04224  1.0000
  C   C403      1.0  0.26312  0.92184  0.24721  1.0000
  H   H412      1.0  0.32515  0.95646  0.72421  1.0000
  S   S160      1.0  0.47589  0.92240  0.69585  1.0000
  H   H413      1.0  0.32924  0.95355  0.95089  1.0000
  C   C404      1.0  0.40179  0.91102  0.33906  1.0000
  H   H414      1.0  0.49774  0.00251  0.37978  1.0000
  H   H415      1.0  0.26800  0.90905  0.13982  1.0000
  C   C405      1.0  0.32297  0.96751  0.99972  1.0000
  C   C406      1.0  0.31742  0.87244  0.15747  1.0000
  C   C407      1.0  0.31797  0.99465  0.22514  1.0000
  H   H416      1.0  0.47870  0.98522  0.35322  1.0000
  Fe  Fe85      1.0  0.46587  0.93773  0.37484  1.0000
  N   N36       1.0  0.41399  0.92688  0.38252  1.0000
  H   H417      1.0  0.26045  0.92984  0.19162  1.0000
  H   H418      1.0  0.46152  0.98457  0.60159  1.0000
  C   C408      1.0  0.41104  0.92848  0.75962  1.0000
  C   C409      1.0  0.40315  0.92277  0.79052  1.0000
  C   C410      1.0  0.38528  0.92642  0.79513  1.0000
  C   C411      1.0  0.37509  0.93551  0.76844  1.0000
  C   C412      1.0  0.38299  0.94123  0.73752  1.0000
  C   C413      1.0  0.40087  0.93789  0.73326  1.0000
  H   H419      1.0  0.41090  0.91541  0.81098  1.0000
  H   H420      1.0  0.37938  0.92183  0.81892  1.0000
  H   H421      1.0  0.37523  0.94818  0.71662  1.0000
  H   H422      1.0  0.40676  0.94229  0.70930  1.0000
  C   C414      1.0  0.31670  0.96764  0.73443  1.0000
  H   H423      1.0  0.44121  0.88725  0.72602  1.0000
  C   C415      1.0  0.36013  0.92929  0.04850  1.0000
  H   H424      1.0  0.34792  0.97522  0.76411  1.0000
  C   C416      1.0  0.30464  0.88108  0.13509  1.0000
  C   C417      1.0  0.45885  0.93992  0.53990  1.0000
  C   C418      1.0  0.45383  0.94506  0.50459  1.0000
  H   H425      1.0  0.45268  0.94690  0.56267  1.0000
  H   H426      1.0  0.44377  0.95599  0.50053  1.0000
  C   C419      1.0  0.41851  0.92068  0.26037  1.0000
  C   C420      1.0  0.40863  0.91129  0.24081  1.0000
  C   C421      1.0  0.39118  0.91761  0.23481  1.0000
  C   C422      1.0  0.38337  0.93331  0.24876  1.0000
  C   C423      1.0  0.39326  0.94272  0.26815  1.0000
  C   C424      1.0  0.41074  0.93654  0.27364  1.0000
  H   H427      1.0  0.41449  0.89900  0.23044  1.0000
  H   H428      1.0  0.38372  0.91019  0.21996  1.0000
  H   H429      1.0  0.38737  0.95488  0.27905  1.0000
  H   H430      1.0  0.41811  0.94392  0.28866  1.0000
  N   N37       1.0  0.43837  0.90103  0.62559  1.0000
  C   C425      1.0  0.42425  0.90461  0.64755  1.0000
  C   C426      1.0  0.45354  0.89264  0.63903  1.0000
  H   H431      1.0  0.39936  0.94815  0.41025  1.0000
  H   H432      1.0  0.44270  0.89248  0.35629  1.0000
  C   C427      1.0  0.32678  0.99662  0.87778  1.0000
  C   C428      1.0  0.33886  0.95565  0.05174  1.0000
  C   C429      1.0  0.31260  0.99534  0.75890  1.0000
  N   N38       1.0  0.32304  0.98169  0.74375  1.0000
  H   H433      1.0  0.48634  0.99731  0.58293  1.0000
  H   H434      1.0  0.31955  0.97848  0.05253  1.0000
  H   H435      1.0  0.46489  0.89021  0.62198  1.0000
  C   C430      1.0  0.41693  0.89911  0.33757  1.0000
  C   C431      1.0  0.40059  0.92502  0.36153  1.0000
  C   C432      1.0  0.34430  0.94191  0.99550  1.0000
  S   S161      1.0  0.47782  0.95746  0.64951  1.0000
  H   H436      1.0  0.49962  0.97143  0.25582  1.0000
  C   C433      1.0  0.31450  0.87202  0.19462  1.0000
  H   H437      1.0  0.26849  0.88964  0.11531  1.0000
  C   C434      1.0  0.46336  0.99632  0.61344  1.0000
  H   H438      1.0  0.41989  0.95108  0.39266  1.0000
  H   H439      1.0  0.37221  0.93403  0.05180  1.0000
  H   H440      1.0  0.48088  0.91518  0.45739  1.0000
  H   H441      1.0  0.36397  0.98811  0.17172  1.0000
  S   S162      1.0  0.45396  0.94271  0.43095  1.0000
  H   H442      1.0  0.43974  0.91706  0.39678  1.0000
  C   C435      1.0  0.35307  0.99297  0.15518  1.0000
  C   C436      1.0  0.28634  0.88850  0.18566  1.0000
  H   H443      1.0  0.35548  0.92549  0.07529  1.0000
  N   N39       1.0  0.34736  0.94251  0.03154  1.0000
  H   H444      1.0  0.41239  0.91182  0.63734  1.0000
  S   S163      1.0  0.48630  0.95078  0.35177  1.0000
  C   C437      1.0  0.34607  0.99543  0.24687  1.0000
  H   H445      1.0  0.34151  0.95643  0.08009  1.0000
  H   H446      1.0  0.26134  0.91420  0.30297  1.0000
  H   H447      1.0  0.31333  0.97714  0.98723  1.0000
  H   H448      1.0  0.28230  0.90439  0.10223  1.0000
  H   H449      1.0  0.44816  0.90038  0.57138  1.0000
  Fe  Fe86      1.0  0.48321  0.94773  0.70606  1.0000
  S   S164      1.0  0.47714  0.91776  0.58976  1.0000
  H   H450      1.0  0.43808  0.92093  0.58702  1.0000
  C   C438      1.0  0.43064  0.90127  0.35853  1.0000
  C   C439      1.0  0.29883  0.88003  0.20885  1.0000
  H   H451      1.0  0.27532  0.98064  0.76002  1.0000
  H   H452      1.0  0.39135  0.90985  0.32157  1.0000
  H   H453      1.0  0.35640  0.99198  0.80991  1.0000
  H   H454      1.0  0.30789  0.98757  0.22085  1.0000
  C   C440      1.0  0.25433  0.91802  0.27860  1.0000
  H   H455      1.0  0.27549  0.91532  0.78472  1.0000
  S   S165      1.0  0.47534  0.91358  0.34447  1.0000
  C   C441      1.0  0.34603  0.99805  0.82703  1.0000
  C   C442      1.0  0.33284  0.98656  0.24229  1.0000
  H   H456      1.0  0.46690  0.88115  0.68601  1.0000
  C   C443      1.0  0.47950  0.91676  0.51561  1.0000
  N   N40       1.0  0.28950  0.88930  0.14938  1.0000
  C   C444      1.0  0.48241  0.99545  0.33761  1.0000
  C   C445      1.0  0.27639  0.89851  0.12548  1.0000
  H   H457      1.0  0.33433  0.97336  0.25119  1.0000
  C   C446      1.0  0.33196  0.95429  0.97921  1.0000
  H   H458      1.0  0.29447  0.95581  0.73347  1.0000
  C   C447      1.0  0.45476  0.88738  0.67520  1.0000
  H   H459      1.0  0.27426  0.89478  0.19708  1.0000
  H   H460      1.0  0.41848  0.93799  0.43216  1.0000
  H   H461      1.0  0.35099  0.93153  0.97929  1.0000
  C   C448      1.0  0.44036  0.89075  0.69759  1.0000
  H   H462      1.0  0.35784  0.98906  0.25909  1.0000
  H   H463      1.0  0.48937  0.90566  0.51975  1.0000
  Fe  Fe87      1.0  0.49470  0.92766  0.31788  1.0000
  C   C449      1.0  0.47474  0.92214  0.48020  1.0000
  H   H464      1.0  0.38898  0.93453  0.36144  1.0000
  C   C450      1.0  0.42499  0.89940  0.68376  1.0000
  C   C451      1.0  0.47159  0.92561  0.54563  1.0000
  C   C452      1.0  0.32647  0.96827  0.03623  1.0000
  C   C453      1.0  0.28863  0.98112  0.75472  1.0000
  H   H465      1.0  0.32446  0.86577  0.21239  1.0000
  H   H466      1.0  0.34682  0.97436  0.71592  1.0000
  C   C454      1.0  0.29525  0.99529  0.76454  1.0000
  C   C455      1.0  0.47630  0.99909  0.30277  1.0000
  H   H467      1.0  0.34407  0.99466  0.73752  1.0000
  H   H468      1.0  0.25751  0.90069  0.74682  1.0000
  H   H469      1.0  0.49800  0.98760  0.67629  1.0000
  C   C456      1.0  0.25459  0.91440  0.74897  1.0000
  Fe  Fe88      1.0  0.65141  0.09349  0.19033  1.0000
  S   S166      1.0  0.65904  0.08369  0.13467  1.0000
  S   S167      1.0  0.66648  0.10607  0.22989  1.0000
  Fe  Fe89      1.0  0.61763  0.07982  0.19203  1.0000
  S   S168      1.0  0.62303  0.06887  0.13708  1.0000
  S   S169      1.0  0.59586  0.07134  0.22411  1.0000
  Fe  Fe90      1.0  0.64976  0.06034  0.15477  1.0000
  S   S170      1.0  0.66194  0.03384  0.13970  1.0000
  Fe  Fe91      1.0  0.63155  0.09314  0.12084  1.0000
  S   S171      1.0  0.62031  0.10262  0.06674  1.0000
  S   S172      1.0  0.64415  0.06928  0.21112  1.0000
  S   S173      1.0  0.62422  0.10503  0.17518  1.0000
  Fe  Fe92      1.0  0.66175  0.08543  0.78698  1.0000
  S   S174      1.0  0.67033  0.07399  0.84046  1.0000
  S   S175      1.0  0.67873  0.08999  0.73937  1.0000
  Fe  Fe93      1.0  0.62388  0.08895  0.80752  1.0000
  S   S176      1.0  0.62938  0.07802  0.86343  1.0000
  S   S177      1.0  0.59685  0.09894  0.78832  1.0000
  Fe  Fe94      1.0  0.64983  0.09372  0.86499  1.0000
  S   S178      1.0  0.65905  0.10442  0.91541  1.0000
  Fe  Fe95      1.0  0.64947  0.05923  0.83559  1.0000
  S   S179      1.0  0.65434  0.03249  0.85646  1.0000
  S   S180      1.0  0.64275  0.10670  0.81145  1.0000
  S   S181      1.0  0.64244  0.06861  0.77958  1.0000
  H   H470      1.0  0.54721  0.03224  0.81813  1.0000
  H   H471      1.0  0.58658  0.07649  0.86402  1.0000
  C   C457      1.0  0.56047  0.03438  0.82082  1.0000
  C   C458      1.0  0.57550  0.07327  0.85140  1.0000
  C   C459      1.0  0.53607  0.01217  0.70010  1.0000
  H   H472      1.0  0.52218  0.10105  0.18885  1.0000
  C   C460      1.0  0.57434  0.05626  0.84613  1.0000
  H   H473      1.0  0.69064  0.12373  0.86925  1.0000
  H   H474      1.0  0.53924  0.09187  0.80926  1.0000
  H   H475      1.0  0.63400  0.12629  0.25358  1.0000
  N   N41       1.0  0.60794  0.00510  0.11704  1.0000
  C   C461      1.0  0.62793  0.01451  0.20231  1.0000
  C   C462      1.0  0.70122  0.08738  0.73989  1.0000
  C   C463      1.0  0.71000  0.09052  0.70799  1.0000
  C   C464      1.0  0.72768  0.09023  0.70795  1.0000
  C   C465      1.0  0.73671  0.08686  0.73993  1.0000
  C   C466      1.0  0.72805  0.08316  0.77160  1.0000
  C   C467      1.0  0.71037  0.08342  0.77162  1.0000
  H   H476      1.0  0.70301  0.09360  0.68333  1.0000
  H   H477      1.0  0.73420  0.09309  0.68340  1.0000
  H   H478      1.0  0.73498  0.08049  0.79642  1.0000
  H   H479      1.0  0.70378  0.08095  0.79631  1.0000
  C   C468      1.0  0.63160  0.10243  0.02512  1.0000
  C   C469      1.0  0.64923  0.10170  0.02326  1.0000
  C   C470      1.0  0.65753  0.10219  0.98948  1.0000
  C   C471      1.0  0.64839  0.10292  0.95734  1.0000
  C   C472      1.0  0.63088  0.10301  0.95923  1.0000
  C   C473      1.0  0.62250  0.10304  0.99296  1.0000
  H   H480      1.0  0.65636  0.10131  0.04781  1.0000
  H   H481      1.0  0.67107  0.10221  0.98828  1.0000
  H   H482      1.0  0.62367  0.10377  0.93471  1.0000
  H   H483      1.0  0.60886  0.10369  0.99416  1.0000
  C   C474      1.0  0.68888  0.10062  0.23618  1.0000
  C   C475      1.0  0.69995  0.09297  0.20909  1.0000
  C   C476      1.0  0.71774  0.09034  0.21374  1.0000
  C   C477      1.0  0.72469  0.09488  0.24584  1.0000
  C   C478      1.0  0.71361  0.10189  0.27353  1.0000
  C   C479      1.0  0.69582  0.10496  0.26849  1.0000
  H   H484      1.0  0.69484  0.08973  0.18397  1.0000
  H   H485      1.0  0.72616  0.08508  0.19199  1.0000
  H   H486      1.0  0.71876  0.10562  0.29820  1.0000
  H   H487      1.0  0.68742  0.11102  0.28952  1.0000
  H   H488      1.0  0.71901  0.11859  0.83798  1.0000
  C   C480      1.0  0.60949  0.02412  0.82031  1.0000
  C   C481      1.0  0.62314  0.03209  0.82811  1.0000
  C   C482      1.0  0.63604  0.02396  0.85084  1.0000
  H   H489      1.0  0.53803  0.06167  0.79957  1.0000
  Fe  Fe96      1.0  0.52078  0.06765  0.68522  1.0000
  H   H490      1.0  0.60014  0.02986  0.80088  1.0000
  H   H491      1.0  0.62408  0.04411  0.81520  1.0000
  H   H492      1.0  0.61251  0.12364  0.24831  1.0000
  H   H493      1.0  0.56382  0.09940  0.84113  1.0000
  C   C483      1.0  0.54889  0.08194  0.82069  1.0000
  C   C484      1.0  0.52275  0.00569  0.68499  1.0000
  C   C485      1.0  0.71214  0.12184  0.81317  1.0000
  C   C486      1.0  0.65066  0.01967  0.16163  1.0000
  C   C487      1.0  0.63753  0.02569  0.18619  1.0000
  C   C488      1.0  0.75363  0.03037  0.24773  1.0000
  S   S182      1.0  0.54531  0.05815  0.71651  1.0000
  C   C489      1.0  0.63490  0.00910  0.07117  1.0000
  H   H494      1.0  0.63454  0.03898  0.19260  1.0000
  C   C490      1.0  0.63149  0.02047  0.73393  1.0000
  C   C491      1.0  0.56060  0.06994  0.73125  1.0000
  C   C492      1.0  0.55707  0.08770  0.73275  1.0000
  C   C493      1.0  0.56867  0.09642  0.74896  1.0000
  C   C494      1.0  0.58399  0.08754  0.76352  1.0000
  C   C495      1.0  0.58783  0.06980  0.76080  1.0000
  C   C496      1.0  0.57615  0.06107  0.74486  1.0000
  H   H495      1.0  0.54516  0.09470  0.72247  1.0000
  H   H496      1.0  0.56559  0.11013  0.75095  1.0000
  H   H497      1.0  0.59952  0.06280  0.77197  1.0000
  H   H498      1.0  0.57905  0.04734  0.74370  1.0000
  C   C497      1.0  0.54287  0.09767  0.26560  1.0000
  C   C498      1.0  0.55347  0.10725  0.24693  1.0000
  C   C499      1.0  0.56966  0.09944  0.23355  1.0000
  C   C500      1.0  0.57541  0.08195  0.23891  1.0000
  C   C501      1.0  0.56475  0.07240  0.25741  1.0000
  C   C502      1.0  0.54856  0.08017  0.27055  1.0000
  H   H499      1.0  0.57768  0.10695  0.21924  1.0000
  H   H500      1.0  0.56908  0.05888  0.26179  1.0000
  H   H501      1.0  0.54057  0.07263  0.28489  1.0000
  H   H502      1.0  0.53353  0.01111  0.29254  1.0000
  S   S183      1.0  0.52056  0.06290  0.62581  1.0000
  H   H503      1.0  0.56644  0.02578  0.84283  1.0000
  S   S184      1.0  0.74722  0.09267  0.24869  1.0000
  H   H504      1.0  0.74602  0.01355  0.45560  1.0000
  C   C503      1.0  0.64285  0.10036  0.29947  1.0000
  H   H505      1.0  0.59381  0.01050  0.16606  1.0000
  S   S185      1.0  0.50993  0.03203  0.35275  1.0000
  C   C504      1.0  0.64767  0.08382  0.31342  1.0000
  H   H506      1.0  0.73500  0.12376  0.78224  1.0000
  C   C505      1.0  0.62805  0.00499  0.74719  1.0000
  H   H507      1.0  0.60387  0.09834  0.26963  1.0000
  H   H508      1.0  0.53479  0.02573  0.70445  1.0000
  N   N42       1.0  0.62746  0.10532  0.28323  1.0000
  C   C506      1.0  0.60862  0.00823  0.83588  1.0000
  H   H509      1.0  0.56758  0.03065  0.79534  1.0000
  H   H510      1.0  0.51185  0.10973  0.49872  1.0000
  S   S186      1.0  0.50674  0.08068  0.36308  1.0000
  C   C507      1.0  0.54828  0.06480  0.81536  1.0000
  C   C508      1.0  0.62288  0.12263  0.26819  1.0000
  S   S187      1.0  0.52255  0.10791  0.28192  1.0000
  C   C509      1.0  0.68641  0.12572  0.78054  1.0000
  C   C510      1.0  0.63473  0.00847  0.86763  1.0000
  N   N43       1.0  0.56083  0.05222  0.82834  1.0000
  H   H511      1.0  0.68839  0.13080  0.72344  1.0000
  H   H512      1.0  0.61873  0.13177  0.29012  1.0000
  H   H513      1.0  0.62653  0.06581  0.04149  1.0000
  H   H514      1.0  0.64920  0.03777  0.73389  1.0000
  H   H515      1.0  0.60700  0.03101  0.13109  1.0000
  H   H516      1.0  0.71965  0.13012  0.72474  1.0000
  H   H517      1.0  0.64578  0.01048  0.05421  1.0000
  H   H518      1.0  0.68326  0.04985  0.98328  1.0000
  H   H519      1.0  0.66114  0.06824  0.92572  1.0000
  H   H520      1.0  0.66838  0.04543  0.92718  1.0000
  N   N44       1.0  0.69492  0.12245  0.81228  1.0000
  H   H521      1.0  0.64624  0.05391  0.92336  1.0000
  H   H522      1.0  0.68077  0.05086  0.05002  1.0000
  C   C511      1.0  0.61618  0.09441  0.28207  1.0000
  H   H523      1.0  0.65176  0.10905  0.30059  1.0000
  C   C512      1.0  0.65813  0.05600  0.93608  1.0000
  N   N45       1.0  0.65645  0.05634  0.97545  1.0000
  C   C513      1.0  0.67075  0.05292  0.99600  1.0000
  C   C514      1.0  0.64072  0.06092  0.99139  1.0000
  C   C515      1.0  0.66946  0.05350  0.03363  1.0000
  H   H524      1.0  0.62946  0.06452  0.97508  1.0000
  H   H525      1.0  0.61782  0.01930  0.22136  1.0000
  C   C516      1.0  0.63896  0.06160  0.02894  1.0000
  C   C517      1.0  0.65344  0.05785  0.05009  1.0000
  H   H526      1.0  0.63106  0.03471  0.09090  1.0000
  H   H527      1.0  0.54919  0.12079  0.24293  1.0000
  H   H528      1.0  0.65232  0.05868  0.07917  1.0000
  H   H529      1.0  0.74421  0.05748  0.24642  1.0000
  H   H530      1.0  0.67195  0.12368  0.84384  1.0000
  C   C518      1.0  0.72124  0.12488  0.78184  1.0000
  H   H531      1.0  0.64003  0.05954  0.32187  1.0000
  H   H532      1.0  0.61163  0.06912  0.29435  1.0000
  H   H533      1.0  0.67294  0.12530  0.77928  1.0000
  C   C519      1.0  0.62048  0.07784  0.29619  1.0000
  C   C520      1.0  0.56266  0.08616  0.83865  1.0000
  C   C521      1.0  0.64634  0.02581  0.74415  1.0000
  C   C522      1.0  0.63640  0.07249  0.31162  1.0000
  C   C523      1.0  0.71262  0.12843  0.74948  1.0000
  H   H534      1.0  0.66018  0.07980  0.32493  1.0000
  C   C524      1.0  0.61304  0.02049  0.11448  1.0000
  C   C525      1.0  0.68582  0.11835  0.84504  1.0000
  C   C526      1.0  0.69509  0.12888  0.74876  1.0000
  H   H535      1.0  0.58448  0.04633  0.85572  1.0000
  H   H536      1.0  0.68745  0.10434  0.84873  1.0000
  H   H537      1.0  0.51980  0.06562  0.44575  1.0000
  H   H538      1.0  0.52291  0.06443  0.51248  1.0000
  H   H539      1.0  0.51112  0.01436  0.67782  1.0000
  H   H540      1.0  0.66878  0.02002  0.77638  1.0000
  H   H541      1.0  0.58138  0.00755  0.12705  1.0000
  C   C527      1.0  0.51274  0.05940  0.50011  1.0000
  C   C528      1.0  0.62659  0.02272  0.09156  1.0000
  C   C529      1.0  0.51098  0.06009  0.46276  1.0000
  C   C530      1.0  0.65743  0.01566  0.76798  1.0000
  H   H542      1.0  0.74526  0.00874  0.63214  1.0000
  H   H543      1.0  0.62267  0.02833  0.71589  1.0000
  H   H544      1.0  0.74144  0.02722  0.25575  1.0000
  H   H545      1.0  0.51577  0.08620  0.22061  1.0000
  C   C531      1.0  0.51139  0.09482  0.19744  1.0000
  H   H546      1.0  0.50839  0.08715  0.17469  1.0000
  H   H547      1.0  0.56143  0.00592  0.72128  1.0000
  H   H548      1.0  0.51046  0.12712  0.21598  1.0000
  C   C532      1.0  0.53644  0.99220  0.33518  1.0000
  H   H549      1.0  0.64646  0.97830  0.16044  1.0000
  S   S188      1.0  0.52384  0.92018  0.31541  1.0000
  H   H550      1.0  0.60076  0.90080  0.87241  1.0000
  H   H551      1.0  0.71329  0.92817  0.18916  1.0000
  H   H552      1.0  0.56418  0.97487  0.71018  1.0000
  C   C533      1.0  0.62172  0.89361  0.26557  1.0000
  C   C534      1.0  0.53162  0.99851  0.30088  1.0000
  H   H553      1.0  0.50866  0.95205  0.27858  1.0000
  C   C535      1.0  0.62054  0.88856  0.23017  1.0000
  C   C536      1.0  0.66586  0.98994  0.80524  1.0000
  H   H554      1.0  0.61654  0.00066  0.73973  1.0000
  Fe  Fe97      1.0  0.60280  0.92841  0.18008  1.0000
  S   S189      1.0  0.60372  0.95225  0.14789  1.0000
  S   S190      1.0  0.57703  0.92001  0.18512  1.0000
  Fe  Fe98      1.0  0.64146  0.92184  0.19272  1.0000
  S   S191      1.0  0.64514  0.94492  0.16085  1.0000
  S   S192      1.0  0.66181  0.90625  0.22860  1.0000
  Fe  Fe99      1.0  0.62156  0.95778  0.18956  1.0000
  S   S193      1.0  0.61835  0.98385  0.21278  1.0000
  Fe  Fe100     1.0  0.62709  0.93785  0.12024  1.0000
  S   S194      1.0  0.63068  0.94793  0.06305  1.0000
  S   S195      1.0  0.61873  0.93529  0.22445  1.0000
  S   S196      1.0  0.62527  0.91315  0.14975  1.0000
  Fe  Fe101     1.0  0.60211  0.93738  0.78079  1.0000
  S   S197      1.0  0.59369  0.94780  0.83507  1.0000
  S   S198      1.0  0.58445  0.92637  0.74437  1.0000
  Fe  Fe102     1.0  0.63804  0.94694  0.78554  1.0000
  S   S199      1.0  0.63190  0.95810  0.84055  1.0000
  S   S200      1.0  0.66095  0.95434  0.75485  1.0000
  Fe  Fe103     1.0  0.61987  0.93542  0.85341  1.0000
  S   S201      1.0  0.62187  0.91985  0.90591  1.0000
  Fe  Fe104     1.0  0.60629  0.96948  0.81806  1.0000
  H   H555      1.0  0.66399  0.99776  0.13348  1.0000
  S   S202      1.0  0.62767  0.92310  0.79970  1.0000
  S   S203      1.0  0.61295  0.96002  0.76252  1.0000
  C   C537      1.0  0.68205  0.94426  0.74225  1.0000
  C   C538      1.0  0.69237  0.95375  0.72239  1.0000
  C   C539      1.0  0.70918  0.94646  0.71174  1.0000
  C   C540      1.0  0.71593  0.92952  0.72087  1.0000
  C   C541      1.0  0.70563  0.92003  0.74083  1.0000
  C   C542      1.0  0.68881  0.92733  0.75147  1.0000
  H   H556      1.0  0.68728  0.96683  0.71495  1.0000
  H   H557      1.0  0.71687  0.95393  0.69634  1.0000
  H   H558      1.0  0.71066  0.90692  0.74805  1.0000
  H   H559      1.0  0.68108  0.91984  0.76669  1.0000
  C   C543      1.0  0.62739  0.93996  0.01989  1.0000
  C   C544      1.0  0.62426  0.92352  0.01510  1.0000
  C   C545      1.0  0.62252  0.91760  0.98007  1.0000
  C   C546      1.0  0.62368  0.92807  0.94951  1.0000
  C   C547      1.0  0.62643  0.94463  0.95437  1.0000
  C   C548      1.0  0.62838  0.95048  0.98933  1.0000
  H   H560      1.0  0.62354  0.91527  0.03830  1.0000
  H   H561      1.0  0.62046  0.90475  0.97664  1.0000
  H   H562      1.0  0.62739  0.95282  0.93116  1.0000
  H   H563      1.0  0.63084  0.96319  0.99265  1.0000
  C   C549      1.0  0.68308  0.90980  0.23246  1.0000
  C   C550      1.0  0.69051  0.91921  0.20656  1.0000
  C   C551      1.0  0.70758  0.92124  0.20992  1.0000
  C   C552      1.0  0.71735  0.91429  0.23962  1.0000
  C   C553      1.0  0.70979  0.90526  0.26607  1.0000
  C   C554      1.0  0.69284  0.90285  0.26223  1.0000
  H   H564      1.0  0.68326  0.92456  0.18340  1.0000
  H   H565      1.0  0.71713  0.89973  0.28897  1.0000
  H   H566      1.0  0.68727  0.89551  0.28241  1.0000
  C   C555      1.0  0.52659  0.94656  0.74041  1.0000
  C   C556      1.0  0.53425  0.93312  0.71861  1.0000
  C   C557      1.0  0.55200  0.92716  0.71990  1.0000
  C   C558      1.0  0.56225  0.93457  0.74284  1.0000
  C   C559      1.0  0.55457  0.94800  0.76462  1.0000
  C   C560      1.0  0.53684  0.95392  0.76343  1.0000
  H   H567      1.0  0.52653  0.92738  0.70066  1.0000
  H   H568      1.0  0.55783  0.91675  0.70296  1.0000
  H   H569      1.0  0.56228  0.95381  0.78242  1.0000
  H   H570      1.0  0.53104  0.96438  0.78025  1.0000
  H   H571      1.0  0.57680  0.86676  0.23145  1.0000
  C   C561      1.0  0.62939  0.99355  0.07340  1.0000
  N   N46       1.0  0.59146  0.88569  0.24137  1.0000
  H   H572      1.0  0.57332  0.88483  0.20044  1.0000
  C   C562      1.0  0.59258  0.89040  0.27633  1.0000
  C   C563      1.0  0.57577  0.88076  0.22900  1.0000
  C   C564      1.0  0.53764  0.92264  0.27824  1.0000
  C   C565      1.0  0.55414  0.92560  0.28474  1.0000
  C   C566      1.0  0.56601  0.92606  0.25620  1.0000
  C   C567      1.0  0.56168  0.92299  0.22093  1.0000
  C   C568      1.0  0.54508  0.92038  0.21440  1.0000
  C   C569      1.0  0.53306  0.92043  0.24276  1.0000
  H   H573      1.0  0.55783  0.92728  0.31209  1.0000
  H   H574      1.0  0.57872  0.92808  0.26168  1.0000
  H   H575      1.0  0.54161  0.91789  0.18728  1.0000
  H   H576      1.0  0.52050  0.91796  0.23732  1.0000
  C   C570      1.0  0.58533  0.89975  0.82624  1.0000
  C   C571      1.0  0.52534  0.96690  0.32283  1.0000
  H   H577      1.0  0.61978  0.98885  0.87384  1.0000
  H   H578      1.0  0.54213  0.99989  0.35341  1.0000
  H   H579      1.0  0.72341  0.95096  0.26887  1.0000
  S   S204      1.0  0.73707  0.91955  0.70829  1.0000
  H   H580      1.0  0.63672  0.98315  0.78087  1.0000
  H   H581      1.0  0.55060  0.93033  0.87821  1.0000
  N   N47       1.0  0.65384  0.00060  0.78114  1.0000
  C   C572      1.0  0.57927  0.92142  0.91523  1.0000
  H   H582      1.0  0.50950  0.98611  0.63364  1.0000
  C   C573      1.0  0.60765  0.89459  0.28886  1.0000
  H   H583      1.0  0.51927  0.99409  0.25212  1.0000
  C   C574      1.0  0.56943  0.90525  0.81086  1.0000
  H   H584      1.0  0.53690  0.97127  0.37296  1.0000
  N   N48       1.0  0.57576  0.91555  0.87949  1.0000
  N   N49       1.0  0.52035  0.97334  0.28949  1.0000
  H   H585      1.0  0.63577  0.98279  0.05781  1.0000
  C   C575      1.0  0.60520  0.88470  0.21836  1.0000
  N   N50       1.0  0.69633  0.95421  0.27182  1.0000
  H   H586      1.0  0.67622  0.98215  0.78910  1.0000
  H   H587      1.0  0.56447  0.88709  0.24484  1.0000
  C   C576      1.0  0.66445  0.96201  0.24048  1.0000
  H   H588      1.0  0.61161  0.97962  0.09795  1.0000
  C   C577      1.0  0.55262  0.98369  0.70303  1.0000
  C   C578      1.0  0.51030  0.98232  0.66259  1.0000
  C   C579      1.0  0.63111  0.99734  0.19324  1.0000
  H   H589      1.0  0.65815  0.94160  0.27373  1.0000
  C   C580      1.0  0.52345  0.98889  0.27832  1.0000
  H   H590      1.0  0.65202  0.96499  0.22821  1.0000
  H   H591      1.0  0.71558  0.93752  0.30130  1.0000
  H   H592      1.0  0.56756  0.92398  0.93237  1.0000
  H   H593      1.0  0.58470  0.93321  0.91243  1.0000
  C   C581      1.0  0.56031  0.92146  0.86408  1.0000
  H   H594      1.0  0.54470  0.92114  0.81719  1.0000
  S   S205      1.0  0.73903  0.91679  0.24153  1.0000
  C   C582      1.0  0.58829  0.90502  0.86082  1.0000
  H   H595      1.0  0.71365  0.95990  0.31037  1.0000
  H   H596      1.0  0.59542  0.89180  0.81105  1.0000
  C   C583      1.0  0.53336  0.97626  0.34625  1.0000
  C   C584      1.0  0.64408  0.99137  0.16826  1.0000
  H   H597      1.0  0.58870  0.91170  0.92964  1.0000
  H   H598      1.0  0.63146  0.88781  0.21196  1.0000
  S   S206      1.0  0.50451  0.95525  0.73886  1.0000
  H   H599      1.0  0.58167  0.89123  0.29455  1.0000
  H   H600      1.0  0.56711  0.90151  0.78374  1.0000
  H   H601      1.0  0.67459  0.98127  0.21031  1.0000
  C   C585      1.0  0.68388  0.94537  0.28217  1.0000
  H   H602      1.0  0.52296  0.95456  0.33176  1.0000
  H   H603      1.0  0.60425  0.88116  0.19053  1.0000
  H   H604      1.0  0.67134  0.99789  0.82436  1.0000
  C   C586      1.0  0.61573  0.99180  0.09641  1.0000
  H   H605      1.0  0.70294  0.97408  0.23843  1.0000
  C   C587      1.0  0.62089  0.00072  0.86048  1.0000
  H   H606      1.0  0.60840  0.89862  0.31639  1.0000
  N   N51       1.0  0.52434  0.98864  0.67916  1.0000
  C   C588      1.0  0.69311  0.96700  0.24645  1.0000
  C   C589      1.0  0.53912  0.97770  0.68746  1.0000
  C   C590      1.0  0.71300  0.95053  0.28903  1.0000
  C   C591      1.0  0.67713  0.97111  0.23042  1.0000
  C   C592      1.0  0.66782  0.94901  0.26638  1.0000
  H   H607      1.0  0.68641  0.93518  0.30219  1.0000
  H   H608      1.0  0.65948  0.98109  0.82165  1.0000
  C   C593      1.0  0.65403  0.00244  0.15290  1.0000
  C   C594      1.0  0.55686  0.91629  0.82967  1.0000
  S   S207      1.0  0.59338  0.99691  0.82163  1.0000
  H   H609      1.0  0.54050  0.96420  0.68239  1.0000
  C   C595      1.0  0.51181  0.96360  0.26511  1.0000
  H   H610      1.0  0.63352  0.89686  0.27474  1.0000
  H   H611      1.0  0.64456  0.00230  0.88568  1.0000
  H   H612      1.0  0.59440  0.98969  0.14989  1.0000
  H   H613      1.0  0.51194  0.96823  0.66494  1.0000
  H   H614      1.0  0.74620  0.88138  0.71547  1.0000
  C   C596      1.0  0.63948  0.99514  0.77072  1.0000
  S   S208      1.0  0.75080  0.93200  0.33859  1.0000
  H   H615      1.0  0.52022  0.95942  0.24154  1.0000
  C   C597      1.0  0.55105  0.00106  0.70936  1.0000
  C   C598      1.0  0.59360  0.00316  0.14100  1.0000
  H   H616      1.0  0.79460  0.04032  0.43342  1.0000
  S   S209      1.0  0.91240  0.18105  0.30447  1.0000
  Fe  Fe105     1.0  0.88365  0.20593  0.37641  1.0000
  S   S210      1.0  0.89749  0.17929  0.38678  1.0000
  H   H617      1.0  0.84043  0.20991  0.52592  1.0000
  Fe  Fe106     1.0  0.91967  0.18848  0.35906  1.0000
  S   S211      1.0  0.94635  0.18401  0.38186  1.0000
  Fe  Fe107     1.0  0.88873  0.17426  0.33132  1.0000
  S   S212      1.0  0.87926  0.14992  0.31545  1.0000
  H   H618      1.0  0.78479  0.04263  0.38992  1.0000
  S   S213      1.0  0.87373  0.20066  0.32232  1.0000
  S   S214      1.0  0.79266  0.08438  0.28389  1.0000
  C   C599      1.0  0.76775  0.02334  0.43453  1.0000
  S   S215      1.0  0.79997  0.07511  0.36855  1.0000
  C   C600      1.0  0.91641  0.24432  0.52788  1.0000
  Fe  Fe108     1.0  0.79615  0.09900  0.33393  1.0000
  S   S216      1.0  0.80998  0.12123  0.34569  1.0000
  Fe  Fe109     1.0  0.79375  0.06114  0.32014  1.0000
  S   S217      1.0  0.80693  0.03384  0.30876  1.0000
  Fe  Fe110     1.0  0.89405  0.21772  0.61337  1.0000
  S   S218      1.0  0.90755  0.19216  0.59628  1.0000
  H   H619      1.0  0.75540  0.01713  0.76474  1.0000
  H   H620      1.0  0.80555  0.10459  0.41608  1.0000
  S   S219      1.0  0.91946  0.18525  0.67951  1.0000
  Fe  Fe111     1.0  0.92908  0.19725  0.62990  1.0000
  S   S220      1.0  0.95576  0.19430  0.60610  1.0000
  Fe  Fe112     1.0  0.89636  0.18244  0.64712  1.0000
  S   S221      1.0  0.88557  0.15833  0.63534  1.0000
  N   N52       1.0  0.85981  0.19044  0.54739  1.0000
  S   S222      1.0  0.88164  0.20820  0.66258  1.0000
  S   S223      1.0  0.80346  0.07867  0.69910  1.0000
  S   S224      1.0  0.77120  0.11671  0.56622  1.0000
  S   S225      1.0  0.80961  0.09043  0.61582  1.0000
  C   C601      1.0  0.86247  0.24148  0.51229  1.0000
  Fe  Fe113     1.0  0.80089  0.06814  0.64421  1.0000
  S   S226      1.0  0.80894  0.04108  0.62390  1.0000
  Fe  Fe114     1.0  0.80959  0.10222  0.67041  1.0000
  S   S227      1.0  0.82790  0.11856  0.69275  1.0000
  H   H621      1.0  0.79463  0.01184  0.23030  1.0000
  H   H622      1.0  0.95106  0.23820  0.29068  1.0000
  H   H623      1.0  0.76677  0.01141  0.62061  1.0000
  H   H624      1.0  0.90966  0.14596  0.70184  1.0000
  C   C602      1.0  0.80094  0.02246  0.68380  1.0000
  C   C603      1.0  0.80430  0.02271  0.64669  1.0000
  C   C604      1.0  0.94482  0.20236  0.51083  1.0000
  C   C605      1.0  0.75671  0.01210  0.70773  1.0000
  C   C606      1.0  0.87004  0.22487  0.45854  1.0000
  H   H625      1.0  0.92825  0.21082  0.42744  1.0000
  H   H626      1.0  0.91387  0.24157  0.55677  1.0000
  C   C607      1.0  0.75518  0.04734  0.24268  1.0000
  C   C608      1.0  0.97225  0.19888  0.63322  1.0000
  C   C609      1.0  0.97138  0.19736  0.67075  1.0000
  C   C610      1.0  0.98494  0.20043  0.69170  1.0000
  C   C611      1.0  0.97551  0.24434  0.73562  1.0000
  N   N53       1.0  0.78337  0.01958  0.41778  1.0000
  C   C612      1.0  0.98667  0.20374  0.61688  1.0000
  H   H627      1.0  0.96045  0.19342  0.68360  1.0000
  H   H628      1.0  0.84880  0.24572  0.46269  1.0000
  H   H629      1.0  0.91662  0.24580  0.20283  1.0000
  H   H630      1.0  0.98750  0.20484  0.58784  1.0000
  C   C613      1.0  0.86711  0.14974  0.64777  1.0000
  C   C614      1.0  0.85695  0.15519  0.67796  1.0000
  C   C615      1.0  0.84422  0.14614  0.69003  1.0000
  C   C616      1.0  0.84113  0.13179  0.67167  1.0000
  C   C617      1.0  0.85062  0.12699  0.64022  1.0000
  C   C618      1.0  0.86359  0.13580  0.62860  1.0000
  H   H631      1.0  0.85937  0.16589  0.69303  1.0000
  H   H632      1.0  0.83706  0.14996  0.71448  1.0000
  H   H633      1.0  0.84863  0.11587  0.62602  1.0000
  H   H634      1.0  0.87136  0.13138  0.60527  1.0000
  C   C619      1.0  0.79628  0.01639  0.31570  1.0000
  C   C620      1.0  0.76354  0.10218  0.46499  1.0000
  C   C621      1.0  0.76475  0.11205  0.49534  1.0000
  C   C622      1.0  0.80563  0.11041  0.50544  1.0000
  H   H635      1.0  0.93699  0.24024  0.70420  1.0000
  C   C623      1.0  0.77923  0.01883  0.32703  1.0000
  C   C624      1.0  0.76829  0.10425  0.52924  1.0000
  C   C625      1.0  0.79960  0.13748  0.47385  1.0000
  C   C626      1.0  0.76523  0.08453  0.46878  1.0000
  H   H636      1.0  0.77229  0.03141  0.33218  1.0000
  H   H637      1.0  0.85781  0.11698  0.76092  1.0000
  H   H638      1.0  0.86423  0.09645  0.71135  1.0000
  H   H639      1.0  0.86790  0.17541  0.44920  1.0000
  C   C627      1.0  0.80106  0.12891  0.44127  1.0000
  C   C628      1.0  0.75795  0.04628  0.69806  1.0000
  H   H640      1.0  0.80181  0.07886  0.45278  1.0000
  C   C629      1.0  0.96324  0.19011  0.35611  1.0000
  C   C630      1.0  0.96144  0.19446  0.31951  1.0000
  C   C631      1.0  0.97530  0.19858  0.29939  1.0000
  C   C632      1.0  0.99096  0.19876  0.31578  1.0000
  C   C633      1.0  0.99268  0.19478  0.35254  1.0000
  C   C634      1.0  0.97891  0.19032  0.37251  1.0000
  H   H641      1.0  0.94947  0.19432  0.30652  1.0000
  H   H642      1.0  0.97385  0.20159  0.27094  1.0000
  C   C635      1.0  0.93053  0.21246  0.45577  1.0000
  H   H643      1.0  0.98042  0.18700  0.40081  1.0000
  S   S228      1.0  0.86452  0.22046  0.41470  1.0000
  Fe  Fe115     1.0  0.77575  0.09065  0.69320  1.0000
  C   C636      1.0  0.78354  0.02188  0.23322  1.0000
  H   H644      1.0  0.76319  0.12574  0.49249  1.0000
  H   H645      1.0  0.89686  0.21024  0.52738  1.0000
  H   H646      1.0  0.90345  0.12252  0.67224  1.0000
  H   H647      1.0  0.88739  0.09909  0.66705  1.0000
  Fe  Fe116     1.0  0.90548  0.21206  0.69050  1.0000
  H   H648      1.0  0.88040  0.24883  0.29054  1.0000
  C   C637      1.0  0.89934  0.14657  0.72260  1.0000
  C   C638      1.0  0.85989  0.14220  0.32445  1.0000
  C   C639      1.0  0.85805  0.12639  0.31050  1.0000
  C   C640      1.0  0.84296  0.11978  0.31647  1.0000
  C   C641      1.0  0.82938  0.12891  0.33656  1.0000
  C   C642      1.0  0.83119  0.14477  0.35035  1.0000
  C   C643      1.0  0.84627  0.15139  0.34432  1.0000
  H   H649      1.0  0.86844  0.11910  0.29509  1.0000
  H   H650      1.0  0.84187  0.10759  0.30566  1.0000
  H   H651      1.0  0.82081  0.15203  0.36580  1.0000
  H   H652      1.0  0.84736  0.16358  0.35513  1.0000
  H   H653      1.0  0.88478  0.14769  0.23218  1.0000
  S   S229      1.0  0.90823  0.22380  0.74480  1.0000
  N   N54       1.0  0.92490  0.22889  0.50958  1.0000
  H   H654      1.0  0.86519  0.20642  0.58855  1.0000
  H   H655      1.0  0.98245  0.23397  0.29446  1.0000
  H   H656      1.0  0.80111  0.03372  0.69931  1.0000
  H   H657      1.0  0.82352  0.07868  0.46629  1.0000
  H   H658      1.0  0.86075  0.18616  0.60438  1.0000
  H   H659      1.0  0.90380  0.24947  0.51591  1.0000
  C   C644      1.0  0.79249  0.03344  0.40872  1.0000
  C   C645      1.0  0.80430  0.00786  0.62708  1.0000
  C   C646      1.0  0.76848  0.07675  0.50274  1.0000
  S   S230      1.0  0.87895  0.23672  0.57562  1.0000
  C   C647      1.0  0.75844  0.01049  0.44252  1.0000
  H   H660      1.0  0.95736  0.23222  0.68360  1.0000
  C   C648      1.0  0.75671  0.03970  0.73282  1.0000
  S   S231      1.0  0.75855  0.08807  0.74212  1.0000
  N   N55       1.0  0.87575  0.17466  0.23374  1.0000
  C   C649      1.0  0.86000  0.17258  0.24615  1.0000
  C   C650      1.0  0.87896  0.19060  0.22638  1.0000
  C   C651      1.0  0.84695  0.18667  0.25124  1.0000
  C   C652      1.0  0.86615  0.20497  0.23075  1.0000
  C   C653      1.0  0.85006  0.20297  0.24334  1.0000
  C   C654      1.0  0.88952  0.15988  0.22941  1.0000
  H   H661      1.0  0.85754  0.15999  0.25303  1.0000
  H   H662      1.0  0.89160  0.19233  0.21768  1.0000
  H   H663      1.0  0.83463  0.18494  0.26190  1.0000
  H   H664      1.0  0.86889  0.21760  0.22546  1.0000
  H   H665      1.0  0.84016  0.21405  0.24775  1.0000
  H   H666      1.0  0.91592  0.24387  0.80353  1.0000
  H   H667      1.0  0.89581  0.16026  0.20256  1.0000
  H   H668      1.0  0.89909  0.15978  0.25074  1.0000
  H   H669      1.0  0.77315  0.08043  0.55875  1.0000
  H   H670      1.0  0.91321  0.23637  0.45908  1.0000
  H   H671      1.0  0.80038  0.13463  0.53182  1.0000
  H   H672      1.0  0.89184  0.20454  0.46301  1.0000
  C   C655      1.0  0.87197  0.10613  0.71450  1.0000
  H   H673      1.0  0.84497  0.19998  0.46322  1.0000
  C   C656      1.0  0.87265  0.17702  0.53989  1.0000
  C   C657      1.0  0.88490  0.10767  0.68956  1.0000
  C   C658      1.0  0.86835  0.11770  0.74241  1.0000
  C   C659      1.0  0.87567  0.17130  0.50456  1.0000
  C   C660      1.0  0.89397  0.12094  0.69272  1.0000
  H   H674      1.0  0.88597  0.16076  0.49863  1.0000
  C   C661      1.0  0.85252  0.19317  0.48479  1.0000
  C   C662      1.0  0.80990  0.08346  0.47299  1.0000
  C   C663      1.0  0.86550  0.17943  0.47688  1.0000
  H   H675      1.0  0.87447  0.14003  0.76601  1.0000
  S   S232      1.0  0.78193  0.11485  0.66888  1.0000
  N   N56       1.0  0.89031  0.13226  0.72019  1.0000
  C   C664      1.0  0.85001  0.19872  0.52031  1.0000
  C   C665      1.0  0.87772  0.13076  0.74491  1.0000
  C   C666      1.0  0.88373  0.21490  0.47673  1.0000
  S   S233      1.0  0.90631  0.21565  0.35379  1.0000
  C   C667      1.0  0.97559  0.24536  0.28128  1.0000
  H   H676      1.0  0.89032  0.15876  0.71798  1.0000
  Fe  Fe117     1.0  0.89790  0.20800  0.30043  1.0000
  C   C668      1.0  0.88646  0.21802  0.51321  1.0000
  C   C669      1.0  0.85724  0.19668  0.58429  1.0000
  H   H677      1.0  0.84370  0.20250  0.58965  1.0000
  H   H678      1.0  0.88072  0.17075  0.56124  1.0000
  Fe  Fe118     1.0  0.77174  0.08081  0.37749  1.0000
  S   S234      1.0  0.91633  0.22385  0.64244  1.0000
  C   C670      1.0  0.80458  0.11112  0.44155  1.0000
  C   C671      1.0  0.94193  0.20012  0.47445  1.0000
  H   H679      1.0  0.79930  0.13594  0.41585  1.0000
  C   C672      1.0  0.75610  0.02247  0.73780  1.0000
  C   C673      1.0  0.87584  0.23145  0.53087  1.0000
  Fe  Fe119     1.0  0.78180  0.10194  0.61572  1.0000
  S   S235      1.0  0.90226  0.22258  0.24885  1.0000
  H   H680      1.0  0.80673  0.07795  0.49949  1.0000
  H   H681      1.0  0.98329  0.23244  0.72701  1.0000
  S   S236      1.0  0.77302  0.07902  0.63966  1.0000
  H   H682      1.0  0.79646  0.15126  0.47405  1.0000
  C   C674      1.0  0.92213  0.22690  0.47380  1.0000
  C   C675      1.0  0.77030  0.08656  0.53279  1.0000
  H   H683      1.0  0.95142  0.22368  0.72661  1.0000
  H   H684      1.0  0.76980  0.06309  0.50578  1.0000
  H   H685      1.0  0.80695  0.10334  0.53082  1.0000
  H   H686      1.0  0.76093  0.10826  0.43887  1.0000
  H   H687      1.0  0.75848  0.05963  0.69411  1.0000
  N   N57       1.0  0.80650  0.10211  0.47342  1.0000
  C   C676      1.0  0.85943  0.23805  0.47654  1.0000
  C   C677      1.0  0.95068  0.23546  0.70979  1.0000
  S   S237      1.0  0.76344  0.07180  0.43163  1.0000
  C   C678      1.0  0.95782  0.24775  0.27945  1.0000
  H   H688      1.0  0.90513  0.14667  0.74951  1.0000
  H   H689      1.0  0.93863  0.21865  0.55622  1.0000
  Fe  Fe120     1.0  0.76447  0.08961  0.29771  1.0000
  S   S238      1.0  0.76771  0.10550  0.34582  1.0000
  C   C679      1.0  0.80196  0.12820  0.50618  1.0000
  N   N58       1.0  0.75815  0.01866  0.67370  1.0000
  C   C680      1.0  0.76785  0.01752  0.24274  1.0000
  S   S239      1.0  0.76577  0.06579  0.33086  1.0000
  C   C681      1.0  0.90580  0.24616  0.74989  1.0000
  H   H690      1.0  0.98434  0.19882  0.72067  1.0000
  N   N59       1.0  0.78503  0.03859  0.22914  1.0000
  H   H691      1.0  0.99674  0.25291  0.75967  1.0000
  H   H692      1.0  0.81224  0.03300  0.22832  1.0000
  H   H693      1.0  0.80244  0.04462  0.18925  1.0000
  H   H694      1.0  0.80500  0.02883  0.39523  1.0000
  C   C682      1.0  0.93621  0.21695  0.52801  1.0000
  C   C683      1.0  0.75869  0.03555  0.66860  1.0000
  H   H695      1.0  0.80706  0.00788  0.59843  1.0000
  H   H696      1.0  0.76233  0.03638  0.44147  1.0000
  C   C684      1.0  0.77095  0.00492  0.33183  1.0000
  C   C685      1.0  0.80151  0.04298  0.21892  1.0000
  H   H697      1.0  0.80315  0.05492  0.23204  1.0000
  C   C686      1.0  0.89895  0.24513  0.24724  1.0000
  H   H698      1.0  0.75635  0.04798  0.75574  1.0000
  H   H699      1.0  0.94857  0.18891  0.46061  1.0000
  H   H700      1.0  0.77217  0.06447  0.22929  1.0000
  C   C687      1.0  0.77106  0.05124  0.23313  1.0000
  H   H701      1.0  0.95371  0.19290  0.52574  1.0000
  C   C688      1.0  0.99932  0.20541  0.67545  1.0000
  H   H702      1.0  0.76687  0.00428  0.24726  1.0000
  C   C689      1.0  0.79773  0.00746  0.70104  1.0000
  N   N60       1.0  0.95845  0.24796  0.72857  1.0000
  H   H703      1.0  0.89519  0.25284  0.69759  1.0000
  C   C690      1.0  0.00008  0.20720  0.63792  1.0000
  H   H704      1.0  0.75778  0.00707  0.34093  1.0000
  H   H705      1.0  0.79535  0.00735  0.72981  1.0000
  C   C691      1.0  0.75836  0.00774  0.64242  1.0000
  H   H706      1.0  0.76000  0.04077  0.64169  1.0000
  C   C692      1.0  0.91076  0.25261  0.78214  1.0000
  H   H707      1.0  0.85427  0.25190  0.52572  1.0000
  C   C693      1.0  0.90753  0.25334  0.22080  1.0000
  C   C694      1.0  0.90257  0.46934  0.50383  1.0000
  H   H708      1.0  0.99741  0.31437  0.73582  1.0000
  Fe  Fe121     1.0  0.91269  0.35548  0.21885  1.0000
  S   S240      1.0  0.93069  0.35208  0.17137  1.0000
  S   S241      1.0  0.91138  0.37622  0.26068  1.0000
  Fe  Fe122     1.0  0.90276  0.32032  0.20758  1.0000
  S   S242      1.0  0.92003  0.31440  0.15914  1.0000
  S   S243      1.0  0.88567  0.30331  0.23238  1.0000
  Fe  Fe123     1.0  0.93860  0.32527  0.19200  1.0000
  S   S244      1.0  0.96614  0.31317  0.19690  1.0000
  Fe  Fe124     1.0  0.91054  0.34167  0.14260  1.0000
  S   S245      1.0  0.90382  0.35174  0.08602  1.0000
  S   S246      1.0  0.92218  0.32912  0.24143  1.0000
  S   S247      1.0  0.89159  0.34704  0.18880  1.0000
  Fe  Fe125     1.0  0.91821  0.35174  0.83071  1.0000
  S   S248      1.0  0.93999  0.34043  0.86646  1.0000
  S   S249      1.0  0.90979  0.38065  0.82912  1.0000
  Fe  Fe126     1.0  0.91293  0.31642  0.80716  1.0000
  S   S250      1.0  0.93430  0.30271  0.84086  1.0000
  S   S251      1.0  0.89905  0.30412  0.76516  1.0000
  Fe  Fe127     1.0  0.92400  0.32145  0.88430  1.0000
  S   S252      1.0  0.92477  0.31081  0.94180  1.0000
  Fe  Fe128     1.0  0.94822  0.32285  0.82054  1.0000
  S   S253      1.0  0.97545  0.31713  0.80136  1.0000
  S   S254      1.0  0.90129  0.33385  0.85191  1.0000
  S   S255      1.0  0.92772  0.33546  0.78354  1.0000
  H   H709      1.0  0.86931  0.43771  0.27663  1.0000
  C   C695      1.0  0.95978  0.42184  0.74997  1.0000
  C   C696      1.0  0.88376  0.43780  0.37509  1.0000
  C   C697      1.0  0.98185  0.33687  0.79959  1.0000
  H   H710      1.0  0.97249  0.41879  0.80090  1.0000
  C   C698      1.0  0.95185  0.46918  0.43380  1.0000
  C   C699      1.0  0.99155  0.36850  0.80576  1.0000
  C   C700      1.0  0.97434  0.36755  0.80408  1.0000
  C   C701      1.0  0.96951  0.35175  0.80093  1.0000
  H   H711      1.0  0.98224  0.33220  0.88338  1.0000
  H   H712      1.0  0.90485  0.46843  0.56194  1.0000
  H   H713      1.0  0.96467  0.37895  0.80632  1.0000
  H   H714      1.0  0.95615  0.35116  0.80032  1.0000
  C   C702      1.0  0.90199  0.28174  0.75991  1.0000
  C   C703      1.0  0.89709  0.27528  0.72764  1.0000
  N   N61       1.0  0.95318  0.48375  0.50079  1.0000
  H   H715      1.0  0.94762  0.42010  0.76140  1.0000
  H   H716      1.0  0.00030  0.42241  0.77453  1.0000
  C   C704      1.0  0.90899  0.27030  0.78707  1.0000
  H   H717      1.0  0.89162  0.28400  0.70650  1.0000
  H   H718      1.0  0.87100  0.46492  0.30510  1.0000
  H   H719      1.0  0.97572  0.32175  0.07592  1.0000
  H   H720      1.0  0.91273  0.27506  0.81215  1.0000
  C   C705      1.0  0.97713  0.32953  0.20627  1.0000
  C   C706      1.0  0.99463  0.32742  0.19926  1.0000
  C   C707      1.0  0.97664  0.50231  0.73083  1.0000
  C   C708      1.0  0.99340  0.35764  0.20817  1.0000
  C   C709      1.0  0.97622  0.35940  0.21810  1.0000
  C   C710      1.0  0.96815  0.34531  0.21755  1.0000
  C   C711      1.0  0.00277  0.34148  0.20050  1.0000
  H   H721      1.0  0.94088  0.46395  0.52139  1.0000
  H   H722      1.0  0.96895  0.37176  0.22511  1.0000
  H   H723      1.0  0.95486  0.34679  0.22524  1.0000
  C   C712      1.0  0.91053  0.34045  0.04618  1.0000
  C   C713      1.0  0.91914  0.32355  0.04732  1.0000
  C   C714      1.0  0.92354  0.31472  0.01506  1.0000
  C   C715      1.0  0.91963  0.32276  0.98141  1.0000
  C   C716      1.0  0.91134  0.33977  0.98030  1.0000
  C   C717      1.0  0.90673  0.34854  0.01259  1.0000
  H   H724      1.0  0.92216  0.31717  0.07297  1.0000
  H   H725      1.0  0.92995  0.30155  0.01608  1.0000
  H   H726      1.0  0.90822  0.34608  0.95457  1.0000
  H   H727      1.0  0.90008  0.36162  0.01144  1.0000
  C   C718      1.0  0.89199  0.28104  0.23929  1.0000
  C   C719      1.0  0.88351  0.27282  0.26583  1.0000
  H   H728      1.0  0.93522  0.26595  0.73357  1.0000
  H   H729      1.0  0.98229  0.28142  0.24001  1.0000
  C   C720      1.0  0.94622  0.46946  0.49788  1.0000
  C   C721      1.0  0.90429  0.27124  0.21720  1.0000
  H   H730      1.0  0.87394  0.28028  0.28294  1.0000
  C   C722      1.0  0.98940  0.42333  0.75714  1.0000
  C   C723      1.0  0.98821  0.43342  0.26115  1.0000
  H   H731      1.0  0.91086  0.27738  0.19656  1.0000
  C   C724      1.0  0.90967  0.49214  0.53952  1.0000
  S   S256      1.0  0.90291  0.45686  0.25274  1.0000
  H   H732      1.0  0.88626  0.41064  0.37318  1.0000
  H   H733      1.0  0.86963  0.35283  0.11215  1.0000
  C   C725      1.0  0.91579  0.41821  0.73600  1.0000
  C   C726      1.0  0.91025  0.42409  0.77020  1.0000
  C   C727      1.0  0.90904  0.41241  0.79870  1.0000
  C   C728      1.0  0.91361  0.39476  0.79358  1.0000
  C   C729      1.0  0.91988  0.38889  0.75978  1.0000
  C   C730      1.0  0.92084  0.40057  0.73112  1.0000
  H   H734      1.0  0.90615  0.43760  0.77430  1.0000
  H   H735      1.0  0.90415  0.41709  0.82471  1.0000
  H   H736      1.0  0.92347  0.37536  0.75543  1.0000
  H   H737      1.0  0.92511  0.39587  0.70475  1.0000
  C   C731      1.0  0.87694  0.38061  0.77333  1.0000
  H   H738      1.0  0.97486  0.37935  0.14058  1.0000
  C   C732      1.0  0.88692  0.30503  0.07653  1.0000
  C   C733      1.0  0.97131  0.32540  0.10369  1.0000
  C   C734      1.0  0.90759  0.43424  0.25299  1.0000
  C   C735      1.0  0.90289  0.42544  0.22354  1.0000
  C   C736      1.0  0.90501  0.40751  0.22430  1.0000
  C   C737      1.0  0.91166  0.39824  0.25483  1.0000
  C   C738      1.0  0.91669  0.40703  0.28390  1.0000
  C   C739      1.0  0.91477  0.42488  0.28293  1.0000
  H   H739      1.0  0.89726  0.43256  0.20029  1.0000
  H   H740      1.0  0.90086  0.40094  0.20194  1.0000
  H   H741      1.0  0.92172  0.39999  0.30774  1.0000
  H   H742      1.0  0.91834  0.43140  0.30587  1.0000
  H   H743      1.0  0.98817  0.47851  0.75607  1.0000
  Fe  Fe129     1.0  0.92030  0.48727  0.63443  1.0000
  C   C740      1.0  0.98320  0.25590  0.75411  1.0000
  H   H744      1.0  0.99096  0.45783  0.28034  1.0000
  C   C741      1.0  0.97971  0.48857  0.33264  1.0000
  H   H745      1.0  0.00176  0.31514  0.19139  1.0000
  C   C742      1.0  0.98854  0.48225  0.64787  1.0000
  C   C743      1.0  0.90575  0.47585  0.53752  1.0000
  H   H746      1.0  0.89925  0.45687  0.50255  1.0000
  C   C744      1.0  0.98852  0.34268  0.88983  1.0000
  C   C745      1.0  0.97831  0.49263  0.62299  1.0000
  H   H747      1.0  0.95116  0.46362  0.40757  1.0000
  H   H748      1.0  0.87993  0.46505  0.36892  1.0000
  H   H749      1.0  0.88622  0.39603  0.31524  1.0000
  H   H750      1.0  0.85759  0.34596  0.14892  1.0000
  S   S257      1.0  0.98118  0.46543  0.66975  1.0000
  S   S258      1.0  0.92750  0.49830  0.37226  1.0000
  Fe  Fe130     1.0  0.94239  0.47870  0.33629  1.0000
  Fe  Fe131     1.0  0.90899  0.48065  0.37733  1.0000
  S   S259      1.0  0.99714  0.38799  0.81524  1.0000
  Fe  Fe132     1.0  0.92426  0.49513  0.71435  1.0000
  S   S260      1.0  0.97060  0.47056  0.34046  1.0000
  H   H751      1.0  0.88232  0.40802  0.73891  1.0000
  C   C746      1.0  0.99548  0.41953  0.24030  1.0000
  H   H752      1.0  0.86333  0.40311  0.31481  1.0000
  C   C747      1.0  0.95245  0.37855  0.10949  1.0000
  C   C748      1.0  0.96786  0.37146  0.12557  1.0000
  N   N62       1.0  0.98423  0.25720  0.26672  1.0000
  C   C749      1.0  0.99716  0.48675  0.32525  1.0000
  H   H753      1.0  0.97613  0.43358  0.27523  1.0000
  Fe  Fe133     1.0  0.91149  0.47264  0.29690  1.0000
  C   C750      1.0  0.97917  0.35923  0.89123  1.0000
  C   C751      1.0  0.97372  0.42122  0.77221  1.0000
  H   H754      1.0  0.97901  0.28025  0.78029  1.0000
  C   C752      1.0  0.00282  0.25453  0.26977  1.0000
  C   C753      1.0  0.99915  0.33786  0.79957  1.0000
  C   C754      1.0  0.97553  0.27184  0.25105  1.0000
  H   H755      1.0  0.98200  0.32113  0.12249  1.0000
  S   S261      1.0  0.89981  0.47019  0.43003  1.0000
  H   H756      1.0  0.98609  0.34862  0.13524  1.0000
  H   H757      1.0  0.96563  0.36170  0.88585  1.0000
  C   C755      1.0  0.97743  0.42677  0.69885  1.0000
  C   C756      1.0  0.87574  0.40652  0.30689  1.0000
  N   N63       1.0  0.87088  0.32610  0.11533  1.0000
  S   S262      1.0  0.89380  0.49243  0.32940  1.0000
  C   C757      1.0  0.97410  0.35399  0.12279  1.0000
  C   C758      1.0  0.89913  0.25760  0.72249  1.0000
  H   H758      1.0  0.96696  0.49307  0.54196  1.0000
  H   H759      1.0  0.89534  0.28021  0.10072  1.0000
  N   N64       1.0  0.96507  0.34381  0.10520  1.0000
  C   C759      1.0  0.87924  0.45315  0.35610  1.0000
  C   C760      1.0  0.86149  0.34349  0.12032  1.0000
  H   H760      1.0  0.95081  0.42517  0.69548  1.0000
  H   H761      1.0  0.88958  0.39791  0.69773  1.0000
  C   C761      1.0  0.88087  0.29772  0.13816  1.0000
  H   H762      1.0  0.87433  0.36409  0.81900  1.0000
  H   H763      1.0  0.84988  0.34577  0.10364  1.0000
  S   S263      1.0  0.92513  0.46007  0.34506  1.0000
  H   H764      1.0  0.87722  0.33092  0.06047  1.0000
  S   S264      1.0  0.93548  0.46084  0.63979  1.0000
  H   H765      1.0  0.86699  0.40260  0.70824  1.0000
  C   C762      1.0  0.87213  0.31439  0.14305  1.0000
  H   H766      1.0  0.88852  0.33955  0.71831  1.0000
  H   H767      1.0  0.88192  0.28856  0.16038  1.0000
  H   H768      1.0  0.95091  0.28634  0.23648  1.0000
  C   C763      1.0  0.95899  0.48370  0.43699  1.0000
  C   C764      1.0  0.87398  0.45309  0.32054  1.0000
  C   C765      1.0  0.88274  0.42253  0.35826  1.0000
  C   C766      1.0  0.88512  0.35111  0.73375  1.0000
  C   C767      1.0  0.94532  0.46205  0.46434  1.0000
  H   H769      1.0  0.88808  0.43785  0.40264  1.0000
  H   H770      1.0  0.87415  0.39201  0.78937  1.0000
  C   C768      1.0  0.87807  0.32159  0.08235  1.0000
  S   S265      1.0  0.91436  0.43208  0.69776  1.0000
  C   C769      1.0  0.96161  0.42460  0.71302  1.0000
  C   C770      1.0  0.88837  0.29305  0.10472  1.0000
  S   S266      1.0  0.90397  0.48493  0.68415  1.0000
  C   C771      1.0  0.88101  0.35002  0.77027  1.0000
  H   H771      1.0  0.86651  0.31789  0.16933  1.0000
  C   C772      1.0  0.94362  0.36816  0.09049  1.0000
  H   H772      1.0  0.88803  0.36790  0.68912  1.0000
  S   S267      1.0  0.93949  0.46880  0.72577  1.0000
  C   C773      1.0  0.95020  0.35072  0.08851  1.0000
  H   H773      1.0  0.88111  0.33767  0.78306  1.0000
  H   H774      1.0  0.00149  0.29413  0.71443  1.0000
  C   C774      1.0  0.88491  0.36713  0.71758  1.0000
  C   C775      1.0  0.87700  0.36482  0.79030  1.0000
  C   C776      1.0  0.87308  0.43761  0.30456  1.0000
  N   N65       1.0  0.88089  0.38161  0.73742  1.0000
  H   H775      1.0  0.94313  0.34268  0.07426  1.0000
  H   H776      1.0  0.87659  0.40739  0.27700  1.0000
  H   H777      1.0  0.89278  0.30161  0.05041  1.0000
  C   C777      1.0  0.95774  0.27471  0.24898  1.0000
  C   C778      1.0  0.87984  0.39832  0.71966  1.0000
  H   H778      1.0  0.93152  0.37344  0.07814  1.0000
  Fe  Fe134     1.0  0.95281  0.47243  0.67362  1.0000
  N   N66       1.0  0.87748  0.42259  0.32340  1.0000
  Fe  Fe135     1.0  0.92073  0.45882  0.69179  1.0000
  C   C779      1.0  0.98753  0.37269  0.89797  1.0000
  C   C780      1.0  0.90368  0.47888  0.47188  1.0000
  H   H779      1.0  0.93506  0.26462  0.26186  1.0000
  H   H780      1.0  0.93918  0.45113  0.46189  1.0000
  H   H781      1.0  0.97865  0.42917  0.67016  1.0000
  C   C781      1.0  0.94886  0.26255  0.26321  1.0000
  N   N67       1.0  0.99103  0.42627  0.72095  1.0000
  S   S268      1.0  0.93038  0.48989  0.28522  1.0000
  H   H782      1.0  0.96390  0.48940  0.41317  1.0000
  H   H783      1.0  0.96422  0.49871  0.72953  1.0000
  H   H784      1.0  0.96464  0.50245  0.47307  1.0000
  H   H785      1.0  0.98028  0.38558  0.89768  1.0000
  C   C782      1.0  0.99666  0.44715  0.26393  1.0000
  H   H786      1.0  0.96100  0.31845  0.11211  1.0000
  C   C783      1.0  0.90788  0.49503  0.47389  1.0000
  C   C784      1.0  0.95374  0.49171  0.53585  1.0000
  H   H787      1.0  0.98911  0.40873  0.23794  1.0000
  H   H788      1.0  0.90861  0.50256  0.44956  1.0000
  H   H789      1.0  0.94808  0.28667  0.76681  1.0000
  S   S269      1.0  0.00250  0.37591  0.20304  1.0000
  H   H790      1.0  0.00281  0.33542  0.27867  1.0000
  C   C785      1.0  0.97330  0.27121  0.76554  1.0000
  H   H791      1.0  0.96647  0.48936  0.61476  1.0000
  C   C786      1.0  0.95594  0.27482  0.75804  1.0000
  C   C787      1.0  0.94870  0.26301  0.73933  1.0000
  H   H792      1.0  0.94729  0.39203  0.11199  1.0000
  C   C788      1.0  0.88716  0.25497  0.27020  1.0000
  H   H793      1.0  0.92450  0.25418  0.52601  1.0000
  H   H794      1.0  0.94913  0.48414  0.55817  1.0000
  C   C789      1.0  0.95941  0.49096  0.47086  1.0000
  S   S270      1.0  0.93914  0.49911  0.66455  1.0000
  C   C790      1.0  0.91061  0.50170  0.50758  1.0000
  S   S271      1.0  0.91365  0.50111  0.58095  1.0000
  C   C791      1.0  0.99014  0.49085  0.74610  1.0000
  C   C792      1.0  0.99457  0.62874  0.72361  1.0000
  H   H795      1.0  0.91345  0.51437  0.50890  1.0000
  S   S272      1.0  0.91301  0.53753  0.31590  1.0000
  C   C793      1.0  0.97732  0.67079  0.79895  1.0000
  C   C794      1.0  0.00093  0.67964  0.89220  1.0000
  C   C795      1.0  0.99317  0.65205  0.90023  1.0000
  H   H796      1.0  0.93992  0.52770  0.24156  1.0000
  H   H797      1.0  0.94531  0.50446  0.53586  1.0000
  C   C796      1.0  0.99219  0.64862  0.20769  1.0000
  H   H798      1.0  0.96660  0.58458  0.26789  1.0000
  H   H799      1.0  0.98246  0.69507  0.20574  1.0000
  C   C797      1.0  0.87739  0.56906  0.78305  1.0000
  C   C798      1.0  0.95943  0.55998  0.26278  1.0000
  H   H800      1.0  0.89490  0.55301  0.83822  1.0000
  C   C799      1.0  0.96793  0.64870  0.72016  1.0000
  C   C800      1.0  0.89344  0.59157  0.87578  1.0000
  H   H801      1.0  0.90935  0.68778  0.12337  1.0000
  H   H802      1.0  0.96893  0.68283  0.79365  1.0000
  C   C801      1.0  0.96504  0.52920  0.69967  1.0000
  S   S273      1.0  0.92380  0.51448  0.75915  1.0000
  C   C802      1.0  0.98364  0.66101  0.13812  1.0000
  H   H803      1.0  0.00160  0.61587  0.72776  1.0000
  Fe  Fe136     1.0  0.91115  0.61739  0.17904  1.0000
  S   S274      1.0  0.93538  0.61436  0.14577  1.0000
  S   S275      1.0  0.90065  0.59280  0.18710  1.0000
  Fe  Fe137     1.0  0.90888  0.65629  0.18535  1.0000
  S   S276      1.0  0.93297  0.65526  0.15351  1.0000
  S   S277      1.0  0.89507  0.68358  0.19597  1.0000
  Fe  Fe138     1.0  0.92313  0.63797  0.11563  1.0000
  S   S278      1.0  0.92932  0.64427  0.05729  1.0000
  Fe  Fe139     1.0  0.94296  0.63182  0.18594  1.0000
  S   S279      1.0  0.96929  0.62712  0.20881  1.0000
  S   S280      1.0  0.89815  0.64008  0.14561  1.0000
  S   S281      1.0  0.91957  0.63377  0.22131  1.0000
  Fe  Fe140     1.0  0.91595  0.61555  0.78577  1.0000
  S   S282      1.0  0.92699  0.61116  0.84094  1.0000
  S   S283      1.0  0.90873  0.59565  0.74862  1.0000
  Fe  Fe141     1.0  0.91714  0.65466  0.78572  1.0000
  S   S284      1.0  0.92768  0.65287  0.84194  1.0000
  S   S285      1.0  0.91792  0.67586  0.74285  1.0000
  Fe  Fe142     1.0  0.94439  0.62881  0.82305  1.0000
  S   S286      1.0  0.97266  0.62321  0.82994  1.0000
  Fe  Fe143     1.0  0.90928  0.63546  0.85554  1.0000
  S   S287      1.0  0.89431  0.63480  0.90824  1.0000
  S   S288      1.0  0.93499  0.63119  0.76679  1.0000
  S   S289      1.0  0.89694  0.63910  0.80070  1.0000
  C   C803      1.0  0.98121  0.64090  0.81602  1.0000
  C   C804      1.0  0.97048  0.65637  0.80794  1.0000
  C   C805      1.0  0.91920  0.70686  0.27146  1.0000
  H   H804      1.0  0.95690  0.65732  0.80860  1.0000
  C   C806      1.0  0.89188  0.56672  0.84113  1.0000
  C   C807      1.0  0.98008  0.64207  0.18845  1.0000
  C   C808      1.0  0.97618  0.64794  0.15332  1.0000
  C   C809      1.0  0.96953  0.50481  0.33329  1.0000
  H   H805      1.0  0.96745  0.64234  0.13767  1.0000
  C   C810      1.0  0.94611  0.73326  0.22273  1.0000
  C   C811      1.0  0.92004  0.63983  0.01641  1.0000
  C   C812      1.0  0.90503  0.63321  0.01546  1.0000
  C   C813      1.0  0.89731  0.63154  0.98215  1.0000
  C   C814      1.0  0.90473  0.63611  0.94957  1.0000
  C   C815      1.0  0.91996  0.64228  0.95059  1.0000
  C   C816      1.0  0.92746  0.64427  0.98381  1.0000
  H   H806      1.0  0.89916  0.62978  0.04037  1.0000
  H   H807      1.0  0.88554  0.62673  0.98165  1.0000
  H   H808      1.0  0.92581  0.64585  0.92579  1.0000
  H   H809      1.0  0.93907  0.64939  0.98425  1.0000
  C   C817      1.0  0.90149  0.69883  0.22448  1.0000
  C   C818      1.0  0.91463  0.69438  0.24921  1.0000
  H   H810      1.0  0.92110  0.68127  0.25163  1.0000
  C   C819      1.0  0.91503  0.69852  0.74376  1.0000
  C   C820      1.0  0.91970  0.70733  0.71300  1.0000
  H   H811      1.0  0.92577  0.70020  0.69034  1.0000
  C   C821      1.0  0.94386  0.55619  0.21074  1.0000
  C   C822      1.0  0.00006  0.66133  0.19207  1.0000
  H   H812      1.0  0.92366  0.67921  0.08764  1.0000
  C   C823      1.0  0.96258  0.73400  0.23341  1.0000
  C   C824      1.0  0.89787  0.72850  0.24404  1.0000
  C   C825      1.0  0.89316  0.71596  0.22209  1.0000
  C   C826      1.0  0.92137  0.53697  0.75399  1.0000
  C   C827      1.0  0.92565  0.54653  0.78269  1.0000
  C   C828      1.0  0.92284  0.56449  0.78066  1.0000
  C   C829      1.0  0.91536  0.57312  0.75015  1.0000
  C   C830      1.0  0.91148  0.56354  0.72114  1.0000
  C   C831      1.0  0.91459  0.54559  0.72287  1.0000
  H   H813      1.0  0.93099  0.54000  0.80682  1.0000
  H   H814      1.0  0.92593  0.57165  0.80319  1.0000
  H   H815      1.0  0.90566  0.57006  0.69740  1.0000
  H   H816      1.0  0.91120  0.53845  0.70057  1.0000
  H   H817      1.0  0.86268  0.66231  0.02843  1.0000
  H   H818      1.0  0.00102  0.58684  0.27362  1.0000
  C   C832      1.0  0.96704  0.67936  0.71228  1.0000
  H   H819      1.0  0.93007  0.71807  0.19867  1.0000
  H   H820      1.0  0.87811  0.57717  0.75853  1.0000
  H   H821      1.0  0.96902  0.53176  0.32951  1.0000
  H   H822      1.0  0.88166  0.61545  0.85164  1.0000
  H   H823      1.0  0.00086  0.66924  0.71111  1.0000
  C   C833      1.0  0.94467  0.57270  0.19854  1.0000
  H   H824      1.0  0.95247  0.52714  0.71043  1.0000
  N   N68       1.0  0.95585  0.70490  0.20142  1.0000
  H   H825      1.0  0.96248  0.52421  0.25126  1.0000
  C   C834      1.0  0.99490  0.52200  0.71779  1.0000
  H   H826      1.0  0.96569  0.54273  0.70448  1.0000
  C   C835      1.0  0.90792  0.73475  0.73950  1.0000
  H   H827      1.0  0.98037  0.66573  0.11115  1.0000
  C   C836      1.0  0.90950  0.55257  0.27948  1.0000
  C   C837      1.0  0.91336  0.56886  0.28409  1.0000
  C   C838      1.0  0.91084  0.58127  0.25614  1.0000
  C   C839      1.0  0.90415  0.57763  0.22330  1.0000
  C   C840      1.0  0.90029  0.56134  0.21867  1.0000
  C   C841      1.0  0.90311  0.54881  0.24641  1.0000
  H   H828      1.0  0.91825  0.57194  0.30958  1.0000
  H   H829      1.0  0.91380  0.59374  0.26023  1.0000
  H   H830      1.0  0.89505  0.55839  0.19344  1.0000
  H   H831      1.0  0.89998  0.53640  0.24247  1.0000
  H   H832      1.0  0.86405  0.56736  0.78755  1.0000
  C   C842      1.0  0.90706  0.70797  0.77267  1.0000
  C   C843      1.0  0.87129  0.67033  0.07884  1.0000
  C   C844      1.0  0.91627  0.72530  0.71091  1.0000
  H   H833      1.0  0.94656  0.53287  0.28455  1.0000
  H   H834      1.0  0.98425  0.64353  0.89640  1.0000
  H   H835      1.0  0.95322  0.59596  0.21056  1.0000
  H   H836      1.0  0.96504  0.74522  0.24675  1.0000
  H   H837      1.0  0.89317  0.70296  0.62996  1.0000
  C   C845      1.0  0.87967  0.59412  0.81816  1.0000
  C   C846      1.0  0.99548  0.66781  0.15762  1.0000
  H   H838      1.0  0.92929  0.70321  0.29067  1.0000
  H   H839      1.0  0.99700  0.53392  0.70570  1.0000
  C   C847      1.0  0.94298  0.71858  0.20641  1.0000
  Fe  Fe144     1.0  0.91401  0.50874  0.32131  1.0000
  H   H840      1.0  0.93857  0.68887  0.18624  1.0000
  C   C848      1.0  0.97683  0.51924  0.32742  1.0000
  H   H841      1.0  0.89753  0.59743  0.89940  1.0000
  H   H842      1.0  0.89576  0.72958  0.59638  1.0000
  H   H843      1.0  0.86944  0.73195  0.71821  1.0000
  H   H844      1.0  0.90425  0.56595  0.89257  1.0000
  H   H845      1.0  0.89033  0.68973  0.68923  1.0000
  S   S290      1.0  0.00332  0.68765  0.78486  1.0000
  H   H846      1.0  0.95677  0.68890  0.15640  1.0000
  S   S291      1.0  0.91796  0.73921  0.29667  1.0000
  H   H847      1.0  0.93572  0.74383  0.22793  1.0000
  C   C849      1.0  0.87228  0.66783  0.04171  1.0000
  C   C850      1.0  0.95287  0.58298  0.21923  1.0000
  H   H848      1.0  0.90329  0.70145  0.79644  1.0000
  N   N69       1.0  0.88337  0.57682  0.81461  1.0000
  N   N70       1.0  0.97911  0.51770  0.71716  1.0000
  H   H849      1.0  0.91139  0.70064  0.08373  1.0000
  C   C851      1.0  0.88833  0.71516  0.64213  1.0000
  C   C852      1.0  0.97577  0.72022  0.22699  1.0000
  H   H850      1.0  0.96994  0.62162  0.72942  1.0000
  C   C853      1.0  0.95237  0.68944  0.18498  1.0000
  H   H851      1.0  0.97528  0.51556  0.59020  1.0000
  H   H852      1.0  0.91975  0.73185  0.68691  1.0000
  C   C854      1.0  0.98916  0.66896  0.88833  1.0000
  C   C855      1.0  0.95003  0.53284  0.25542  1.0000
  H   H853      1.0  0.87922  0.70177  0.72490  1.0000
  C   C856      1.0  0.91089  0.72400  0.26905  1.0000
  C   C857      1.0  0.90347  0.72594  0.77043  1.0000
  H   H854      1.0  0.86087  0.66687  0.09473  1.0000
  C   C858      1.0  0.88406  0.67703  0.09558  1.0000
  C   C859      1.0  0.89719  0.57394  0.87193  1.0000
  H   H855      1.0  0.98869  0.72067  0.23473  1.0000
  C   C860      1.0  0.88455  0.60173  0.84885  1.0000
  C   C861      1.0  0.88981  0.73010  0.62299  1.0000
  C   C862      1.0  0.88368  0.74582  0.63851  1.0000
  H   H856      1.0  0.88324  0.67881  0.12451  1.0000
  C   C863      1.0  0.00326  0.64219  0.71809  1.0000
  H   H857      1.0  0.96435  0.68260  0.68353  1.0000
  N   N71       1.0  0.97657  0.66187  0.71583  1.0000
  H   H858      1.0  0.88292  0.71958  0.20321  1.0000
  H   H859      1.0  0.96559  0.52699  0.67019  1.0000
  C   C864      1.0  0.97216  0.70571  0.21071  1.0000
  H   H860      1.0  0.95912  0.67792  0.19954  1.0000
  H   H861      1.0  0.89136  0.74159  0.24178  1.0000
  N   N72       1.0  0.95100  0.55012  0.24273  1.0000
  H   H862      1.0  0.89702  0.73309  0.79274  1.0000
  H   H863      1.0  0.93835  0.57768  0.17390  1.0000
  N   N73       1.0  0.89756  0.68086  0.07593  1.0000
  H   H864      1.0  0.93694  0.54853  0.19502  1.0000
  C   C865      1.0  0.89856  0.67855  0.03950  1.0000
  C   C866      1.0  0.99417  0.51743  0.31909  1.0000
  C   C867      1.0  0.88589  0.67213  0.02180  1.0000
  H   H865      1.0  0.96529  0.55509  0.28790  1.0000
  C   C868      1.0  0.91114  0.68750  0.09359  1.0000
  C   C869      1.0  0.99400  0.65878  0.71407  1.0000
  H   H866      1.0  0.90955  0.68105  0.02412  1.0000
  H   H867      1.0  0.88706  0.66980  0.99306  1.0000
  H   H868      1.0  0.95475  0.68093  0.72767  1.0000
  H   H869      1.0  0.87318  0.60216  0.79689  1.0000
  H   H870      1.0  0.99521  0.64421  0.23494  1.0000
  H   H871      1.0  0.88551  0.55649  0.77730  1.0000
  H   H872      1.0  0.95411  0.65120  0.72128  1.0000
  H   H873      1.0  0.97430  0.68857  0.72363  1.0000
  C   C870      1.0  0.96036  0.57659  0.25150  1.0000
  C   C871      1.0  0.87933  0.70011  0.69522  1.0000
  C   C872      1.0  0.99887  0.63968  0.81342  1.0000
  H   H874      1.0  0.86737  0.69607  0.68749  1.0000
  N   N74       1.0  0.88109  0.71590  0.67593  1.0000
  C   C873      1.0  0.99495  0.66962  0.79674  1.0000
  C   C874      1.0  0.87614  0.74646  0.67276  1.0000
  C   C875      1.0  0.97680  0.63197  0.72450  1.0000
  H   H875      1.0  0.97708  0.67366  0.87545  1.0000
  C   C876      1.0  0.87488  0.73129  0.69116  1.0000
  C   C877      1.0  0.98334  0.50736  0.60894  1.0000
  H   H876      1.0  0.95605  0.50637  0.33861  1.0000
  C   C878      1.0  0.99855  0.51173  0.62005  1.0000
  H   H877      1.0  0.99813  0.69266  0.88196  1.0000
  H   H878      1.0  0.00371  0.61251  0.23713  1.0000
  S   S292      1.0  0.00316  0.53547  0.31083  1.0000
  Fe  Fe145     1.0  0.90070  0.78661  0.61313  1.0000
  S   S293      1.0  0.91183  0.81018  0.61757  1.0000
  S   S294      1.0  0.89087  0.77801  0.56134  1.0000
  Fe  Fe146     1.0  0.90597  0.77647  0.69228  1.0000
  S   S295      1.0  0.91750  0.79967  0.70302  1.0000
  C   C879      1.0  0.79854  0.89102  0.76386  1.0000
  Fe  Fe147     1.0  0.89632  0.81457  0.66890  1.0000
  S   S296      1.0  0.88407  0.84202  0.68344  1.0000
  Fe  Fe148     1.0  0.93195  0.79373  0.65083  1.0000
  S   S297      1.0  0.95990  0.79220  0.63518  1.0000
  S   S298      1.0  0.88373  0.79191  0.66231  1.0000
  S   S299      1.0  0.92179  0.76966  0.64240  1.0000
  H   H879      1.0  0.90723  0.82722  0.46007  1.0000
  S   S300      1.0  0.78393  0.92682  0.70250  1.0000
  C   C880      1.0  0.97230  0.81362  0.68158  1.0000
  Fe  Fe149     1.0  0.77258  0.94092  0.60470  1.0000
  S   S301      1.0  0.79900  0.93923  0.62572  1.0000
  C   C881      1.0  0.78895  0.87713  0.71324  1.0000
  Fe  Fe150     1.0  0.79549  0.91429  0.65153  1.0000
  S   S302      1.0  0.81191  0.88784  0.64107  1.0000
  Fe  Fe151     1.0  0.78538  0.95195  0.67433  1.0000
  N   N75       1.0  0.88412  0.82025  0.44347  1.0000
  S   S303      1.0  0.76967  0.91540  0.62710  1.0000
  C   C882      1.0  0.99177  0.81433  0.29524  1.0000
  Fe  Fe152     1.0  0.91857  0.79182  0.36620  1.0000
  S   S304      1.0  0.91103  0.81553  0.33254  1.0000
  S   S305      1.0  0.93015  0.79537  0.41982  1.0000
  Fe  Fe153     1.0  0.91152  0.76805  0.30600  1.0000
  S   S306      1.0  0.90333  0.79027  0.26771  1.0000
  C   C883      1.0  0.86654  0.80605  0.48221  1.0000
  Fe  Fe154     1.0  0.92592  0.80034  0.28845  1.0000
  S   S307      1.0  0.94629  0.80956  0.25414  1.0000
  Fe  Fe155     1.0  0.88899  0.80386  0.31546  1.0000
  S   S308      1.0  0.86112  0.81758  0.32222  1.0000
  S   S309      1.0  0.93492  0.77755  0.32330  1.0000
  S   S310      1.0  0.89576  0.78078  0.35251  1.0000
  Fe  Fe156     1.0  0.79517  0.90708  0.30825  1.0000
  S   S311      1.0  0.77279  0.89420  0.31827  1.0000
  S   S312      1.0  0.82119  0.89332  0.28742  1.0000
  Fe  Fe157     1.0  0.77448  0.94274  0.32649  1.0000
  C   C884      1.0  0.79664  0.98567  0.31406  1.0000
  C   C885      1.0  0.87607  0.81585  0.41392  1.0000
  Fe  Fe158     1.0  0.76833  0.91094  0.36698  1.0000
  H   H880      1.0  0.98808  0.84865  0.60590  1.0000
  H   H881      1.0  0.76731  0.93572  0.42142  1.0000
  H   H882      1.0  0.81329  0.84435  0.25958  1.0000
  S   S313      1.0  0.79161  0.92258  0.35888  1.0000
  S   S314      1.0  0.77988  0.92843  0.27493  1.0000
  H   H883      1.0  0.96982  0.83039  0.57871  1.0000
  H   H884      1.0  0.75541  0.89770  0.76077  1.0000
  N   N76       1.0  0.77236  0.88288  0.72337  1.0000
  H   H885      1.0  0.75773  0.89769  0.49852  1.0000
  H   H886      1.0  0.75798  0.98371  0.43843  1.0000
  H   H887      1.0  0.80405  0.91609  0.45936  1.0000
  C   C886      1.0  0.96068  0.83546  0.27932  1.0000
  C   C887      1.0  0.96220  0.81783  0.27641  1.0000
  H   H888      1.0  0.81814  0.99761  0.30028  1.0000
  H   H889      1.0  0.81445  0.87175  0.22864  1.0000
  H   H890      1.0  0.94888  0.84375  0.27197  1.0000
  C   C888      1.0  0.79990  0.89195  0.48009  1.0000
  C   C889      1.0  0.85076  0.83907  0.31397  1.0000
  C   C890      1.0  0.83420  0.84462  0.32813  1.0000
  C   C891      1.0  0.82519  0.86130  0.32129  1.0000
  C   C892      1.0  0.83252  0.87261  0.29959  1.0000
  C   C893      1.0  0.84909  0.86709  0.28551  1.0000
  C   C894      1.0  0.85821  0.85049  0.29286  1.0000
  H   H891      1.0  0.82826  0.83591  0.34442  1.0000
  H   H892      1.0  0.81246  0.86529  0.33227  1.0000
  H   H893      1.0  0.85490  0.87567  0.26861  1.0000
  H   H894      1.0  0.87087  0.84645  0.28156  1.0000
  H   H895      1.0  0.96184  0.82974  0.35930  1.0000
  H   H896      1.0  0.98938  0.85317  0.20553  1.0000
  Fe  Fe159     1.0  0.75705  0.91653  0.28888  1.0000
  H   H897      1.0  0.88491  0.75749  0.62409  1.0000
  H   H898      1.0  0.95255  0.82081  0.39833  1.0000
  C   C895      1.0  0.80064  0.99301  0.64415  1.0000
  C   C896      1.0  0.99491  0.78269  0.40813  1.0000
  S   S315      1.0  0.76230  0.90080  0.42180  1.0000
  H   H899      1.0  0.87962  0.81969  0.38708  1.0000
  S   S316      1.0  0.75908  0.95517  0.65174  1.0000
  C   C897      1.0  0.98973  0.81065  0.20291  1.0000
  N   N77       1.0  0.97766  0.80840  0.38506  1.0000
  C   C898      1.0  0.80366  0.90824  0.48344  1.0000
  H   H900      1.0  0.95474  0.80990  0.35602  1.0000
  H   H901      1.0  0.79134  0.89366  0.17976  1.0000
  H   H902      1.0  0.90433  0.82786  0.41269  1.0000
  C   C899      1.0  0.76580  0.93163  0.44904  1.0000
  C   C900      1.0  0.97533  0.80320  0.65150  1.0000
  C   C901      1.0  0.78580  0.84880  0.26188  1.0000
  H   H903      1.0  0.97008  0.83277  0.19436  1.0000
  H   H904      1.0  0.79725  0.88741  0.45382  1.0000
  H   H905      1.0  0.96036  0.81470  0.69638  1.0000
  C   C902      1.0  0.90305  0.78112  0.52250  1.0000
  C   C903      1.0  0.91665  0.78980  0.52427  1.0000
  C   C904      1.0  0.92519  0.79365  0.49264  1.0000
  C   C905      1.0  0.92017  0.78887  0.45902  1.0000
  C   C906      1.0  0.90692  0.77972  0.45724  1.0000
  C   C907      1.0  0.89846  0.77574  0.48899  1.0000
  H   H906      1.0  0.92057  0.79365  0.54997  1.0000
  H   H907      1.0  0.93557  0.80054  0.49425  1.0000
  H   H908      1.0  0.90310  0.77579  0.43148  1.0000
  H   H909      1.0  0.88808  0.76884  0.48745  1.0000
  C   C908      1.0  0.86392  0.85455  0.67132  1.0000
  C   C909      1.0  0.85246  0.84836  0.64946  1.0000
  C   C910      1.0  0.83672  0.85877  0.64049  1.0000
  C   C911      1.0  0.83215  0.87552  0.65313  1.0000
  C   C912      1.0  0.84359  0.88172  0.67504  1.0000
  C   C913      1.0  0.85933  0.87130  0.68402  1.0000
  H   H910      1.0  0.85572  0.83553  0.63950  1.0000
  H   H911      1.0  0.82801  0.85375  0.62363  1.0000
  H   H912      1.0  0.84035  0.89455  0.68501  1.0000
  H   H913      1.0  0.86805  0.87628  0.70094  1.0000
  C   C914      1.0  0.77958  0.98827  0.32559  1.0000
  H   H914      1.0  0.97336  0.85618  0.29126  1.0000
  H   H915      1.0  0.98103  0.80194  0.19921  1.0000
  H   H916      1.0  0.84894  0.79328  0.45543  1.0000
  C   C915      1.0  0.99424  0.83957  0.20633  1.0000
  C   C916      1.0  0.79731  0.99275  0.68127  1.0000
  H   H917      1.0  0.80346  0.97288  0.30927  1.0000
  H   H918      1.0  0.99345  0.79365  0.60957  1.0000
  H   H919      1.0  0.99605  0.76963  0.41772  1.0000
  S   S317      1.0  0.76870  0.95117  0.54771  1.0000
  C   C917      1.0  0.87932  0.81574  0.47735  1.0000
  C   C918      1.0  0.97912  0.79195  0.39736  1.0000
  H   H920      1.0  0.80878  0.89442  0.77925  1.0000
  C   C919      1.0  0.99100  0.80173  0.63283  1.0000
  C   C920      1.0  0.98471  0.82286  0.69220  1.0000
  C   C921      1.0  0.80155  0.85295  0.25266  1.0000
  N   N78       1.0  0.94348  0.84702  0.64667  1.0000
  C   C922      1.0  0.94917  0.83763  0.61699  1.0000
  C   C923      1.0  0.95350  0.85697  0.66201  1.0000
  C   C924      1.0  0.96512  0.83834  0.60143  1.0000
  C   C925      1.0  0.96956  0.85793  0.64719  1.0000
  H   H921      1.0  0.77848  0.90502  0.79710  1.0000
  C   C926      1.0  0.92704  0.84545  0.66337  1.0000
  H   H922      1.0  0.94164  0.82906  0.60592  1.0000
  H   H923      1.0  0.94929  0.86394  0.68628  1.0000
  C   C927      1.0  0.77191  0.87547  0.23527  1.0000
  H   H924      1.0  0.77629  0.90514  0.21161  1.0000
  H   H925      1.0  0.78520  0.83690  0.27598  1.0000
  H   H926      1.0  0.92202  0.85624  0.68136  1.0000
  H   H927      1.0  0.91723  0.84538  0.64259  1.0000
  H   H928      1.0  0.92836  0.83344  0.67950  1.0000
  N   N79       1.0  0.80609  0.91442  0.51663  1.0000
  C   C928      1.0  0.80540  0.90453  0.54696  1.0000
  C   C929      1.0  0.80161  0.88822  0.54462  1.0000
  C   C930      1.0  0.79874  0.88196  0.51096  1.0000
  C   C931      1.0  0.81020  0.93145  0.51951  1.0000
  H   H929      1.0  0.80760  0.90927  0.57327  1.0000
  H   H930      1.0  0.80079  0.88058  0.56889  1.0000
  H   H931      1.0  0.79540  0.86949  0.50878  1.0000
  H   H932      1.0  0.80580  0.93716  0.54587  1.0000
  H   H933      1.0  0.82415  0.93077  0.51657  1.0000
  H   H934      1.0  0.80348  0.94026  0.49868  1.0000
  N   N80       1.0  0.78743  0.87962  0.22723  1.0000
  C   C932      1.0  0.97537  0.84854  0.61671  1.0000
  C   C933      1.0  0.80213  0.86848  0.23513  1.0000
  C   C934      1.0  0.80228  0.88103  0.73338  1.0000
  H   H935      1.0  0.00245  0.77889  0.21585  1.0000
  C   C935      1.0  0.98344  0.82815  0.20000  1.0000
  C   C936      1.0  0.78844  0.89580  0.20883  1.0000
  C   C937      1.0  0.96091  0.81775  0.37419  1.0000
  S   S318      1.0  0.79175  0.97466  0.70368  1.0000
  Fe  Fe160     1.0  0.75827  0.92942  0.67646  1.0000
  H   H936      1.0  0.79862  0.90164  0.22078  1.0000
  S   S319      1.0  0.76839  0.97146  0.33442  1.0000
  H   H937      1.0  0.81541  0.87663  0.72482  1.0000
  H   H938      1.0  0.98222  0.83110  0.71519  1.0000
  C   C938      1.0  0.76857  0.89273  0.75320  1.0000
  C   C939      1.0  0.78117  0.99003  0.41624  1.0000
  H   H939      1.0  0.97777  0.86534  0.66004  1.0000
  C   C940      1.0  0.00019  0.82175  0.67285  1.0000
  C   C941      1.0  0.97462  0.84249  0.28991  1.0000
  H   H940      1.0  0.76022  0.88419  0.22859  1.0000
  C   C942      1.0  0.99156  0.81617  0.38402  1.0000
  H   H941      1.0  0.85723  0.80239  0.39406  1.0000
  C   C943      1.0  0.85860  0.80111  0.45214  1.0000
  H   H942      1.0  0.88579  0.81907  0.50083  1.0000
  C   C944      1.0  0.97770  0.80724  0.28516  1.0000
  H   H943      1.0  0.99042  0.76362  0.69718  1.0000
  H   H944      1.0  0.97909  0.79362  0.28239  1.0000
  C   C945      1.0  0.99038  0.83203  0.29694  1.0000
  H   H945      1.0  0.75851  0.85702  0.26005  1.0000
  H   H946      1.0  0.99045  0.82927  0.37460  1.0000
  C   C946      1.0  0.78158  0.89692  0.77392  1.0000
  C   C947      1.0  0.76207  0.92118  0.52084  1.0000
  C   C948      1.0  0.89745  0.83050  0.43890  1.0000
  C   C949      1.0  0.77085  0.86007  0.25299  1.0000
  H   H947      1.0  0.89175  0.84423  0.44001  1.0000
  H   H948      1.0  0.80047  0.98176  0.62861  1.0000
  C   C950      1.0  0.76558  0.93738  0.51322  1.0000
  H   H949      1.0  0.78627  0.97714  0.40783  1.0000
  H   H950      1.0  0.79199  0.86973  0.68903  1.0000
  C   C951      1.0  0.86330  0.80612  0.41776  1.0000
  S   S320      1.0  0.90167  0.75737  0.73705  1.0000
  H   H951      1.0  0.86333  0.80188  0.50909  1.0000
  H   H952      1.0  0.96798  0.78594  0.39890  1.0000
  H   H953      1.0  0.76060  0.91709  0.54846  1.0000
  C   C952      1.0  0.76250  0.91535  0.45662  1.0000
  C   C953      1.0  0.76037  0.91024  0.49255  1.0000
  H   H954      1.0  0.76142  0.86570  0.69227  1.0000
  C   C954      1.0  0.76725  0.94264  0.47727  1.0000
  C   C955      1.0  0.76519  0.99376  0.43310  1.0000
  H   H955      1.0  0.75736  0.88769  0.67668  1.0000
  H   H956      1.0  0.76993  0.95516  0.47129  1.0000
  C   C956      1.0  0.75869  0.87915  0.70088  1.0000
  C   C957      1.0  0.80494  0.99970  0.30911  1.0000
  H   H957      1.0  0.75657  0.99864  0.71182  1.0000
  H   H958      1.0  0.80236  0.00021  0.39474  1.0000
  H   H959      1.0  0.87176  0.75861  0.68555  1.0000
  H   H960      1.0  0.76350  0.99419  0.64951  1.0000
  C   C958      1.0  0.00296  0.76191  0.70909  1.0000
  C   C959      1.0  0.00337  0.81099  0.64337  1.0000
  C   C960      1.0  0.79018  0.00317  0.40884  1.0000
