data_image0
_chemical_formula_structural       FeS2FeS2FeSFeS3FeS2FeS2FeCFeHS2FeCSFeS2FeHFeCS2H2SNC2H4C4H2CHCH3C6H4CHC2HCH4C6H4C6H5CHC3HC2HCHCHC2HSH3CH3NH2C4NC4HCH2CHC5HSCSHNCHC3HC3NHCHC2H3CSNSH3NCH3NH3C2HCH2CSHC3H3C2FeCFeS2FeHFeS3CFeS2CHFeSFeS3FeSC2HFeCFeHSHC6H2CHC3H2C2SH2C2SH7CHC2H2NC6H4CH2NC6H7C2H2CHSCHSHCHSHCNC3S2HSC2HCSCHSC2H3C2H2C3NCNH4C2HFeS2FeS2FeSFeS3FeS2FeS2H2FeS3FeSNFeS2FeSFeHS2C3H2CHC2H4NH2CSHCHC7H4C4FeC2H2C7H4C6HCH2NC7NC6H9C3H3CH2C2NH6CH3CHCNH2CH2CH2CHCHCH2SC3HCHCHC2H2CSC3H3CHC3FeSFeS2FeHFeHS2CFeS2HCFeCFeHSCFeSHCHFeSFeCS2CSC2HCH2CHC3H3C2HC2SHC2SCH2SCHCH2C8H3CH3C2SHSC3HSCH2S2NC2SH3C2SHNHCHCHNH4C2HNCHCH2CH2NCHC2HCHSCH3C2HCH2CH4C3H2C2FeHFeS2FeHFeS4HFeNHFeS2FeCFeS3C6H4C6H5CH2CHSHCH2CHC3HSCH3C2H2CH4NC6HCHCH2SHC2HCHCS2CH2CHC2SH2CHC2HNHC3SC3NC4HCH3NCH3CHC3H4SC4S2CH2NH6CH2SCFeS2FeS2FeSFeS3C2FeS2H2N2S2H3CH2C2H2C3H2C2H6C6H5CH3C10H2CFeH2NC6H8CH2CSH2CHFe2CH2FeNC6H5CHC2HCH2C3FeH2C2H3CHCSC2SHC4HCH4FeHFeS2FeCFeCS4FeCHFeS2FeHFeS3C6H4C6H4CHCH3C4H5C3H2CH2C3SH2CHCHCNH2S2H3NC6HCH2CHC2HSH2CSHNH4CHC2HC3HSH2CH2C2SCNH3CHNHC3H2C2FeCHCHSC3HSCFeS2FeS2FeCFeS3FeHFeCS2HSHS2C3H2CH2CSC3H2CH2C2HFeC7H4CH4CHCHC6H2NC6H6C3NCHNHSH3C2H3CNHFeHCH5CH2CH3C3NSHC2HSHC2HCH3NH5SC2H3FeHC3HS2CSFe2HFeCFeS2CHFeSFeS3H2FeS2FeSFeS3C2SC2FeHCSHC6H3C7H3C2H2CH7CHCH2SHCH2C2HC2FeHC2NHCH2SCHFeHC2HC3NH3CH2SC3NCH2CHCSCH3CH3CHFeS2FeS2FeSFeS3FeS2FeSCFeSFeS3FeH2FeSCFeCFeS2C2HCH5CHC6H4C6H4C2HC3HC3HCH6NSC5H5NHCHC4H2NC3HC2SC5H8NC4H6CHCH2CHCH5C2H5C2H2N2C2HSC2HC3HNCH4C4H2CH2SH2SCFeSC2FeS2HCFeSFeS3CSFeSHFeSFeS3CHC2H3C2HC6HCH2CHC3HC2H2CH3CHCHC4HC2HNHC2H2FeCHC3HN2CFeCH3SFeHCH2CHCH5FeHSHFeH3CHCHCH4CH2FeS2FeS2FeSFeS3FeS2FeSHFeSFeS3FeSCHSCFeHFeS2NCHC4HC2HC6H4C6H4C3H2CHNH3CH3C2SC3HC4SC4HSCH3C2H2CH7C2H4C4HCNC3HSH3SC2H3SH2NHCHC2HC3NHCHC2H2CNCFeHSCH3CH2
_chemical_formula_sum              "Fe128 S256 C768 H768 N64"
_cell_length_a       82.8706
_cell_length_b       47.8004
_cell_length_c       34.6266
_cell_angle_alpha    90.1809
_cell_angle_beta     89.8176
_cell_angle_gamma    90.0799

_space_group_name_H-M_alt    "P 1"
_space_group_IT_number       1

loop_
  _space_group_symop_operation_xyz
  'x, y, z'

loop_
  _atom_site_type_symbol
  _atom_site_label
  _atom_site_symmetry_multiplicity
  _atom_site_fract_x
  _atom_site_fract_y
  _atom_site_fract_z
  _atom_site_occupancy
  Fe  Fe1       1.0  0.16705  0.10520  0.27764  1.0000
  S   S1        1.0  0.17185  0.10172  0.21367  1.0000
  S   S2        1.0  0.14273  0.09008  0.30241  1.0000
  Fe  Fe2       1.0  0.20274  0.11972  0.29546  1.0000
  S   S3        1.0  0.20943  0.11734  0.23215  1.0000
  S   S4        1.0  0.22120  0.13472  0.34159  1.0000
  Fe  Fe3       1.0  0.18658  0.14149  0.22038  1.0000
  S   S5        1.0  0.18404  0.17269  0.16959  1.0000
  Fe  Fe4       1.0  0.19422  0.07796  0.22952  1.0000
  S   S6        1.0  0.20517  0.03933  0.19885  1.0000
  S   S7        1.0  0.18043  0.14620  0.28379  1.0000
  S   S8        1.0  0.18889  0.07912  0.29351  1.0000
  Fe  Fe5       1.0  0.19669  0.39998  0.07074  1.0000
  S   S9        1.0  0.18942  0.39736  0.00809  1.0000
  S   S10       1.0  0.20498  0.44357  0.09171  1.0000
  Fe  Fe6       1.0  0.19155  0.33602  0.08165  1.0000
  S   S11       1.0  0.18362  0.33008  0.01973  1.0000
  S   S12       1.0  0.19522  0.30322  0.13001  1.0000
  Fe  Fe7       1.0  0.20466  0.35852  0.00370  1.0000
  C   C1        1.0  0.03133  0.17427  0.25382  1.0000
  Fe  Fe8       1.0  0.16900  0.36966  0.02836  1.0000
  H   H1        1.0  0.21666  0.26038  0.00720  1.0000
  S   S13       1.0  0.21323  0.36250  0.06521  1.0000
  S   S14       1.0  0.17572  0.37412  0.09131  1.0000
  Fe  Fe9       1.0  0.02364  0.08626  0.40946  1.0000
  C   C2        1.0  0.14816  0.47219  0.11352  1.0000
  S   S15       1.0  0.02305  0.04501  0.44448  1.0000
  Fe  Fe10      1.0  0.04921  0.12640  0.37427  1.0000
  S   S16       1.0  0.03035  0.15938  0.36298  1.0000
  S   S17       1.0  0.07495  0.14117  0.35875  1.0000
  Fe  Fe11      1.0  0.02009  0.15076  0.42168  1.0000
  H   H2        1.0  0.00753  0.24139  0.03598  1.0000
  Fe  Fe12      1.0  0.01473  0.12396  0.34177  1.0000
  C   C3        1.0  0.29452  0.11723  0.39067  1.0000
  S   S18       1.0  0.03990  0.11974  0.43475  1.0000
  S   S19       1.0  0.03419  0.09139  0.34909  1.0000
  H   H3        1.0  0.03254  0.00451  0.01961  1.0000
  H   H4        1.0  0.29490  0.02246  0.41495  1.0000
  S   S20       1.0  0.00049  0.13641  0.28813  1.0000
  N   N1        1.0  0.15903  0.09381  0.39194  1.0000
  C   C4        1.0  0.06013  0.18498  0.29151  1.0000
  C   C5        1.0  0.03933  0.12568  0.24128  1.0000
  H   H5        1.0  0.13107  0.42691  0.12031  1.0000
  H   H6        1.0  0.19161  0.15133  0.38163  1.0000
  H   H7        1.0  0.06593  0.14232  0.27808  1.0000
  H   H8        1.0  0.00126  0.04830  0.04147  1.0000
  C   C6        1.0  0.01062  0.01526  0.45594  1.0000
  C   C7        1.0  0.16610  0.14214  0.38280  1.0000
  C   C8        1.0  0.18087  0.10860  0.11628  1.0000
  C   C9        1.0  0.13804  0.42607  0.09289  1.0000
  H   H9        1.0  0.16096  0.43199  0.03982  1.0000
  H   H10       1.0  0.23058  0.09185  0.10804  1.0000
  C   C10       1.0  0.30190  0.04147  0.41146  1.0000
  H   H11       1.0  0.17979  0.47161  0.03160  1.0000
  C   C11       1.0  0.00686  0.36449  0.44737  1.0000
  H   H12       1.0  0.14489  0.40609  0.09265  1.0000
  H   H13       1.0  0.02511  0.18153  0.99373  1.0000
  H   H14       1.0  0.28124  0.06651  0.39773  1.0000
  C   C12       1.0  0.18684  0.20931  0.15993  1.0000
  C   C13       1.0  0.18197  0.22007  0.12389  1.0000
  C   C14       1.0  0.18411  0.24867  0.11444  1.0000
  C   C15       1.0  0.19136  0.26706  0.14080  1.0000
  C   C16       1.0  0.19629  0.25628  0.17676  1.0000
  C   C17       1.0  0.19400  0.22774  0.18635  1.0000
  H   H15       1.0  0.17637  0.20620  0.10314  1.0000
  H   H16       1.0  0.18017  0.25645  0.08674  1.0000
  H   H17       1.0  0.20190  0.27015  0.19752  1.0000
  H   H18       1.0  0.19786  0.22001  0.21415  1.0000
  C   C18       1.0  0.19881  0.46769  0.12855  1.0000
  H   H19       1.0  0.20269  0.12690  0.13808  1.0000
  C   C19       1.0  0.00265  0.24110  0.00703  1.0000
  C   C20       1.0  0.19757  0.01009  0.17183  1.0000
  H   H20       1.0  0.29179  0.12801  0.41843  1.0000
  C   C21       1.0  0.18759  0.46076  0.15730  1.0000
  H   H21       1.0  0.02581  0.42631  0.45660  1.0000
  H   H22       1.0  0.17279  0.02333  0.17060  1.0000
  H   H23       1.0  0.05054  0.11488  0.23189  1.0000
  H   H24       1.0  0.18255  0.43988  0.15809  1.0000
  C   C22       1.0  0.12369  0.10489  0.31559  1.0000
  C   C23       1.0  0.12110  0.13379  0.31757  1.0000
  C   C24       1.0  0.10611  0.14436  0.33069  1.0000
  C   C25       1.0  0.09343  0.12631  0.34161  1.0000
  C   C26       1.0  0.09595  0.09742  0.33911  1.0000
  C   C27       1.0  0.11100  0.08685  0.32644  1.0000
  H   H25       1.0  0.13069  0.14800  0.30944  1.0000
  H   H26       1.0  0.10437  0.16675  0.33254  1.0000
  H   H27       1.0  0.08640  0.08321  0.34746  1.0000
  H   H28       1.0  0.11282  0.06445  0.32513  1.0000
  C   C28       1.0  0.23512  0.12211  0.37737  1.0000
  C   C29       1.0  0.23665  0.09372  0.38668  1.0000
  C   C30       1.0  0.24757  0.08505  0.41573  1.0000
  C   C31       1.0  0.25730  0.10444  0.43588  1.0000
  C   C32       1.0  0.25583  0.13281  0.42642  1.0000
  C   C33       1.0  0.24483  0.14150  0.39759  1.0000
  H   H29       1.0  0.22938  0.07841  0.37160  1.0000
  H   H30       1.0  0.24847  0.06305  0.42264  1.0000
  H   H31       1.0  0.24745  0.32435  0.09171  1.0000
  H   H32       1.0  0.24378  0.16353  0.39097  1.0000
  H   H33       1.0  0.02460  0.21641  0.26952  1.0000
  C   C34       1.0  0.00006  0.23193  0.43814  1.0000
  H   H34       1.0  0.03342  0.11306  0.26424  1.0000
  C   C35       1.0  0.01835  0.34688  0.46409  1.0000
  C   C36       1.0  0.04960  0.25351  0.98369  1.0000
  C   C37       1.0  0.00741  0.45855  0.98384  1.0000
  H   H35       1.0  0.13305  0.32765  0.99432  1.0000
  C   C38       1.0  0.23119  0.28945  0.08969  1.0000
  C   C39       1.0  0.03265  0.35825  0.47832  1.0000
  H   H36       1.0  0.05053  0.22596  0.30338  1.0000
  C   C40       1.0  0.22243  0.27143  0.06593  1.0000
  H   H37       1.0  0.07130  0.18857  0.30711  1.0000
  C   C41       1.0  0.00547  0.21782  0.47105  1.0000
  H   H38       1.0  0.14782  0.06125  0.42403  1.0000
  C   C42       1.0  0.24120  0.30969  0.07303  1.0000
  C   C43       1.0  0.18135  0.00772  0.16099  1.0000
  H   H39       1.0  0.13438  0.07994  0.39248  1.0000
  S   S21       1.0  0.27131  0.09180  0.47145  1.0000
  H   H40       1.0  0.28293  0.11364  0.37529  1.0000
  H   H41       1.0  0.32459  0.02229  0.42621  1.0000
  H   H42       1.0  0.19963  0.10195  0.39167  1.0000
  C   C44       1.0  0.99710  0.07632  0.20426  1.0000
  H   H43       1.0  0.14182  0.12650  0.38415  1.0000
  H   H44       1.0  0.02252  0.04906  0.03357  1.0000
  H   H45       1.0  0.01988  0.17012  0.23982  1.0000
  N   N2        1.0  0.04279  0.15377  0.25625  1.0000
  H   H46       1.0  0.24544  0.35336  0.01508  1.0000
  H   H47       1.0  0.03107  0.12654  0.21608  1.0000
  C   C45       1.0  0.05702  0.15879  0.27496  1.0000
  C   C46       1.0  0.11221  0.38850  0.98622  1.0000
  C   C47       1.0  0.01299  0.04186  0.05391  1.0000
  C   C48       1.0  0.25263  0.33378  0.01689  1.0000
  N   N3        1.0  0.20605  0.08412  0.12202  1.0000
  C   C49       1.0  0.19721  0.10810  0.12626  1.0000
  C   C50       1.0  0.19915  0.06057  0.10670  1.0000
  C   C51       1.0  0.18280  0.06025  0.09676  1.0000
  C   C52       1.0  0.22318  0.08405  0.13249  1.0000
  H   H48       1.0  0.20613  0.04151  0.10344  1.0000
  C   C53       1.0  0.00044  0.08983  0.23962  1.0000
  H   H49       1.0  0.22531  0.09734  0.15837  1.0000
  H   H50       1.0  0.22724  0.06264  0.14045  1.0000
  C   C54       1.0  0.32722  0.06629  0.41452  1.0000
  H   H51       1.0  0.26305  0.14816  0.44159  1.0000
  C   C55       1.0  0.04846  0.20590  0.28950  1.0000
  C   C56       1.0  0.17360  0.08441  0.10185  1.0000
  C   C57       1.0  0.15448  0.12104  0.38651  1.0000
  C   C58       1.0  0.14685  0.07166  0.39553  1.0000
  C   C59       1.0  0.18298  0.48084  0.18538  1.0000
  H   H52       1.0  0.17444  0.47505  0.20766  1.0000
  S   S22       1.0  0.14390  0.38546  0.00991  1.0000
  C   C60       1.0  0.29423  0.06650  0.40166  1.0000
  S   S23       1.0  0.00324  0.11690  0.40035  1.0000
  H   H53       1.0  0.16247  0.16359  0.37755  1.0000
  N   N4        1.0  0.14909  0.44986  0.08873  1.0000
  C   C61       1.0  0.03395  0.20058  0.27050  1.0000
  H   H54       1.0  0.17383  0.12751  0.12063  1.0000
  C   C62       1.0  0.31912  0.09100  0.40512  1.0000
  C   C63       1.0  0.17501  0.08688  0.39383  1.0000
  C   C64       1.0  0.00175  0.99954  0.08262  1.0000
  H   H55       1.0  0.17863  0.06524  0.39735  1.0000
  C   C65       1.0  0.12315  0.34176  0.98859  1.0000
  C   C66       1.0  0.18242  0.13527  0.38500  1.0000
  C   C67       1.0  0.18694  0.10749  0.39061  1.0000
  N   N5        1.0  0.30285  0.09083  0.39852  1.0000
  H   H56       1.0  0.00531  0.07810  0.26357  1.0000
  C   C68       1.0  0.22378  0.27375  0.02593  1.0000
  H   H57       1.0  0.22966  0.28844  0.12084  1.0000
  C   C69       1.0  0.17063  0.47235  0.05405  1.0000
  C   C70       1.0  0.16011  0.44976  0.05925  1.0000
  H   H58       1.0  0.01187  0.28224  0.99287  1.0000
  H   H59       1.0  0.01598  0.32462  0.46684  1.0000
  H   H60       1.0  0.21430  0.25618  0.07861  1.0000
  C   C71       1.0  0.31851  0.04141  0.41785  1.0000
  S   S24       1.0  0.00962  0.42177  0.98984  1.0000
  N   N6        1.0  0.24267  0.31155  0.03374  1.0000
  S   S25       1.0  0.99800  0.11006  0.03531  1.0000
  H   H61       1.0  0.17727  0.04114  0.08610  1.0000
  H   H62       1.0  0.25669  0.32823  0.98720  1.0000
  H   H63       1.0  0.04509  0.21537  0.01460  1.0000
  N   N7        1.0  0.01308  0.01147  0.05903  1.0000
  C   C72       1.0  0.12530  0.37056  0.99388  1.0000
  H   H64       1.0  0.16084  0.08436  0.09501  1.0000
  H   H65       1.0  0.14855  0.05597  0.37207  1.0000
  H   H66       1.0  0.26357  0.33775  0.03449  1.0000
  N   N8        1.0  0.00973  0.39259  0.44412  1.0000
  H   H67       1.0  0.05641  0.26316  0.00693  1.0000
  H   H68       1.0  0.01461  0.05264  0.08213  1.0000
  H   H69       1.0  0.12946  0.42552  0.06827  1.0000
  C   C73       1.0  0.02378  0.40389  0.45783  1.0000
  C   C74       1.0  0.03541  0.38696  0.47527  1.0000
  H   H70       1.0  0.32590  0.11041  0.40381  1.0000
  C   C75       1.0  0.23406  0.29400  0.01021  1.0000
  H   H71       1.0  0.13959  0.47223  0.13722  1.0000
  H   H72       1.0  0.30203  0.13119  0.37237  1.0000
  C   C76       1.0  0.99702  0.11830  0.24417  1.0000
  S   S26       1.0  0.01351  0.18290  0.46935  1.0000
  H   H73       1.0  0.00250  0.43047  0.41633  1.0000
  C   C77       1.0  0.04318  0.22655  0.98779  1.0000
  C   C78       1.0  0.99723  0.41087  0.42818  1.0000
  C   C79       1.0  0.02396  0.99517  0.03946  1.0000
  H   H74       1.0  0.11369  0.41081  0.99020  1.0000
  H   H75       1.0  0.00077  0.22171  0.41027  1.0000
  H   H76       1.0  0.99943  0.05415  0.20129  1.0000
  C   C80       1.0  0.00513  0.26430  0.98267  1.0000
  C   C81       1.0  0.20523  0.49503  0.12831  1.0000
  Fe  Fe13      1.0  0.05228  0.35409  0.93495  1.0000
  C   C82       1.0  0.25227  0.39275  0.75971  1.0000
  Fe  Fe14      1.0  0.03203  0.37624  0.86706  1.0000
  S   S27       1.0  0.00886  0.37251  0.89991  1.0000
  S   S28       1.0  0.03299  0.39361  0.80601  1.0000
  Fe  Fe15      1.0  0.02264  0.39111  0.94963  1.0000
  H   H77       1.0  0.32513  0.25695  0.81448  1.0000
  Fe  Fe16      1.0  0.01821  0.33076  0.91984  1.0000
  S   S29       1.0  0.99982  0.36348  0.55713  1.0000
  S   S30       1.0  0.04557  0.39760  0.91561  1.0000
  S   S31       1.0  0.04062  0.33345  0.88333  1.0000
  C   C83       1.0  0.00283  0.01836  0.95716  1.0000
  Fe  Fe17      1.0  0.30090  0.36525  0.80583  1.0000
  S   S32       1.0  0.29121  0.35965  0.74560  1.0000
  S   S33       1.0  0.28535  0.37962  0.85810  1.0000
  C   C84       1.0  0.01704  0.48778  0.48658  1.0000
  H   H78       1.0  0.25059  0.38550  0.69832  1.0000
  Fe  Fe18      1.0  0.31228  0.38636  0.72609  1.0000
  S   S34       1.0  0.30887  0.41818  0.67657  1.0000
  Fe  Fe19      1.0  0.30796  0.32249  0.74019  1.0000
  S   S35       1.0  0.29908  0.27892  0.72042  1.0000
  S   S36       1.0  0.32141  0.39388  0.78651  1.0000
  S   S37       1.0  0.31643  0.32660  0.80194  1.0000
  Fe  Fe20      1.0  0.29289  0.10464  0.51059  1.0000
  S   S38       1.0  0.29286  0.11011  0.57608  1.0000
  C   C85       1.0  0.31511  0.01229  0.63760  1.0000
  C   C86       1.0  0.07441  0.41647  0.84351  1.0000
  H   H79       1.0  0.08314  0.42853  0.82575  1.0000
  Fe  Fe21      1.0  0.31389  0.07970  0.57575  1.0000
  C   C87       1.0  0.00063  0.36098  0.70741  1.0000
  Fe  Fe22      1.0  0.31145  0.14455  0.56664  1.0000
  H   H80       1.0  0.32197  0.28050  0.65475  1.0000
  S   S39       1.0  0.31321  0.07287  0.51123  1.0000
  H   H81       1.0  0.32894  0.24482  0.60491  1.0000
  C   C88       1.0  0.30368  0.25522  0.68174  1.0000
  C   C89       1.0  0.29561  0.22924  0.68016  1.0000
  C   C90       1.0  0.29959  0.20885  0.65200  1.0000
  C   C91       1.0  0.31167  0.21417  0.62464  1.0000
  C   C92       1.0  0.28084  0.44140  0.81025  1.0000
  C   C93       1.0  0.31566  0.26067  0.65415  1.0000
  H   H82       1.0  0.28623  0.22476  0.70104  1.0000
  H   H83       1.0  0.29327  0.18903  0.65141  1.0000
  C   C94       1.0  0.02073  0.12145  0.52609  1.0000
  H   H84       1.0  0.04143  0.34487  0.49226  1.0000
  C   C95       1.0  0.30927  0.45525  0.66924  1.0000
  C   C96       1.0  0.31206  0.47433  0.69926  1.0000
  C   C97       1.0  0.00292  0.47184  0.49279  1.0000
  H   H85       1.0  0.31692  0.20548  0.79377  1.0000
  H   H86       1.0  0.00996  0.34733  0.80188  1.0000
  C   C98       1.0  0.30658  0.46581  0.63183  1.0000
  C   C99       1.0  0.00048  0.34783  0.74371  1.0000
  S   S40       1.0  0.31769  0.18902  0.58891  1.0000
  H   H87       1.0  0.01678  0.18307  0.94658  1.0000
  H   H88       1.0  0.08726  0.39200  0.96823  1.0000
  C   C100      1.0  0.02022  0.38096  0.76867  1.0000
  C   C101      1.0  0.02037  0.39416  0.73240  1.0000
  S   S41       1.0  0.00415  0.44054  0.52116  1.0000
  H   H89       1.0  0.27459  0.43967  0.83862  1.0000
  H   H90       1.0  0.02809  0.41213  0.72780  1.0000
  H   H91       1.0  0.01083  0.39464  0.67417  1.0000
  H   H92       1.0  0.28591  0.44550  0.73472  1.0000
  H   H93       1.0  0.03207  0.05788  0.56017  1.0000
  H   H94       1.0  0.30435  0.45134  0.60834  1.0000
  H   H95       1.0  0.00840  0.22116  0.53276  1.0000
  C   C102      1.0  0.03824  0.25568  0.91976  1.0000
  H   H96       1.0  0.25719  0.40353  0.81871  1.0000
  C   C103      1.0  0.00641  0.11326  0.50797  1.0000
  C   C104      1.0  0.01017  0.35778  0.77421  1.0000
  H   H97       1.0  0.02490  0.21941  0.90183  1.0000
  H   H98       1.0  0.03580  0.26716  0.89343  1.0000
  N   N9        1.0  0.03441  0.21460  0.95864  1.0000
  C   C105      1.0  0.23849  0.35580  0.92543  1.0000
  C   C106      1.0  0.24386  0.33929  0.89407  1.0000
  C   C107      1.0  0.25807  0.34610  0.87320  1.0000
  C   C108      1.0  0.26729  0.36954  0.88348  1.0000
  C   C109      1.0  0.26189  0.38610  0.91477  1.0000
  C   C110      1.0  0.24765  0.37936  0.93553  1.0000
  H   H99       1.0  0.23695  0.32101  0.88579  1.0000
  H   H100      1.0  0.26192  0.33309  0.84928  1.0000
  H   H101      1.0  0.26881  0.40435  0.92310  1.0000
  H   H102      1.0  0.04137  0.10747  0.55829  1.0000
  C   C111      1.0  0.01645  0.47358  0.95674  1.0000
  H   H103      1.0  0.29323  0.00911  0.60467  1.0000
  H   H104      1.0  0.24315  0.37736  0.76720  1.0000
  N   N10       1.0  0.07638  0.38643  0.83620  1.0000
  C   C112      1.0  0.08382  0.36976  0.86282  1.0000
  C   C113      1.0  0.07112  0.37539  0.80198  1.0000
  C   C114      1.0  0.08583  0.34114  0.85575  1.0000
  C   C115      1.0  0.07264  0.34678  0.79431  1.0000
  C   C116      1.0  0.08005  0.32957  0.82144  1.0000
  C   C117      1.0  0.01058  0.38432  0.70192  1.0000
  H   H105      1.0  0.08810  0.37838  0.88996  1.0000
  H   H106      1.0  0.06530  0.38864  0.78075  1.0000
  H   H107      1.0  0.09161  0.32800  0.87718  1.0000
  H   H108      1.0  0.06791  0.33807  0.76765  1.0000
  H   H109      1.0  0.08126  0.30731  0.81599  1.0000
  H   H110      1.0  0.06193  0.42313  0.83603  1.0000
  H   H111      1.0  0.27225  0.41980  0.68236  1.0000
  C   C118      1.0  0.10814  0.33115  0.97585  1.0000
  C   C119      1.0  0.31963  0.24028  0.62595  1.0000
  H   H112      1.0  0.02499  0.46274  0.93837  1.0000
  H   H113      1.0  0.02405  0.01409  0.92146  1.0000
  C   C120      1.0  0.02477  0.07377  0.54640  1.0000
  H   H114      1.0  0.31431  0.46672  0.72812  1.0000
  S   S42       1.0  0.31000  0.14064  0.50158  1.0000
  C   C121      1.0  0.03203  0.22867  0.92478  1.0000
  H   H115      1.0  0.29302  0.43203  0.81359  1.0000
  S   S43       1.0  0.00278  0.05553  0.95411  1.0000
  H   H116      1.0  0.31369  0.20193  0.74260  1.0000
  C   C122      1.0  0.25644  0.39732  0.72114  1.0000
  H   H117      1.0  0.24377  0.39245  0.95935  1.0000
  S   S44       1.0  0.07646  0.33438  0.95187  1.0000
  H   H118      1.0  0.07629  0.42181  0.87444  1.0000
  C   C123      1.0  0.31498  0.21726  0.76662  1.0000
  N   N11       1.0  0.27206  0.42663  0.77965  1.0000
  C   C124      1.0  0.27628  0.43107  0.74195  1.0000
  C   C125      1.0  0.26027  0.40764  0.78878  1.0000
  C   C126      1.0  0.26852  0.41661  0.71214  1.0000
  S   S45       1.0  0.03015  0.34869  0.97249  1.0000
  S   S46       1.0  0.00204  0.29236  0.91286  1.0000
  H   H119      1.0  0.10668  0.30883  0.97193  1.0000
  S   S47       1.0  0.32823  0.34852  0.71647  1.0000
  C   C127      1.0  0.99896  0.26409  0.94515  1.0000
  C   C128      1.0  0.01508  0.00308  0.93835  1.0000
  H   H120      1.0  0.30344  0.22906  0.76873  1.0000
  C   C129      1.0  0.32494  0.99843  0.66466  1.0000
  S   S48       1.0  0.22067  0.34532  0.95149  1.0000
  C   C130      1.0  0.03001  0.10151  0.54514  1.0000
  H   H121      1.0  0.02827  0.48096  0.49927  1.0000
  S   S49       1.0  0.32097  0.04637  0.62105  1.0000
  C   C131      1.0  0.04706  0.26814  0.94947  1.0000
  C   C132      1.0  0.00430  0.23169  0.50701  1.0000
  H   H122      1.0  0.02480  0.14302  0.52436  1.0000
  H   H123      1.0  0.00657  0.04461  0.52842  1.0000
  H   H124      1.0  0.05182  0.28918  0.94615  1.0000
  C   C133      1.0  0.02816  0.18604  0.96305  1.0000
  C   C134      1.0  0.30099  0.99885  0.62531  1.0000
  H   H125      1.0  0.03722  0.17064  0.95273  1.0000
  H   H126      1.0  0.28210  0.46396  0.80327  1.0000
  C   C135      1.0  0.99782  0.25904  0.51013  1.0000
  C   C136      1.0  0.09505  0.34908  0.96835  1.0000
  C   C137      1.0  0.09719  0.37789  0.97360  1.0000
  N   N12       1.0  0.32832  0.23686  0.75991  1.0000
  C   C138      1.0  0.01027  0.06639  0.52846  1.0000
  N   N13       1.0  0.00132  0.08603  0.50946  1.0000
  H   H127      1.0  0.99955  0.12879  0.49216  1.0000
  H   H128      1.0  0.02834  0.99782  0.49444  1.0000
  H   H129      1.0  0.23484  0.29597  0.97905  1.0000
  H   H130      1.0  0.04630  0.39620  0.48706  1.0000
  C   C139      1.0  0.30667  0.49491  0.62442  1.0000
  C   C140      1.0  0.01640  0.99527  0.48240  1.0000
  H   H131      1.0  0.99699  0.26915  0.53805  1.0000
  Fe  Fe23      1.0  0.17001  0.62347  0.28879  1.0000
  S   S50       1.0  0.17005  0.61282  0.22562  1.0000
  S   S51       1.0  0.14699  0.64133  0.31696  1.0000
  Fe  Fe24      1.0  0.20730  0.61709  0.29465  1.0000
  S   S52       1.0  0.20926  0.60620  0.23081  1.0000
  S   S53       1.0  0.23171  0.61970  0.32773  1.0000
  Fe  Fe25      1.0  0.19159  0.64165  0.22062  1.0000
  S   S54       1.0  0.19061  0.67105  0.16776  1.0000
  Fe  Fe26      1.0  0.18759  0.57842  0.24018  1.0000
  S   S55       1.0  0.18318  0.53245  0.22177  1.0000
  S   S56       1.0  0.19086  0.65403  0.28327  1.0000
  S   S57       1.0  0.18638  0.58747  0.30457  1.0000
  Fe  Fe27      1.0  0.18824  0.89465  0.06798  1.0000
  S   S58       1.0  0.18205  0.88639  0.00525  1.0000
  S   S59       1.0  0.17987  0.93722  0.09316  1.0000
  Fe  Fe28      1.0  0.19591  0.83153  0.08201  1.0000
  S   S60       1.0  0.19026  0.82001  0.02055  1.0000
  S   S61       1.0  0.20291  0.80134  0.13124  1.0000
  H   H132      1.0  0.24267  0.82557  0.99364  1.0000
  H   H133      1.0  0.20803  0.53243  0.35750  1.0000
  Fe  Fe29      1.0  0.16862  0.84848  0.02628  1.0000
  S   S62       1.0  0.14272  0.83334  0.01565  1.0000
  S   S63       1.0  0.21134  0.86911  0.06526  1.0000
  S   S64       1.0  0.17365  0.85781  0.08874  1.0000
  Fe  Fe30      1.0  0.01791  0.58887  0.39818  1.0000
  S   S65       1.0  0.00624  0.63059  0.38345  1.0000
  N   N14       1.0  0.02958  0.72847  0.35468  1.0000
  Fe  Fe31      1.0  0.05172  0.60925  0.37245  1.0000
  S   S66       1.0  0.04248  0.65178  0.35707  1.0000
  S   S67       1.0  0.07725  0.59175  0.36236  1.0000
  Fe  Fe32      1.0  0.02769  0.65073  0.41183  1.0000
  S   S68       1.0  0.02758  0.68941  0.45227  1.0000
  Fe  Fe33      1.0  0.02150  0.62935  0.32941  1.0000
  H   H134      1.0  0.02529  0.75835  0.39949  1.0000
  S   S69       1.0  0.03858  0.60921  0.42997  1.0000
  S   S70       1.0  0.03151  0.58661  0.34158  1.0000
  C   C141      1.0  0.21760  0.53426  0.28557  1.0000
  C   C142      1.0  0.14261  0.93093  0.03428  1.0000
  C   C143      1.0  0.04662  0.72509  0.36501  1.0000
  H   H135      1.0  0.29579  0.70050  0.45170  1.0000
  H   H136      1.0  0.10262  0.88958  0.03765  1.0000
  C   C144      1.0  0.20328  0.96674  0.13555  1.0000
  H   H137      1.0  0.26928  0.67911  0.43473  1.0000
  C   C145      1.0  0.23563  0.79100  0.07724  1.0000
  C   C146      1.0  0.00249  0.63402  0.23466  1.0000
  H   H138      1.0  0.01053  0.66338  0.19149  1.0000
  H   H139      1.0  0.21185  0.95113  0.12594  1.0000
  H   H140      1.0  0.21812  0.52419  0.22482  1.0000
  H   H141      1.0  0.03220  0.60053  0.20153  1.0000
  N   N15       1.0  0.00827  0.56269  0.12105  1.0000
  H   H142      1.0  0.05235  0.74576  0.37031  1.0000
  H   H143      1.0  0.10928  0.81811  0.01350  1.0000
  C   C147      1.0  0.00093  0.97043  0.08659  1.0000
  S   S71       1.0  0.01544  0.64807  0.27057  1.0000
  H   H144      1.0  0.26107  0.56138  0.27166  1.0000
  C   C148      1.0  0.00664  0.71540  0.31629  1.0000
  H   H145      1.0  0.03538  0.61505  0.13297  1.0000
  C   C149      1.0  0.00239  0.52185  0.44761  1.0000
  C   C150      1.0  0.19414  0.70740  0.15857  1.0000
  C   C151      1.0  0.18923  0.71874  0.12293  1.0000
  C   C152      1.0  0.19135  0.74746  0.11447  1.0000
  C   C153      1.0  0.19879  0.76527  0.14124  1.0000
  C   C154      1.0  0.20375  0.75392  0.17682  1.0000
  C   C155      1.0  0.20134  0.72530  0.18559  1.0000
  H   H146      1.0  0.18365  0.70520  0.10171  1.0000
  H   H147      1.0  0.18746  0.75572  0.08698  1.0000
  H   H148      1.0  0.20958  0.76736  0.19777  1.0000
  H   H149      1.0  0.20521  0.71705  0.21311  1.0000
  C   C156      1.0  0.18711  0.96452  0.12434  1.0000
  C   C157      1.0  0.01865  0.58392  0.11161  1.0000
  C   C158      1.0  0.20044  0.51522  0.15601  1.0000
  C   C159      1.0  0.18934  0.50823  0.18499  1.0000
  Fe  Fe34      1.0  0.20437  0.85886  0.00346  1.0000
  C   C160      1.0  0.20845  0.98941  0.15887  1.0000
  C   C161      1.0  0.11091  0.83503  0.99316  1.0000
  H   H150      1.0  0.20543  0.53614  0.15505  1.0000
  H   H151      1.0  0.21737  0.74906  0.01143  1.0000
  C   C162      1.0  0.12643  0.84639  0.98750  1.0000
  C   C163      1.0  0.12745  0.62706  0.32734  1.0000
  C   C164      1.0  0.11485  0.64533  0.33809  1.0000
  C   C165      1.0  0.09934  0.63508  0.34788  1.0000
  C   C166      1.0  0.09625  0.60626  0.34770  1.0000
  C   C167      1.0  0.10884  0.58803  0.33678  1.0000
  C   C168      1.0  0.12427  0.59830  0.32636  1.0000
  H   H152      1.0  0.11713  0.66759  0.33920  1.0000
  H   H153      1.0  0.08989  0.64941  0.35642  1.0000
  H   H154      1.0  0.10666  0.56571  0.33662  1.0000
  H   H155      1.0  0.13377  0.58390  0.31838  1.0000
  C   C169      1.0  0.24190  0.61554  0.37322  1.0000
  C   C170      1.0  0.23389  0.60786  0.40728  1.0000
  C   C171      1.0  0.24262  0.60391  0.44199  1.0000
  C   C172      1.0  0.25950  0.60759  0.44354  1.0000
  C   C173      1.0  0.26751  0.61550  0.40956  1.0000
  C   C174      1.0  0.25879  0.61937  0.37481  1.0000
  H   H156      1.0  0.22094  0.60506  0.40705  1.0000
  C   C175      1.0  0.11552  0.92338  0.01104  1.0000
  H   H157      1.0  0.13605  0.86052  0.09383  1.0000
  H   H158      1.0  0.26521  0.62530  0.34884  1.0000
  N   N16       1.0  0.22601  0.54471  0.31637  1.0000
  C   C176      1.0  0.24149  0.55411  0.31164  1.0000
  C   C177      1.0  0.24896  0.55317  0.27538  1.0000
  C   C178      1.0  0.22482  0.53255  0.24908  1.0000
  C   C179      1.0  0.22437  0.76646  0.02260  1.0000
  C   C180      1.0  0.12430  0.87100  0.08833  1.0000
  C   C181      1.0  0.01443  0.71805  0.46408  1.0000
  C   C182      1.0  0.02299  0.71286  0.32547  1.0000
  N   N17       1.0  0.15493  0.69909  0.20168  1.0000
  C   C183      1.0  0.15991  0.72598  0.19511  1.0000
  C   C184      1.0  0.15430  0.68882  0.23847  1.0000
  C   C185      1.0  0.16520  0.74287  0.22563  1.0000
  C   C186      1.0  0.15935  0.70520  0.26973  1.0000
  C   C187      1.0  0.16498  0.73229  0.26315  1.0000
  C   C188      1.0  0.14964  0.68148  0.16938  1.0000
  H   H159      1.0  0.16031  0.73424  0.16598  1.0000
  H   H160      1.0  0.15002  0.66772  0.24380  1.0000
  H   H161      1.0  0.16972  0.76380  0.21999  1.0000
  H   H162      1.0  0.15904  0.69671  0.29878  1.0000
  H   H163      1.0  0.16921  0.74501  0.28708  1.0000
  H   H164      1.0  0.15571  0.68775  0.14203  1.0000
  H   H165      1.0  0.15311  0.65930  0.17430  1.0000
  H   H166      1.0  0.13636  0.68291  0.16599  1.0000
  H   H167      1.0  0.03028  0.69812  0.30913  1.0000
  C   C189      1.0  0.02360  0.96604  0.04314  1.0000
  C   C190      1.0  0.24120  0.81178  0.05236  1.0000
  C   C191      1.0  0.02578  0.58951  0.17877  1.0000
  H   H168      1.0  0.22682  0.54392  0.37794  1.0000
  H   H169      1.0  0.24737  0.83003  0.06377  1.0000
  H   H170      1.0  0.15808  0.51250  0.12947  1.0000
  C   C192      1.0  0.28791  0.69251  0.47418  1.0000
  H   H171      1.0  0.11924  0.87885  0.11600  1.0000
  H   H172      1.0  0.23619  0.59794  0.46794  1.0000
  C   C193      1.0  0.13010  0.93800  0.00926  1.0000
  C   C194      1.0  0.01681  0.51253  0.46419  1.0000
  N   N18       1.0  0.23013  0.78668  0.99828  1.0000
  H   H173      1.0  0.02601  0.73409  0.02806  1.0000
  H   H174      1.0  0.03171  0.95303  0.02618  1.0000
  H   H175      1.0  0.24610  0.54156  0.21553  1.0000
  H   H176      1.0  0.00147  0.70264  0.29339  1.0000
  H   H177      1.0  0.02000  0.59049  0.08182  1.0000
  H   H178      1.0  0.15021  0.90373  0.07977  1.0000
  C   C195      1.0  0.24055  0.54223  0.24394  1.0000
  H   H179      1.0  0.21324  0.56912  0.35718  1.0000
  H   H180      1.0  0.10580  0.92822  0.99118  1.0000
  H   H181      1.0  0.23734  0.79301  0.10821  1.0000
  C   C196      1.0  0.22724  0.76810  0.06232  1.0000
  H   H182      1.0  0.24798  0.56323  0.33577  1.0000
  C   C197      1.0  0.00386  0.75004  0.36667  1.0000
  N   N19       1.0  0.12630  0.89414  0.06105  1.0000
  H   H183      1.0  0.20517  0.52743  0.28888  1.0000
  H   H184      1.0  0.17817  0.51246  0.07607  1.0000
  C   C198      1.0  0.14043  0.90898  0.06038  1.0000
  H   H185      1.0  0.11627  0.85455  0.07614  1.0000
  H   H186      1.0  0.15402  0.94211  0.03341  1.0000
  C   C199      1.0  0.02748  0.59774  0.14033  1.0000
  H   H187      1.0  0.22261  0.75217  0.08166  1.0000
  H   H188      1.0  0.13174  0.95459  0.98832  1.0000
  C   C200      1.0  0.01529  0.56769  0.18803  1.0000
  H   H189      1.0  0.16368  0.98386  0.12892  1.0000
  C   C201      1.0  0.17623  0.98526  0.13722  1.0000
  H   H190      1.0  0.28045  0.61851  0.40997  1.0000
  C   C202      1.0  0.11380  0.90143  0.03738  1.0000
  H   H191      1.0  0.02779  0.52437  0.45977  1.0000
  H   H192      1.0  0.04758  0.71233  0.39170  1.0000
  S   S72       1.0  0.00106  0.55362  0.42029  1.0000
  C   C203      1.0  0.21812  0.54759  0.35412  1.0000
  C   C204      1.0  0.02021  0.74665  0.37548  1.0000
  C   C205      1.0  0.00414  0.71452  0.00741  1.0000
  H   H193      1.0  0.21389  0.50072  0.10623  1.0000
  C   C206      1.0  0.01554  0.73643  0.00975  1.0000
  H   H194      1.0  0.05358  0.71444  0.34173  1.0000
  C   C207      1.0  0.23838  0.80922  0.01270  1.0000
  H   H195      1.0  0.01100  0.93098  0.06781  1.0000
  C   C208      1.0  0.00265  0.64586  0.19749  1.0000
  C   C209      1.0  0.99853  0.71976  0.45065  1.0000
  H   H196      1.0  0.00074  0.55781  0.06205  1.0000
  H   H197      1.0  0.01355  0.56173  0.21798  1.0000
  C   C210      1.0  0.00648  0.55457  0.15867  1.0000
  S   S73       1.0  0.02917  0.78687  0.98941  1.0000
  C   C211      1.0  0.01369  0.76108  0.98806  1.0000
  C   C212      1.0  0.27304  0.68066  0.46466  1.0000
  C   C213      1.0  0.01187  0.95363  0.06645  1.0000
  H   H198      1.0  0.22103  0.99093  0.16690  1.0000
  H   H199      1.0  0.00297  0.52597  0.08877  1.0000
  H   H200      1.0  0.00586  0.69554  0.02378  1.0000
  C   C214      1.0  0.99907  0.54814  0.09096  1.0000
  H   H201      1.0  0.99791  0.53831  0.16623  1.0000
  C   C215      1.0  0.99704  0.73418  0.33699  1.0000
  C   C216      1.0  0.15846  0.49520  0.10906  1.0000
  C   C217      1.0  0.16974  0.49522  0.07906  1.0000
  Fe  Fe35      1.0  0.05599  0.86855  0.92304  1.0000
  S   S74       1.0  0.08256  0.88236  0.92193  1.0000
  Fe  Fe36      1.0  0.02661  0.85214  0.87320  1.0000
  S   S75       1.0  0.01048  0.84966  0.92552  1.0000
  S   S76       1.0  0.01284  0.83676  0.82007  1.0000
  Fe  Fe37      1.0  0.02234  0.88980  0.94468  1.0000
  H   H202      1.0  0.03514  0.88968  0.70966  1.0000
  Fe  Fe38      1.0  0.03083  0.82708  0.95394  1.0000
  H   H203      1.0  0.03087  0.58757  0.55855  1.0000
  S   S77       1.0  0.03718  0.89387  0.89049  1.0000
  S   S78       1.0  0.04657  0.82727  0.90085  1.0000
  C   C218      1.0  0.27635  0.95821  0.74601  1.0000
  Fe  Fe39      1.0  0.30248  0.86430  0.80670  1.0000
  S   S79       1.0  0.29054  0.86170  0.74867  1.0000
  S   S80       1.0  0.28937  0.87335  0.86479  1.0000
  H   H204      1.0  0.03495  0.57287  0.51120  1.0000
  C   C219      1.0  0.26759  0.92049  0.80296  1.0000
  Fe  Fe40      1.0  0.30984  0.89132  0.72714  1.0000
  C   C220      1.0  0.32084  0.97167  0.67911  1.0000
  Fe  Fe41      1.0  0.30787  0.82645  0.73474  1.0000
  H   H205      1.0  0.03065  0.68266  0.94818  1.0000
  S   S81       1.0  0.32111  0.89600  0.78605  1.0000
  C   C221      1.0  0.31193  0.50344  0.69196  1.0000
  Fe  Fe42      1.0  0.29450  0.60474  0.52009  1.0000
  S   S82       1.0  0.29310  0.61603  0.58385  1.0000
  H   H206      1.0  0.25064  0.88140  0.97337  1.0000
  C   C222      1.0  0.11486  0.87833  0.94036  1.0000
  H   H207      1.0  0.01478  0.79062  0.88603  1.0000
  Fe  Fe43      1.0  0.31027  0.57992  0.59384  1.0000
  S   S83       1.0  0.30999  0.55103  0.64710  1.0000
  Fe  Fe44      1.0  0.31500  0.64294  0.57321  1.0000
  C   C223      1.0  0.32500  0.73636  0.63636  1.0000
  S   S84       1.0  0.31038  0.56709  0.53141  1.0000
  S   S85       1.0  0.31578  0.63339  0.50893  1.0000
  C   C224      1.0  0.30459  0.75849  0.67728  1.0000
  S   S86       1.0  0.22010  0.85475  0.94783  1.0000
  C   C225      1.0  0.01912  0.77430  0.86559  1.0000
  C   C226      1.0  0.31458  0.71390  0.62748  1.0000
  H   H208      1.0  0.02203  0.51437  0.93348  1.0000
  C   C227      1.0  0.29274  0.69349  0.51274  1.0000
  H   H209      1.0  0.00477  0.93138  0.73293  1.0000
  H   H210      1.0  0.01518  0.77955  0.51599  1.0000
  C   C228      1.0  0.03948  0.72315  0.93070  1.0000
  H   H211      1.0  0.28322  0.83620  0.66295  1.0000
  C   C229      1.0  0.30665  0.95837  0.66703  1.0000
  C   C230      1.0  0.30270  0.96598  0.77617  1.0000
  C   C231      1.0  0.01452  0.86488  0.69309  1.0000
  H   H212      1.0  0.02451  0.64634  0.51525  1.0000
  H   H213      1.0  0.02560  0.96226  0.92762  1.0000
  H   H214      1.0  0.28682  0.68227  0.57092  1.0000
  C   C232      1.0  0.09741  0.84549  0.97306  1.0000
  C   C233      1.0  0.22657  0.78494  0.95689  1.0000
  H   H215      1.0  0.11648  0.89510  0.91978  1.0000
  C   C234      1.0  0.00401  0.58598  0.50539  1.0000
  C   C235      1.0  0.01428  0.84728  0.77112  1.0000
  S   S87       1.0  0.00272  0.55462  0.97432  1.0000
  H   H216      1.0  0.30739  0.96806  0.80607  1.0000
  C   C236      1.0  0.02596  0.86626  0.75828  1.0000
  C   C237      1.0  0.02610  0.87492  0.71939  1.0000
  S   S88       1.0  0.30034  0.92500  0.68528  1.0000
  C   C238      1.0  0.25692  0.92601  0.77290  1.0000
  H   H217      1.0  0.01169  0.95672  0.51355  1.0000
  H   H218      1.0  0.00548  0.56355  0.50856  1.0000
  S   S89       1.0  0.29708  0.78718  0.70557  1.0000
  C   C239      1.0  0.09928  0.86732  0.94660  1.0000
  H   H219      1.0  0.03486  0.87427  0.77826  1.0000
  C   C240      1.0  0.32017  0.75823  0.66151  1.0000
  H   H220      1.0  0.32869  0.96143  0.69953  1.0000
  H   H221      1.0  0.30459  0.50257  0.59550  1.0000
  C   C241      1.0  0.01475  0.50289  0.95404  1.0000
  C   C242      1.0  0.00005  0.76392  0.96473  1.0000
  C   C243      1.0  0.23948  0.86035  0.92536  1.0000
  C   C244      1.0  0.24212  0.85057  0.88734  1.0000
  C   C245      1.0  0.25722  0.85399  0.86853  1.0000
  C   C246      1.0  0.27005  0.86739  0.88739  1.0000
  C   C247      1.0  0.26741  0.87713  0.92541  1.0000
  C   C248      1.0  0.25233  0.87361  0.94427  1.0000
  H   H222      1.0  0.23237  0.84022  0.87224  1.0000
  H   H223      1.0  0.25891  0.84626  0.83940  1.0000
  H   H224      1.0  0.27713  0.88762  0.94044  1.0000
  C   C249      1.0  0.01594  0.97367  0.94164  1.0000
  H   H225      1.0  0.26245  0.66186  0.59094  1.0000
  H   H226      1.0  0.00073  0.89455  0.82545  1.0000
  H   H227      1.0  0.25326  0.94903  0.72017  1.0000
  C   C250      1.0  0.02861  0.70083  0.93016  1.0000
  C   C251      1.0  0.25799  0.65746  0.56130  1.0000
  S   S90       1.0  0.32617  0.85586  0.70927  1.0000
  H   H228      1.0  0.00070  0.72837  0.86999  1.0000
  S   S91       1.0  0.31885  0.82731  0.79440  1.0000
  C   C252      1.0  0.30932  0.51400  0.65450  1.0000
  C   C253      1.0  0.26132  0.94493  0.74411  1.0000
  C   C254      1.0  0.29918  0.71370  0.64429  1.0000
  H   H229      1.0  0.04439  0.76471  0.91068  1.0000
  S   S92       1.0  0.04156  0.86692  0.97810  1.0000
  C   C255      1.0  0.03625  0.74697  0.90871  1.0000
  H   H230      1.0  0.24540  0.66528  0.55930  1.0000
  H   H231      1.0  0.29093  0.92897  0.82692  1.0000
  S   S93       1.0  0.26971  0.60282  0.48886  1.0000
  S   S94       1.0  0.32113  0.68790  0.59340  1.0000
  N   N20       1.0  0.01651  0.60379  0.51328  1.0000
  C   C256      1.0  0.32451  0.82104  0.60687  1.0000
  C   C257      1.0  0.28270  0.68215  0.54123  1.0000
  S   S95       1.0  0.01450  0.87797  0.64524  1.0000
  H   H232      1.0  0.29101  0.69660  0.63835  1.0000
  H   H233      1.0  0.27692  0.85098  0.61733  1.0000
  H   H234      1.0  0.24534  0.91540  0.77181  1.0000
  C   C258      1.0  0.00377  0.51749  0.97775  1.0000
  C   C259      1.0  0.30872  0.82409  0.62062  1.0000
  S   S96       1.0  0.00595  0.92267  0.97273  1.0000
  H   H235      1.0  0.28404  0.87319  0.65619  1.0000
  N   N21       1.0  0.02263  0.74846  0.88662  1.0000
  H   H236      1.0  0.22696  0.76296  0.94646  1.0000
  C   C260      1.0  0.29418  0.73601  0.66851  1.0000
  H   H237      1.0  0.31402  0.51793  0.71548  1.0000
  C   C261      1.0  0.29679  0.97219  0.64004  1.0000
  H   H238      1.0  0.28213  0.73581  0.68064  1.0000
  N   N22       1.0  0.28671  0.95279  0.77575  1.0000
  H   H239      1.0  0.26437  0.90561  0.82530  1.0000
  H   H240      1.0  0.25190  0.65985  0.48625  1.0000
  H   H241      1.0  0.04197  0.60724  0.52258  1.0000
  H   H242      1.0  0.28577  0.96229  0.63038  1.0000
  C   C262      1.0  0.28259  0.93394  0.80379  1.0000
  C   C263      1.0  0.01184  0.72675  0.88613  1.0000
  H   H243      1.0  0.03246  0.73887  0.49863  1.0000
  N   N23       1.0  0.26814  0.67052  0.53163  1.0000
  C   C264      1.0  0.01469  0.70258  0.90777  1.0000
  H   H244      1.0  0.30174  0.80553  0.62747  1.0000
  C   C265      1.0  0.28576  0.85278  0.64121  1.0000
  H   H245      1.0  0.03009  0.78228  0.85069  1.0000
  H   H246      1.0  0.01331  0.91641  0.79673  1.0000
  C   C266      1.0  0.12834  0.86807  0.96079  1.0000
  H   H247      1.0  0.25792  0.63436  0.55704  1.0000
  H   H248      1.0  0.14019  0.87694  0.95591  1.0000
  N   N24       1.0  0.30222  0.85010  0.62604  1.0000
  C   C267      1.0  0.31080  0.87350  0.61607  1.0000
  H   H249      1.0  0.30549  0.89410  0.61902  1.0000
  C   C268      1.0  0.02023  0.73984  0.48784  1.0000
  C   C269      1.0  0.00292  0.83680  0.74464  1.0000
  H   H250      1.0  0.99834  0.78288  0.94830  1.0000
  C   C270      1.0  0.26321  0.66987  0.49398  1.0000
  H   H251      1.0  0.23544  0.79711  0.93954  1.0000
  S   S97       1.0  0.00098  0.86915  0.53594  1.0000
  C   C271      1.0  0.00450  0.95920  0.96373  1.0000
  H   H252      1.0  0.21439  0.79381  0.95132  1.0000
  H   H253      1.0  0.04998  0.72260  0.94930  1.0000
  H   H254      1.0  0.32844  0.77503  0.66835  1.0000
  C   C272      1.0  0.03182  0.59235  0.52727  1.0000
  C   C273      1.0  0.00009  0.64305  0.49543  1.0000
  H   H255      1.0  0.30231  0.98726  0.76331  1.0000
  C   C274      1.0  0.00696  0.97184  0.49339  1.0000
  H   H256      1.0  0.31126  0.95311  0.75896  1.0000
  H   H257      1.0  0.00581  0.68586  0.90859  1.0000
  C   C275      1.0  0.01463  0.63207  0.50905  1.0000
  H   H258      1.0  0.27988  0.97233  0.72296  1.0000
  H   H259      1.0  0.30441  0.70217  0.52057  1.0000
  H   H260      1.0  0.00976  0.77125  0.84306  1.0000
  H   H261      1.0  0.99880  0.66542  0.49136  1.0000
  C   C276      1.0  0.00297  0.84565  0.70587  1.0000
  C   C277      1.0  0.00052  0.91229  0.80472  1.0000
  C   C278      1.0  0.01042  0.76303  0.49783  1.0000
  H   H262      1.0  0.08555  0.83670  0.97810  1.0000
  H   H263      1.0  0.32970  0.80034  0.60340  1.0000
  C   C279      1.0  0.32668  0.87126  0.60260  1.0000
  C   C280      1.0  0.46629  0.15837  0.98580  1.0000
  Fe  Fe45      1.0  0.44813  0.10465  0.43748  1.0000
  H   H264      1.0  0.52355  0.46176  0.39489  1.0000
  Fe  Fe46      1.0  0.46900  0.10700  0.36306  1.0000
  S   S98       1.0  0.49066  0.12408  0.39397  1.0000
  S   S99       1.0  0.46857  0.09616  0.29882  1.0000
  Fe  Fe47      1.0  0.48443  0.09191  0.43935  1.0000
  H   H265      1.0  0.54934  0.42498  0.38387  1.0000
  Fe  Fe48      1.0  0.47300  0.15203  0.42509  1.0000
  S   S100      1.0  0.47475  0.19967  0.42889  1.0000
  S   S101      1.0  0.46385  0.07311  0.40659  1.0000
  S   S102      1.0  0.45143  0.13694  0.39094  1.0000
  S   S103      1.0  0.63963  0.14530  0.13076  1.0000
  H   H266      1.0  0.52585  0.35295  0.99432  1.0000
  Fe  Fe49      1.0  0.51660  0.07958  0.03406  1.0000
  N   N25       1.0  0.52257  0.02802  0.37301  1.0000
  H   H267      1.0  0.65896  0.18801  0.09194  1.0000
  Fe  Fe50      1.0  0.52217  0.11746  0.10580  1.0000
  S   S104      1.0  0.54106  0.14349  0.07517  1.0000
  S   S105      1.0  0.52051  0.12882  0.17005  1.0000
  Fe  Fe51      1.0  0.52424  0.14284  0.02395  1.0000
  C   C281      1.0  0.49268  0.24836  0.99912  1.0000
  Fe  Fe52      1.0  0.55068  0.10237  0.05399  1.0000
  S   S106      1.0  0.57699  0.08758  0.05720  1.0000
  S   S107      1.0  0.50467  0.11952  0.05591  1.0000
  S   S108      1.0  0.53254  0.07620  0.08665  1.0000
  C   C282      1.0  0.62243  0.12861  0.11023  1.0000
  C   C283      1.0  0.60854  0.14473  0.10306  1.0000
  C   C284      1.0  0.59457  0.13260  0.08682  1.0000
  C   C285      1.0  0.59436  0.10417  0.07710  1.0000
  C   C286      1.0  0.60836  0.08819  0.08353  1.0000
  C   C287      1.0  0.62227  0.10023  0.10029  1.0000
  H   H268      1.0  0.60857  0.16678  0.11025  1.0000
  H   H269      1.0  0.58401  0.14527  0.08148  1.0000
  H   H270      1.0  0.60838  0.06621  0.07591  1.0000
  H   H271      1.0  0.63286  0.08756  0.10538  1.0000
  C   C288      1.0  0.48373  0.10364  0.26395  1.0000
  C   C289      1.0  0.49794  0.11785  0.27355  1.0000
  C   C290      1.0  0.50919  0.12485  0.24449  1.0000
  C   C291      1.0  0.50642  0.11767  0.20560  1.0000
  C   C292      1.0  0.49237  0.10299  0.19614  1.0000
  C   C293      1.0  0.48109  0.09605  0.22519  1.0000
  H   H272      1.0  0.50009  0.12408  0.30313  1.0000
  H   H273      1.0  0.52001  0.13626  0.25210  1.0000
  H   H274      1.0  0.49006  0.09735  0.16637  1.0000
  H   H275      1.0  0.47014  0.08506  0.21744  1.0000
  H   H276      1.0  0.55292  0.15204  0.17774  1.0000
  C   C294      1.0  0.48956  0.22086  0.45188  1.0000
  H   H277      1.0  0.45980  0.12071  0.01645  1.0000
  H   H278      1.0  0.53604  0.03962  0.42306  1.0000
  C   C295      1.0  0.50256  0.05755  0.34409  1.0000
  H   H279      1.0  0.40649  0.12030  0.41502  1.0000
  S   S109      1.0  0.42603  0.09033  0.47240  1.0000
  H   H280      1.0  0.37699  0.12968  0.41192  1.0000
  C   C296      1.0  0.49545  0.01444  0.43596  1.0000
  H   H281      1.0  0.57174  0.16749  0.19173  1.0000
  H   H282      1.0  0.48670  0.02571  0.41900  1.0000
  C   C297      1.0  0.51697  0.00565  0.35217  1.0000
  H   H283      1.0  0.47481  0.42241  0.05948  1.0000
  C   C298      1.0  0.50075  0.01220  0.98517  1.0000
  C   C299      1.0  0.62573  0.37974  0.44177  1.0000
  C   C300      1.0  0.63005  0.35365  0.45675  1.0000
  H   H284      1.0  0.55229  0.40718  0.42887  1.0000
  S   S110      1.0  0.64994  0.33978  0.45179  1.0000
  C   C301      1.0  0.50075  0.22254  0.00451  1.0000
  H   H285      1.0  0.45489  0.15923  0.30128  1.0000
  H   H286      1.0  0.53675  0.00327  0.41124  1.0000
  H   H287      1.0  0.49272  0.18143  0.22195  1.0000
  C   C302      1.0  0.59832  0.37494  0.46838  1.0000
  C   C303      1.0  0.49037  0.36455  0.01576  1.0000
  H   H288      1.0  0.56514  0.05904  0.14312  1.0000
  H   H289      1.0  0.49978  0.21168  0.03177  1.0000
  C   C304      1.0  0.37133  0.10848  0.46520  1.0000
  H   H290      1.0  0.59377  0.05303  0.16279  1.0000
  H   H291      1.0  0.66094  0.08161  0.01410  1.0000
  H   H292      1.0  0.51989  0.07149  0.38593  1.0000
  H   H293      1.0  0.48558  0.25703  0.02252  1.0000
  N   N26       1.0  0.57338  0.12550  0.17056  1.0000
  C   C305      1.0  0.56474  0.10300  0.15749  1.0000
  C   C306      1.0  0.58919  0.12247  0.18113  1.0000
  C   C307      1.0  0.57186  0.07655  0.15501  1.0000
  C   C308      1.0  0.59667  0.09628  0.17923  1.0000
  C   C309      1.0  0.58794  0.07322  0.16592  1.0000
  C   C310      1.0  0.56598  0.15333  0.17032  1.0000
  H   H294      1.0  0.55237  0.10556  0.14808  1.0000
  C   C311      1.0  0.50385  0.00869  0.32714  1.0000
  H   H295      1.0  0.50035  0.44242  0.03350  1.0000
  C   C312      1.0  0.66243  0.18792  0.06087  1.0000
  H   H296      1.0  0.47796  0.25927  0.43492  1.0000
  H   H297      1.0  0.60936  0.09416  0.18639  1.0000
  S   S111      1.0  0.49944  0.04590  0.00843  1.0000
  H   H298      1.0  0.59630  0.14048  0.18986  1.0000
  C   C313      1.0  0.64770  0.14680  0.03753  1.0000
  C   C314      1.0  0.49825  0.44834  0.46760  1.0000
  H   H299      1.0  0.65464  0.38777  0.27296  1.0000
  C   C315      1.0  0.51560  0.05379  0.36909  1.0000
  H   H300      1.0  0.60684  0.41054  0.43604  1.0000
  C   C316      1.0  0.49753  0.42043  0.02923  1.0000
  S   S112      1.0  0.53566  0.35534  0.46407  1.0000
  S   S113      1.0  0.35043  0.11672  0.46221  1.0000
  C   C317      1.0  0.53654  0.02459  0.39845  1.0000
  H   H301      1.0  0.63452  0.39183  0.42575  1.0000
  H   H302      1.0  0.53229  0.41065  0.41028  1.0000
  C   C318      1.0  0.50273  0.20941  0.47138  1.0000
  H   H303      1.0  0.48615  0.45378  0.41310  1.0000
  C   C319      1.0  0.48319  0.40920  0.04364  1.0000
  C   C320      1.0  0.40503  0.09759  0.46843  1.0000
  S   S114      1.0  0.57872  0.38969  0.47530  1.0000
  H   H304      1.0  0.65621  0.43625  0.24733  1.0000
  H   H305      1.0  0.56717  0.16263  0.14107  1.0000
  C   C321      1.0  0.47961  0.38103  0.03717  1.0000
  H   H306      1.0  0.37649  0.18119  0.46976  1.0000
  C   C322      1.0  0.49663  0.03488  0.32310  1.0000
  C   C323      1.0  0.54412  0.42149  0.41299  1.0000
  H   H307      1.0  0.63547  0.10897  0.01985  1.0000
  N   N27       1.0  0.50415  0.37599  0.00066  1.0000
  H   H308      1.0  0.63652  0.15827  0.04133  1.0000
  C   C324      1.0  0.46765  0.13003  0.99490  1.0000
  C   C325      1.0  0.50493  0.02872  0.46290  1.0000
  C   C326      1.0  0.50799  0.40335  0.00792  1.0000
  S   S115      1.0  0.50312  0.41284  0.45789  1.0000
  C   C327      1.0  0.38183  0.11802  0.43596  1.0000
  C   C328      1.0  0.61841  0.33836  0.47764  1.0000
  C   C329      1.0  0.60999  0.39031  0.44768  1.0000
  N   N28       1.0  0.48729  0.20129  0.31515  1.0000
  C   C330      1.0  0.49429  0.19930  0.27937  1.0000
  C   C331      1.0  0.47326  0.18727  0.32304  1.0000
  C   C332      1.0  0.48702  0.18346  0.25012  1.0000
  C   C333      1.0  0.46576  0.17100  0.29462  1.0000
  H   H309      1.0  0.46714  0.15616  0.23590  1.0000
  C   C334      1.0  0.49510  0.21751  0.34590  1.0000
  H   H310      1.0  0.50562  0.20981  0.27328  1.0000
  H   H311      1.0  0.46785  0.18845  0.35154  1.0000
  H   H312      1.0  0.48642  0.03773  0.30388  1.0000
  N   N29       1.0  0.54205  0.44826  0.43315  1.0000
  C   C335      1.0  0.39858  0.11277  0.43764  1.0000
  H   H313      1.0  0.50482  0.23135  0.33475  1.0000
  H   H314      1.0  0.48614  0.23107  0.36091  1.0000
  H   H315      1.0  0.50037  0.20314  0.36769  1.0000
  C   C336      1.0  0.48635  0.49247  0.44557  1.0000
  H   H316      1.0  0.50403  0.18694  0.47317  1.0000
  C   C337      1.0  0.47264  0.16929  0.25789  1.0000
  C   C338      1.0  0.48986  0.46388  0.43964  1.0000
  C   C339      1.0  0.48811  0.25017  0.44986  1.0000
  H   H317      1.0  0.49698  0.07788  0.34111  1.0000
  H   H318      1.0  0.49834  0.29037  0.46558  1.0000
  H   H319      1.0  0.46845  0.37207  0.04798  1.0000
  H   H320      1.0  0.54787  0.02806  0.38197  1.0000
  S   S116      1.0  0.53540  0.10306  0.99998  1.0000
  C   C340      1.0  0.64703  0.11882  0.02560  1.0000
  C   C341      1.0  0.66129  0.10348  0.02256  1.0000
  C   C342      1.0  0.55118  0.45459  0.46488  1.0000
  C   C343      1.0  0.49964  0.26789  0.46726  1.0000
  S   S117      1.0  0.46866  0.12152  0.47331  1.0000
  S   S118      1.0  0.50354  0.06539  0.46889  1.0000
  C   C344      1.0  0.53103  0.46704  0.41951  1.0000
  H   H321      1.0  0.45741  0.17136  0.00032  1.0000
  H   H322      1.0  0.51888  0.41247  0.99576  1.0000
  N   N30       1.0  0.66216  0.15914  0.04612  1.0000
  H   H323      1.0  0.56002  0.43983  0.47560  1.0000
  H   H324      1.0  0.34009  0.06668  0.42034  1.0000
  H   H325      1.0  0.65383  0.20126  0.04473  1.0000
  H   H326      1.0  0.48739  0.34276  0.01039  1.0000
  H   H327      1.0  0.65738  0.10693  0.33345  1.0000
  H   H328      1.0  0.48054  0.09188  0.98406  1.0000
  C   C345      1.0  0.52880  0.49284  0.43795  1.0000
  H   H329      1.0  0.52665  0.00982  0.98314  1.0000
  H   H330      1.0  0.66225  0.49245  0.30737  1.0000
  S   S119      1.0  0.36294  0.34260  0.78773  1.0000
  C   C346      1.0  0.48639  0.99795  0.97532  1.0000
  Fe  Fe53      1.0  0.48635  0.39289  0.89940  1.0000
  S   S120      1.0  0.49841  0.35271  0.87920  1.0000
  S   S121      1.0  0.50337  0.42800  0.92122  1.0000
  Fe  Fe54      1.0  0.45224  0.36927  0.88120  1.0000
  S   S122      1.0  0.46200  0.32770  0.86197  1.0000
  S   S123      1.0  0.42573  0.38358  0.88096  1.0000
  Fe  Fe55      1.0  0.47910  0.32984  0.91267  1.0000
  S   S124      1.0  0.48343  0.29602  0.95940  1.0000
  Fe  Fe56      1.0  0.48066  0.35330  0.82983  1.0000
  S   S125      1.0  0.48244  0.34189  0.76573  1.0000
  S   S126      1.0  0.46779  0.37004  0.93487  1.0000
  S   S127      1.0  0.47017  0.39485  0.84722  1.0000
  C   C347      1.0  0.54902  0.47995  0.48451  1.0000
  C   C348      1.0  0.51547  0.99937  0.97592  1.0000
  Fe  Fe57      1.0  0.53305  0.37026  0.57421  1.0000
  S   S128      1.0  0.51176  0.35414  0.54073  1.0000
  S   S129      1.0  0.53415  0.37865  0.63906  1.0000
  H   H331      1.0  0.39843  0.13805  0.56426  1.0000
  H   H332      1.0  0.36861  0.38950  0.84199  1.0000
  N   N31       1.0  0.36202  0.17714  0.52051  1.0000
  N   N32       1.0  0.48977  0.12562  0.95025  1.0000
  S   S130      1.0  0.55085  0.33997  0.54824  1.0000
  S   S131      1.0  0.53938  0.40381  0.53113  1.0000
  H   H333      1.0  0.48096  0.03758  0.54372  1.0000
  H   H334      1.0  0.36218  0.29106  0.74196  1.0000
  H   H335      1.0  0.40019  0.15750  0.49810  1.0000
  C   C349      1.0  0.46738  0.01045  0.50613  1.0000
  H   H336      1.0  0.52795  0.46667  0.94612  1.0000
  H   H337      1.0  0.34378  0.46861  0.58618  1.0000
  C   C350      1.0  0.38931  0.16049  0.51518  1.0000
  C   C351      1.0  0.47654  0.17000  0.95813  1.0000
  H   H338      1.0  0.47582  0.19213  0.95123  1.0000
  H   H339      1.0  0.35515  0.25615  0.69106  1.0000
  C   C352      1.0  0.34895  0.25590  0.71868  1.0000
  C   C353      1.0  0.51111  0.22566  0.93951  1.0000
  C   C354      1.0  0.50301  0.25143  0.93410  1.0000
  H   H340      1.0  0.51829  0.21709  0.91618  1.0000
  H   H341      1.0  0.50404  0.26234  0.90687  1.0000
  C   C355      1.0  0.50217  0.46047  0.94742  1.0000
  C   C356      1.0  0.66245  0.38783  0.51909  1.0000
  H   H342      1.0  0.39317  0.40434  0.87785  1.0000
  H   H343      1.0  0.39933  0.07599  0.52134  1.0000
  H   H344      1.0  0.47638  0.46093  0.95454  1.0000
  H   H345      1.0  0.34531  0.47293  0.65712  1.0000
  H   H346      1.0  0.48993  0.27007  0.63568  1.0000
  H   H347      1.0  0.51906  0.37074  0.95114  1.0000
  C   C357      1.0  0.49642  0.35455  0.73102  1.0000
  C   C358      1.0  0.49306  0.35054  0.69159  1.0000
  C   C359      1.0  0.50428  0.35848  0.66296  1.0000
  C   C360      1.0  0.51903  0.37046  0.67357  1.0000
  C   C361      1.0  0.52222  0.37504  0.71297  1.0000
  C   C362      1.0  0.51096  0.36723  0.74160  1.0000
  H   H348      1.0  0.48182  0.34079  0.68307  1.0000
  H   H349      1.0  0.50166  0.35489  0.63275  1.0000
  H   H350      1.0  0.53357  0.38442  0.72144  1.0000
  H   H351      1.0  0.51370  0.37047  0.77182  1.0000
  H   H352      1.0  0.46026  0.02736  0.49401  1.0000
  C   C363      1.0  0.49375  0.26313  0.96396  1.0000
  H   H353      1.0  0.34990  0.16877  0.57367  1.0000
  H   H354      1.0  0.34737  0.29073  0.80422  1.0000
  H   H355      1.0  0.55290  0.32424  0.63046  1.0000
  C   C364      1.0  0.34789  0.19023  0.50278  1.0000
  C   C365      1.0  0.51511  0.35889  0.97715  1.0000
  C   C366      1.0  0.50238  0.10870  0.93182  1.0000
  C   C367      1.0  0.48756  0.47177  0.96062  1.0000
  C   C368      1.0  0.38014  0.35445  0.81435  1.0000
  C   C369      1.0  0.39478  0.33965  0.81069  1.0000
  C   C370      1.0  0.40875  0.34798  0.83109  1.0000
  C   C371      1.0  0.40831  0.37135  0.85553  1.0000
  C   C372      1.0  0.39370  0.38620  0.85911  1.0000
  C   C373      1.0  0.37971  0.37785  0.83873  1.0000
  H   H356      1.0  0.39529  0.32145  0.79208  1.0000
  H   H357      1.0  0.41981  0.33615  0.82819  1.0000
  C   C374      1.0  0.37777  0.09334  0.49600  1.0000
  Fe  Fe58      1.0  0.33023  0.10950  0.50654  1.0000
  H   H358      1.0  0.50914  0.33944  0.96663  1.0000
  H   H359      1.0  0.34429  0.48814  0.52420  1.0000
  N   N33       1.0  0.44565  0.39111  0.76355  1.0000
  C   C375      1.0  0.45946  0.40112  0.74674  1.0000
  C   C376      1.0  0.43655  0.40799  0.78696  1.0000
  C   C377      1.0  0.46453  0.42864  0.75342  1.0000
  C   C378      1.0  0.44126  0.43558  0.79440  1.0000
  C   C379      1.0  0.45538  0.44591  0.77755  1.0000
  C   C380      1.0  0.44114  0.36163  0.75893  1.0000
  H   H360      1.0  0.46683  0.38769  0.72861  1.0000
  H   H361      1.0  0.42573  0.39999  0.80070  1.0000
  H   H362      1.0  0.47567  0.43621  0.74060  1.0000
  H   H363      1.0  0.43418  0.44850  0.81392  1.0000
  H   H364      1.0  0.45935  0.46710  0.78366  1.0000
  H   H365      1.0  0.44676  0.35227  0.73271  1.0000
  H   H366      1.0  0.44540  0.34962  0.78438  1.0000
  H   H367      1.0  0.42784  0.35926  0.75650  1.0000
  C   C381      1.0  0.35286  0.27551  0.74710  1.0000
  H   H368      1.0  0.49642  0.16256  0.91962  1.0000
  H   H369      1.0  0.50939  0.44994  0.52360  1.0000
  C   C382      1.0  0.39450  0.08785  0.49746  1.0000
  S   S132      1.0  0.52757  0.27764  0.50997  1.0000
  H   H370      1.0  0.36989  0.08582  0.51869  1.0000
  H   H371      1.0  0.55732  0.29591  0.66335  1.0000
  C   C383      1.0  0.47893  0.01617  0.53430  1.0000
  H   H372      1.0  0.52371  0.02464  0.50548  1.0000
  Fe  Fe59      1.0  0.55549  0.37194  0.50215  1.0000
  Fe  Fe60      1.0  0.51939  0.38574  0.49554  1.0000
  C   C384      1.0  0.51014  0.21101  0.97477  1.0000
  H   H373      1.0  0.33353  0.22157  0.70322  1.0000
  H   H374      1.0  0.54874  0.32870  0.68032  1.0000
  Fe  Fe61      1.0  0.52975  0.32535  0.51215  1.0000
  N   N34       1.0  0.53248  0.30139  0.65077  1.0000
  C   C385      1.0  0.52211  0.29920  0.68146  1.0000
  C   C386      1.0  0.52807  0.29166  0.61511  1.0000
  C   C387      1.0  0.50668  0.28780  0.67659  1.0000
  C   C388      1.0  0.51271  0.28034  0.60914  1.0000
  C   C389      1.0  0.50194  0.27853  0.64008  1.0000
  C   C390      1.0  0.54870  0.31292  0.65661  1.0000
  H   H375      1.0  0.52554  0.30707  0.70970  1.0000
  H   H376      1.0  0.53638  0.29273  0.59088  1.0000
  H   H377      1.0  0.49835  0.28695  0.70083  1.0000
  H   H378      1.0  0.50920  0.27313  0.58058  1.0000
  H   H379      1.0  0.33947  0.19873  0.52497  1.0000
  C   C391      1.0  0.50294  0.46161  0.50182  1.0000
  H   H380      1.0  0.52436  0.21807  0.50396  1.0000
  C   C392      1.0  0.33669  0.23641  0.72576  1.0000
  C   C393      1.0  0.51654  0.47508  0.95598  1.0000
  H   H381      1.0  0.59384  0.33675  0.49930  1.0000
  C   C394      1.0  0.34448  0.27541  0.78207  1.0000
  H   H382      1.0  0.37299  0.14360  0.60220  1.0000
  H   H383      1.0  0.55595  0.48449  0.51030  1.0000
  C   C395      1.0  0.36098  0.16665  0.55714  1.0000
  C   C396      1.0  0.37405  0.15254  0.57355  1.0000
  C   C397      1.0  0.37589  0.17397  0.49938  1.0000
  Fe  Fe62      1.0  0.33621  0.35447  0.77837  1.0000
  H   H384      1.0  0.51393  0.12061  0.93072  1.0000
  H   H385      1.0  0.49748  0.99906  0.57023  1.0000
  C   C398      1.0  0.48817  0.15314  0.94028  1.0000
  C   C399      1.0  0.38830  0.14950  0.55236  1.0000
  H   H386      1.0  0.62159  0.31820  0.48946  1.0000
  H   H387      1.0  0.64971  0.38357  0.51465  1.0000
  H   H388      1.0  0.50480  0.08918  0.94828  1.0000
  C   C400      1.0  0.51424  0.22714  0.48885  1.0000
  H   H389      1.0  0.49870  0.10288  0.90208  1.0000
  C   C401      1.0  0.51278  0.25645  0.48691  1.0000
  S   S133      1.0  0.52049  0.17816  0.97926  1.0000
  C   C402      1.0  0.47946  0.11381  0.97652  1.0000
  C   C403      1.0  0.34616  0.48897  0.59886  1.0000
  S   S134      1.0  0.33232  0.11455  0.57051  1.0000
  H   H390      1.0  0.33592  0.00849  0.67440  1.0000
  C   C404      1.0  0.49927  0.49007  0.50796  1.0000
  C   C405      1.0  0.33202  0.25610  0.78783  1.0000
  C   C406      1.0  0.51628  0.01370  0.48466  1.0000
  C   C407      1.0  0.60263  0.34883  0.48328  1.0000
  H   H391      1.0  0.65985  0.43254  0.51522  1.0000
  C   C408      1.0  0.34710  0.49123  0.63909  1.0000
  H   H392      1.0  0.47490  0.00746  0.98219  1.0000
  H   H393      1.0  0.34128  0.17444  0.48531  1.0000
  H   H394      1.0  0.35151  0.20790  0.48389  1.0000
  H   H395      1.0  0.63741  0.85952  0.47998  1.0000
  Fe  Fe63      1.0  0.44796  0.61595  0.43925  1.0000
  H   H396      1.0  0.56903  0.82551  0.45290  1.0000
  Fe  Fe64      1.0  0.47281  0.60697  0.37431  1.0000
  S   S135      1.0  0.49385  0.60367  0.41523  1.0000
  S   S136      1.0  0.47162  0.60051  0.30895  1.0000
  Fe  Fe65      1.0  0.47728  0.57655  0.45080  1.0000
  C   C409      1.0  0.49107  0.50572  0.47983  1.0000
  Fe  Fe66      1.0  0.48253  0.64038  0.44636  1.0000
  C   C410      1.0  0.50561  0.76709  0.46341  1.0000
  S   S137      1.0  0.45674  0.57740  0.40814  1.0000
  S   S138      1.0  0.46268  0.64569  0.40285  1.0000
  S   S139      1.0  0.64239  0.63428  0.13772  1.0000
  S   S140      1.0  0.63915  0.87247  0.39667  1.0000
  Fe  Fe67      1.0  0.51771  0.57914  0.03936  1.0000
  C   C411      1.0  0.51499  0.82465  0.98767  1.0000
  H   H397      1.0  0.56585  0.55517  0.12928  1.0000
  Fe  Fe68      1.0  0.52410  0.61596  0.11158  1.0000
  S   S141      1.0  0.54295  0.64190  0.08073  1.0000
  S   S142      1.0  0.52350  0.62589  0.17629  1.0000
  Fe  Fe69      1.0  0.52567  0.64247  0.03035  1.0000
  H   H398      1.0  0.44086  0.58111  0.29918  1.0000
  Fe  Fe70      1.0  0.55214  0.60095  0.05798  1.0000
  S   S143      1.0  0.57828  0.58494  0.05888  1.0000
  S   S144      1.0  0.50617  0.61905  0.06258  1.0000
  S   S145      1.0  0.53410  0.57481  0.09089  1.0000
  C   C412      1.0  0.62508  0.62032  0.11372  1.0000
  C   C413      1.0  0.62426  0.59266  0.10045  1.0000
  C   C414      1.0  0.60998  0.58245  0.08310  1.0000
  C   C415      1.0  0.59622  0.59952  0.07923  1.0000
  C   C416      1.0  0.59706  0.62721  0.09232  1.0000
  C   C417      1.0  0.61142  0.63755  0.10910  1.0000
  H   H399      1.0  0.63464  0.57916  0.10351  1.0000
  H   H400      1.0  0.60957  0.56107  0.07279  1.0000
  H   H401      1.0  0.58666  0.64070  0.08942  1.0000
  H   H402      1.0  0.61190  0.65901  0.11902  1.0000
  C   C418      1.0  0.48640  0.60726  0.27272  1.0000
  C   C419      1.0  0.50116  0.62008  0.28111  1.0000
  C   C420      1.0  0.51234  0.62551  0.25121  1.0000
  C   C421      1.0  0.50897  0.61810  0.21267  1.0000
  C   C422      1.0  0.49425  0.60509  0.20433  1.0000
  C   C423      1.0  0.48303  0.59979  0.23420  1.0000
  H   H403      1.0  0.50393  0.62598  0.31053  1.0000
  H   H404      1.0  0.52368  0.63561  0.25800  1.0000
  H   H405      1.0  0.49147  0.59928  0.17488  1.0000
  H   H406      1.0  0.47166  0.58987  0.22734  1.0000
  C   C424      1.0  0.50014  0.70898  0.47317  1.0000
  H   H407      1.0  0.47124  0.89625  0.04273  1.0000
  C   C425      1.0  0.49528  0.72224  0.43925  1.0000
  H   H408      1.0  0.65134  0.76180  0.40787  1.0000
  H   H409      1.0  0.48945  0.71024  0.41671  1.0000
  H   H410      1.0  0.55783  0.64373  0.18318  1.0000
  C   C426      1.0  0.54970  0.75438  0.47798  1.0000
  C   C427      1.0  0.50444  0.87224  0.99534  1.0000
  C   C428      1.0  0.59631  0.61957  0.19065  1.0000
  C   C429      1.0  0.57621  0.55597  0.14961  1.0000
  H   H411      1.0  0.64650  0.83432  0.33625  1.0000
  H   H412      1.0  0.58164  0.87645  0.43281  1.0000
  H   H413      1.0  0.53540  0.81365  0.40015  1.0000
  H   H414      1.0  0.55390  0.59584  0.15863  1.0000
  H   H415      1.0  0.66209  0.79789  0.24917  1.0000
  C   C430      1.0  0.62293  0.86992  0.43065  1.0000
  C   C431      1.0  0.60703  0.87447  0.41774  1.0000
  C   C432      1.0  0.59371  0.87251  0.44322  1.0000
  H   H416      1.0  0.52241  0.98514  0.35555  1.0000
  H   H417      1.0  0.60502  0.87984  0.38781  1.0000
  C   C433      1.0  0.64810  0.79981  0.37557  1.0000
  H   H418      1.0  0.58531  0.65941  0.20320  1.0000
  H   H419      1.0  0.64482  0.81236  0.40062  1.0000
  C   C434      1.0  0.50904  0.97057  0.45160  1.0000
  C   C435      1.0  0.45134  0.72314  0.47361  1.0000
  C   C436      1.0  0.54584  0.76814  0.44363  1.0000
  S   S146      1.0  0.51185  0.93470  0.44126  1.0000
  H   H420      1.0  0.57395  0.54141  0.17390  1.0000
  H   H421      1.0  0.64248  0.81362  0.25757  1.0000
  C   C437      1.0  0.65649  0.76869  0.31091  1.0000
  H   H422      1.0  0.49407  0.91339  0.00267  1.0000
  C   C438      1.0  0.56804  0.62953  0.18151  1.0000
  H   H423      1.0  0.45675  0.97855  0.47018  1.0000
  C   C439      1.0  0.65585  0.75571  0.34704  1.0000
  N   N35       1.0  0.55280  0.79328  0.43476  1.0000
  H   H424      1.0  0.60842  0.62625  0.19848  1.0000
  H   H425      1.0  0.49446  0.76113  0.40779  1.0000
  S   S147      1.0  0.50056  0.54469  0.01561  1.0000
  S   S148      1.0  0.50950  0.80301  0.45461  1.0000
  H   H426      1.0  0.48948  0.81258  0.03208  1.0000
  H   H427      1.0  0.60392  0.57850  0.17349  1.0000
  H   H428      1.0  0.48001  0.50423  0.42374  1.0000
  N   N36       1.0  0.42492  0.59576  0.34331  1.0000
  C   C440      1.0  0.41368  0.58860  0.37059  1.0000
  C   C441      1.0  0.43240  0.57548  0.32180  1.0000
  C   C442      1.0  0.41030  0.56048  0.37831  1.0000
  C   C443      1.0  0.42948  0.54716  0.32908  1.0000
  C   C444      1.0  0.41843  0.53965  0.35773  1.0000
  C   C445      1.0  0.64910  0.81218  0.33909  1.0000
  H   H429      1.0  0.40737  0.60469  0.38683  1.0000
  C   C446      1.0  0.56588  0.60235  0.16742  1.0000
  H   H430      1.0  0.39189  0.65638  0.47280  1.0000
  H   H431      1.0  0.43590  0.53122  0.31278  1.0000
  C   C447      1.0  0.49760  0.98555  0.43016  1.0000
  H   H432      1.0  0.44797  0.73734  0.45065  1.0000
  C   C448      1.0  0.59371  0.59256  0.17629  1.0000
  C   C449      1.0  0.58339  0.63821  0.19295  1.0000
  H   H433      1.0  0.49365  0.64358  0.98694  1.0000
  S   S149      1.0  0.49659  0.67290  0.48156  1.0000
  H   H434      1.0  0.47873  0.74774  0.01712  1.0000
  H   H435      1.0  0.49926  0.99083  0.31116  1.0000
  C   C450      1.0  0.47904  0.85322  0.04050  1.0000
  S   S150      1.0  0.42246  0.63244  0.45196  1.0000
  H   H436      1.0  0.42729  0.63789  0.36297  1.0000
  N   N37       1.0  0.65355  0.79675  0.30750  1.0000
  H   H437      1.0  0.44102  0.62817  0.32543  1.0000
  H   H438      1.0  0.55001  0.79294  0.37380  1.0000
  H   H439      1.0  0.46896  0.84535  0.05730  1.0000
  H   H440      1.0  0.65984  0.75631  0.28584  1.0000
  C   C451      1.0  0.62531  0.86309  0.46948  1.0000
  H   H441      1.0  0.53695  0.75887  0.42445  1.0000
  C   C452      1.0  0.65471  0.81040  0.26974  1.0000
  C   C453      1.0  0.49787  0.71814  0.00547  1.0000
  H   H442      1.0  0.65882  0.73369  0.34971  1.0000
  C   C454      1.0  0.56360  0.80543  0.45955  1.0000
  C   C455      1.0  0.50174  0.51196  0.99001  1.0000
  C   C456      1.0  0.49073  0.83477  0.02618  1.0000
  H   H443      1.0  0.41998  0.63363  0.31399  1.0000
  S   S151      1.0  0.53635  0.60274  0.00482  1.0000
  H   H444      1.0  0.40154  0.55495  0.40037  1.0000
  H   H445      1.0  0.51525  0.80470  0.00414  1.0000
  C   C457      1.0  0.48030  0.88169  0.03224  1.0000
  H   H446      1.0  0.43461  0.69075  0.45643  1.0000
  H   H447      1.0  0.58689  0.54887  0.13271  1.0000
  C   C458      1.0  0.49809  0.75112  0.43437  1.0000
  C   C459      1.0  0.42841  0.62534  0.33597  1.0000
  S   S152      1.0  0.53761  0.86592  0.45642  1.0000
  C   C460      1.0  0.54830  0.80729  0.39876  1.0000
  N   N38       1.0  0.57869  0.58443  0.16433  1.0000
  H   H448      1.0  0.49041  0.97475  0.40874  1.0000
  H   H449      1.0  0.49510  0.70523  0.03023  1.0000
  H   H450      1.0  0.41616  0.51776  0.36393  1.0000
  C   C461      1.0  0.49311  0.89132  0.00971  1.0000
  H   H451      1.0  0.55565  0.82640  0.39354  1.0000
  N   N39       1.0  0.50326  0.84439  0.00402  1.0000
  H   H452      1.0  0.41247  0.57414  0.46619  1.0000
  C   C462      1.0  0.65170  0.77147  0.37958  1.0000
  C   C463      1.0  0.40408  0.61668  0.46789  1.0000
  C   C464      1.0  0.39066  0.63393  0.47539  1.0000
  H   H453      1.0  0.51977  0.50743  0.42762  1.0000
  H   H454      1.0  0.66094  0.83095  0.27261  1.0000
  C   C465      1.0  0.48859  0.74240  0.99793  1.0000
  C   C466      1.0  0.51828  0.98469  0.47922  1.0000
  Fe  Fe71      1.0  0.52324  0.90201  0.48048  1.0000
  C   C467      1.0  0.40225  0.58769  0.47138  1.0000
  H   H455      1.0  0.47596  0.50577  0.99132  1.0000
  C   C468      1.0  0.53771  0.49914  0.47095  1.0000
  H   H456      1.0  0.52736  0.83361  0.98804  1.0000
  S   S153      1.0  0.52284  0.68006  0.98851  1.0000
  C   C469      1.0  0.59610  0.86575  0.48208  1.0000
  C   C470      1.0  0.38704  0.57616  0.48097  1.0000
  C   C471      1.0  0.44390  0.69704  0.47675  1.0000
  H   H457      1.0  0.52754  0.51138  0.98314  1.0000
  S   S154      1.0  0.36412  0.85225  0.77071  1.0000
  C   C472      1.0  0.49631  0.94477  0.55071  1.0000
  Fe  Fe72      1.0  0.48559  0.89034  0.90118  1.0000
  S   S155      1.0  0.49856  0.85001  0.88627  1.0000
  S   S156      1.0  0.50270  0.92518  0.92360  1.0000
  Fe  Fe73      1.0  0.45278  0.86539  0.87564  1.0000
  S   S157      1.0  0.46360  0.82376  0.85933  1.0000
  S   S158      1.0  0.42551  0.87477  0.87890  1.0000
  Fe  Fe74      1.0  0.47815  0.82648  0.91410  1.0000
  C   C473      1.0  0.46542  0.98308  0.49277  1.0000
  Fe  Fe75      1.0  0.48349  0.84955  0.83216  1.0000
  S   S159      1.0  0.49575  0.83321  0.77739  1.0000
  S   S160      1.0  0.46604  0.86678  0.93285  1.0000
  S   S161      1.0  0.47184  0.89122  0.84480  1.0000
  Fe  Fe76      1.0  0.55236  0.86868  0.51059  1.0000
  H   H458      1.0  0.44304  0.65830  0.50771  1.0000
  Fe  Fe77      1.0  0.52222  0.87708  0.56179  1.0000
  C   C474      1.0  0.51071  0.71074  0.98111  1.0000
  S   S162      1.0  0.51131  0.89412  0.61797  1.0000
  S   S163      1.0  0.57976  0.86235  0.51559  1.0000
  H   H459      1.0  0.36792  0.88189  0.84519  1.0000
  S   S164      1.0  0.48741  0.54177  0.48883  1.0000
  H   H460      1.0  0.42673  0.80951  0.84751  1.0000
  S   S165      1.0  0.53640  0.83865  0.54408  1.0000
  S   S166      1.0  0.53924  0.90714  0.53221  1.0000
  C   C475      1.0  0.51579  0.63179  0.91883  1.0000
  C   C476      1.0  0.34674  0.50988  0.53393  1.0000
  C   C477      1.0  0.47506  0.96174  0.50793  1.0000
  H   H461      1.0  0.46855  0.67658  0.58813  1.0000
  H   H462      1.0  0.50292  0.50009  0.53460  1.0000
  C   C478      1.0  0.51576  0.97296  0.95714  1.0000
  H   H463      1.0  0.52512  0.94155  0.73582  1.0000
  H   H464      1.0  0.53886  0.87455  0.69545  1.0000
  C   C479      1.0  0.34949  0.51746  0.65593  1.0000
  S   S167      1.0  0.50558  0.87406  0.51076  1.0000
  C   C480      1.0  0.61198  0.86095  0.49492  1.0000
  C   C481      1.0  0.50769  0.72495  0.50222  1.0000
  C   C482      1.0  0.50471  0.75228  0.94150  1.0000
  H   H465      1.0  0.34950  0.51972  0.68711  1.0000
  H   H466      1.0  0.50749  0.76515  0.91670  1.0000
  C   C483      1.0  0.50141  0.95876  0.94722  1.0000
  H   H467      1.0  0.47388  0.94065  0.49653  1.0000
  H   H468      1.0  0.39210  0.89010  0.88616  1.0000
  C   C484      1.0  0.35113  0.54097  0.63248  1.0000
  C   C485      1.0  0.37971  0.79441  0.82561  1.0000
  H   H469      1.0  0.52387  0.72270  0.92991  1.0000
  Fe  Fe78      1.0  0.33653  0.85871  0.76973  1.0000
  C   C486      1.0  0.56064  0.76666  0.50348  1.0000
  C   C487      1.0  0.49858  0.84986  0.73211  1.0000
  C   C488      1.0  0.50651  0.83513  0.70235  1.0000
  C   C489      1.0  0.50997  0.84798  0.66667  1.0000
  C   C490      1.0  0.50566  0.87587  0.66052  1.0000
  C   C491      1.0  0.49760  0.89055  0.69014  1.0000
  C   C492      1.0  0.49402  0.87761  0.72572  1.0000
  H   H470      1.0  0.51010  0.81365  0.70705  1.0000
  H   H471      1.0  0.51624  0.83648  0.64426  1.0000
  H   H472      1.0  0.49422  0.91215  0.68569  1.0000
  H   H473      1.0  0.48793  0.88919  0.74835  1.0000
  C   C493      1.0  0.36961  0.80699  0.85283  1.0000
  H   H474      1.0  0.50270  0.95068  0.57771  1.0000
  H   H475      1.0  0.55247  0.90254  0.70882  1.0000
  H   H476      1.0  0.35159  0.55625  0.57429  1.0000
  H   H477      1.0  0.61401  0.85573  0.52489  1.0000
  C   C494      1.0  0.51149  0.57463  0.92725  1.0000
  H   H478      1.0  0.53560  0.51865  0.48628  1.0000
  C   C495      1.0  0.39627  0.79255  0.83300  1.0000
  H   H479      1.0  0.46956  0.75061  0.49700  1.0000
  C   C496      1.0  0.38119  0.86186  0.79939  1.0000
  C   C497      1.0  0.39671  0.85379  0.78686  1.0000
  C   C498      1.0  0.41049  0.85848  0.81001  1.0000
  C   C499      1.0  0.40894  0.87126  0.84626  1.0000
  C   C500      1.0  0.39348  0.88005  0.85831  1.0000
  C   C501      1.0  0.37971  0.87547  0.83508  1.0000
  H   H480      1.0  0.39806  0.84342  0.75922  1.0000
  H   H481      1.0  0.42226  0.85183  0.80001  1.0000
  N   N40       1.0  0.53169  0.89890  0.74442  1.0000
  C   C502      1.0  0.53162  0.87666  0.76919  1.0000
  C   C503      1.0  0.52505  0.92391  0.75542  1.0000
  C   C504      1.0  0.52457  0.87900  0.80581  1.0000
  C   C505      1.0  0.51785  0.92694  0.79185  1.0000
  C   C506      1.0  0.51762  0.90429  0.81713  1.0000
  C   C507      1.0  0.53960  0.89636  0.70661  1.0000
  H   H482      1.0  0.53658  0.85664  0.76032  1.0000
  H   H483      1.0  0.42362  0.77935  0.87835  1.0000
  H   H484      1.0  0.52407  0.86097  0.82473  1.0000
  H   H485      1.0  0.51238  0.94663  0.80045  1.0000
  H   H486      1.0  0.51194  0.90629  0.84532  1.0000
  H   H487      1.0  0.53356  0.90970  0.68471  1.0000
  C   C508      1.0  0.37358  0.59343  0.48818  1.0000
  C   C509      1.0  0.51635  0.50054  0.97706  1.0000
  C   C510      1.0  0.51028  0.75390  0.49756  1.0000
  N   N41       1.0  0.40259  0.80318  0.86644  1.0000
  C   C511      1.0  0.50036  0.59365  0.94266  1.0000
  H   H488      1.0  0.51146  0.71486  0.52863  1.0000
  N   N42       1.0  0.50251  0.62182  0.93801  1.0000
  H   H489      1.0  0.53795  0.62142  0.88912  1.0000
  S   S168      1.0  0.33207  0.60787  0.58790  1.0000
  H   H490      1.0  0.40411  0.78345  0.81123  1.0000
  H   H491      1.0  0.49015  0.58569  0.95903  1.0000
  H   H492      1.0  0.50548  0.93894  0.52867  1.0000
  C   C512      1.0  0.39275  0.81534  0.89349  1.0000
  C   C513      1.0  0.37611  0.81739  0.88713  1.0000
  H   H493      1.0  0.39780  0.82448  0.91949  1.0000
  H   H494      1.0  0.35246  0.56160  0.64527  1.0000
  H   H495      1.0  0.47785  0.65648  0.54973  1.0000
  C   C514      1.0  0.46637  0.66606  0.55999  1.0000
  N   N43       1.0  0.34779  0.51217  0.57608  1.0000
  H   H496      1.0  0.56356  0.75646  0.53051  1.0000
  Fe  Fe79      1.0  0.33160  0.59670  0.52496  1.0000
  H   H497      1.0  0.47550  0.96110  0.94935  1.0000
  C   C515      1.0  0.49097  0.64129  0.95566  1.0000
  H   H498      1.0  0.53397  0.57003  0.89656  1.0000
  H   H499      1.0  0.42391  0.81436  0.89803  1.0000
  H   H500      1.0  0.50981  0.55233  0.93151  1.0000
  H   H501      1.0  0.57610  0.80226  0.51397  1.0000
  H   H502      1.0  0.48893  0.92595  0.55751  1.0000
  C   C516      1.0  0.52725  0.61336  0.90343  1.0000
  H   H503      1.0  0.35686  0.80963  0.84660  1.0000
  H   H504      1.0  0.37481  0.78732  0.79824  1.0000
  C   C517      1.0  0.51400  0.72805  0.94907  1.0000
  H   H505      1.0  0.47776  0.71726  0.54766  1.0000
  H   H506      1.0  0.51778  0.65414  0.91608  1.0000
  H   H507      1.0  0.36841  0.82796  0.90792  1.0000
  C   C518      1.0  0.46792  0.71176  0.52848  1.0000
  C   C519      1.0  0.56767  0.79232  0.49423  1.0000
  C   C520      1.0  0.49188  0.75968  0.96587  1.0000
  N   N44       1.0  0.48614  0.96745  0.53608  1.0000
  S   S169      1.0  0.47977  0.79037  0.95840  1.0000
  H   H508      1.0  0.33698  0.73673  0.62387  1.0000
  C   C521      1.0  0.35036  0.53789  0.59236  1.0000
  C   C522      1.0  0.42004  0.80136  0.87300  1.0000
  H   H509      1.0  0.51608  0.76594  0.52014  1.0000
  S   S170      1.0  0.35447  0.57764  0.49786  1.0000
  H   H510      1.0  0.45750  0.64897  0.56488  1.0000
  C   C523      1.0  0.48669  0.97150  0.95664  1.0000
  C   C524      1.0  0.52504  0.58459  0.90767  1.0000
  H   H511      1.0  0.51161  0.81948  0.95745  1.0000
  C   C525      1.0  0.37556  0.62244  0.48582  1.0000
  H   H512      1.0  0.52725  0.97342  0.49563  1.0000
  H   H513      1.0  0.33359  0.88997  0.59602  1.0000
  H   H514      1.0  0.51407  0.87987  0.97681  1.0000
  N   N45       1.0  0.46064  0.68614  0.53121  1.0000
  H   H515      1.0  0.36535  0.63603  0.49113  1.0000
  H   H516      1.0  0.52727  0.96349  0.95021  1.0000
  H   H517      1.0  0.35822  0.51708  0.52048  1.0000
  H   H518      1.0  0.34597  0.84278  0.58834  1.0000
  H   H519      1.0  0.49177  0.66245  0.94249  1.0000
  S   S171      1.0  0.46721  0.61305  0.48441  1.0000
  C   C526      1.0  0.46337  0.73068  0.49977  1.0000
  C   C527      1.0  0.48827  0.99429  0.54904  1.0000
  H   H520      1.0  0.33686  0.52343  0.52308  1.0000
  H   H521      1.0  0.47840  0.63366  0.95218  1.0000
  H   H522      1.0  0.54398  0.73458  0.48501  1.0000
  Fe  Fe80      1.0  0.52090  0.83806  0.49057  1.0000
  H   H523      1.0  0.38570  0.55370  0.48283  1.0000
  C   C528      1.0  0.33360  0.84483  0.59829  1.0000
  C   C529      1.0  0.44873  0.67869  0.50587  1.0000
  C   C530      1.0  0.48738  0.49727  0.98161  1.0000
  H   H524      1.0  0.98921  0.26961  0.41561  1.0000
  S   S172      1.0  0.96725  0.06750  0.02927  1.0000
  S   S173      1.0  0.66952  0.12165  0.21219  1.0000
  C   C531      1.0  0.99058  0.13318  0.21282  1.0000
  S   S174      1.0  0.96174  0.13106  0.06101  1.0000
  Fe  Fe81      1.0  0.67135  0.35600  0.41609  1.0000
  Fe  Fe82      1.0  0.97833  0.09516  0.07445  1.0000
  H   H525      1.0  0.70842  0.45286  0.29497  1.0000
  Fe  Fe83      1.0  0.95228  0.10472  0.01153  1.0000
  C   C532      1.0  0.67898  0.37748  0.25553  1.0000
  Fe  Fe84      1.0  0.70081  0.12112  0.12778  1.0000
  S   S175      1.0  0.70771  0.11239  0.19009  1.0000
  S   S176      1.0  0.71542  0.12349  0.07034  1.0000
  C   C533      1.0  0.67420  0.49187  0.29475  1.0000
  H   H526      1.0  0.98248  0.13149  0.15350  1.0000
  Fe  Fe85      1.0  0.69144  0.14915  0.20559  1.0000
  S   S177      1.0  0.69641  0.17859  0.25731  1.0000
  Fe  Fe86      1.0  0.68514  0.08562  0.19280  1.0000
  S   S178      1.0  0.67893  0.04350  0.22210  1.0000
  S   S179      1.0  0.68581  0.15918  0.14367  1.0000
  S   S180      1.0  0.67904  0.09225  0.12970  1.0000
  H   H527      1.0  0.69924  0.07512  0.27539  1.0000
  H   H528      1.0  0.99045  0.02628  0.42013  1.0000
  Fe  Fe87      1.0  0.70782  0.36978  0.42210  1.0000
  S   S181      1.0  0.70965  0.37765  0.35746  1.0000
  S   S182      1.0  0.92579  0.09207  0.00217  1.0000
  Fe  Fe88      1.0  0.68621  0.40122  0.36271  1.0000
  S   S183      1.0  0.67749  0.44257  0.33553  1.0000
  Fe  Fe89      1.0  0.69425  0.33854  0.35027  1.0000
  S   S184      1.0  0.69745  0.31060  0.29614  1.0000
  S   S185      1.0  0.68507  0.39573  0.42739  1.0000
  S   S186      1.0  0.69393  0.32930  0.41435  1.0000
  C   C534      1.0  0.68673  0.01594  0.25176  1.0000
  C   C535      1.0  0.94282  0.11840  0.16274  1.0000
  S   S187      1.0  0.67094  0.36280  0.35212  1.0000
  C   C536      1.0  0.68471  0.46982  0.30449  1.0000
  C   C537      1.0  0.67598  0.11627  0.03116  1.0000
  Fe  Fe90      1.0  0.98106  0.14464  0.01848  1.0000
  H   H529      1.0  0.97754  0.46926  0.48045  1.0000
  C   C538      1.0  0.68056  0.43140  0.22651  1.0000
  S   S188      1.0  0.72741  0.38173  0.46743  1.0000
  H   H530      1.0  0.98083  0.39492  0.01549  1.0000
  C   C539      1.0  0.69571  0.21547  0.26724  1.0000
  C   C540      1.0  0.69527  0.23568  0.23807  1.0000
  C   C541      1.0  0.69566  0.26453  0.24754  1.0000
  C   C542      1.0  0.69622  0.27376  0.28627  1.0000
  C   C543      1.0  0.69635  0.25354  0.31546  1.0000
  C   C544      1.0  0.69624  0.22469  0.30597  1.0000
  H   H531      1.0  0.69498  0.22911  0.20816  1.0000
  H   H532      1.0  0.89447  0.06887  0.98725  1.0000
  H   H533      1.0  0.69684  0.26012  0.34535  1.0000
  C   C545      1.0  0.99349  0.25921  0.44130  1.0000
  C   C546      1.0  0.76582  0.11687  0.01008  1.0000
  C   C547      1.0  0.94116  0.07488  0.12757  1.0000
  C   C548      1.0  0.73677  0.12617  0.00838  1.0000
  C   C549      1.0  0.73510  0.12079  0.04828  1.0000
  C   C550      1.0  0.74897  0.11338  0.06889  1.0000
  C   C551      1.0  0.76414  0.11140  0.04994  1.0000
  H   H534      1.0  0.98935  0.46175  0.02862  1.0000
  H   H535      1.0  0.71216  0.36685  0.26818  1.0000
  H   H536      1.0  0.74805  0.10916  0.09948  1.0000
  C   C552      1.0  0.99639  0.47312  0.00750  1.0000
  C   C553      1.0  0.75194  0.12431  0.98947  1.0000
  H   H537      1.0  0.92803  0.15165  0.14109  1.0000
  H   H538      1.0  0.71130  0.03051  0.25355  1.0000
  C   C554      1.0  0.69394  0.41360  0.22490  1.0000
  H   H539      1.0  0.94813  0.13097  0.18559  1.0000
  H   H540      1.0  0.99306  0.01260  0.09783  1.0000
  H   H541      1.0  0.71666  0.48986  0.24834  1.0000
  H   H542      1.0  0.98858  0.41678  0.45139  1.0000
  H   H543      1.0  0.90532  0.14195  0.09711  1.0000
  H   H544      1.0  0.69663  0.20945  0.32892  1.0000
  H   H545      1.0  0.90536  0.11069  0.06849  1.0000
  C   C555      1.0  0.70014  0.46951  0.28784  1.0000
  H   H546      1.0  0.92494  0.07461  0.07940  1.0000
  C   C556      1.0  0.70290  0.01474  0.26339  1.0000
  H   H547      1.0  0.68766  0.15383  0.05054  1.0000
  H   H548      1.0  0.68148  0.45281  0.21623  1.0000
  S   S189      1.0  0.98367  0.30753  0.47918  1.0000
  H   H549      1.0  0.77469  0.10566  0.06642  1.0000
  C   C557      1.0  0.67620  0.14424  0.04313  1.0000
  H   H550      1.0  0.68716  0.10447  0.02944  1.0000
  H   H551      1.0  0.72405  0.09852  0.27866  1.0000
  C   C558      1.0  0.99225  0.27301  0.47728  1.0000
  C   C559      1.0  0.94755  0.09064  0.15784  1.0000
  H   H552      1.0  0.95645  0.08149  0.17697  1.0000
  C   C560      1.0  0.70477  0.49056  0.26131  1.0000
  C   C561      1.0  0.69510  0.13452  0.32652  1.0000
  Fe  Fe91      1.0  0.98617  0.08401  0.98937  1.0000
  H   H553      1.0  0.70377  0.34724  0.22864  1.0000
  C   C562      1.0  0.92974  0.08696  0.10309  1.0000
  C   C563      1.0  0.98005  0.35111  0.00195  1.0000
  N   N46       1.0  0.70230  0.11410  0.30473  1.0000
  H   H554      1.0  0.98789  0.15521  0.21608  1.0000
  C   C564      1.0  0.69371  0.09106  0.29335  1.0000
  H   H555      1.0  0.69563  0.27981  0.22459  1.0000
  H   H556      1.0  0.67832  0.35649  0.26731  1.0000
  S   S190      1.0  0.99234  0.18820  0.02542  1.0000
  C   C565      1.0  0.71912  0.11775  0.29241  1.0000
  H   H557      1.0  0.72624  0.13202  0.99193  1.0000
  Fe  Fe92      1.0  0.66466  0.12952  0.14943  1.0000
  H   H558      1.0  0.71990  0.13503  0.27103  1.0000
  C   C566      1.0  0.66549  0.39494  0.25839  1.0000
  C   C567      1.0  0.97807  0.37949  0.99340  1.0000
  H   H559      1.0  0.70175  0.15329  0.33426  1.0000
  C   C568      1.0  0.70716  0.36863  0.23852  1.0000
  C   C569      1.0  0.93145  0.12990  0.13755  1.0000
  C   C570      1.0  0.98750  0.11980  0.17731  1.0000
  N   N47       1.0  0.92486  0.11405  0.10861  1.0000
  H   H560      1.0  0.72684  0.12309  0.31753  1.0000
  H   H561      1.0  0.71676  0.37652  0.21897  1.0000
  H   H562      1.0  0.91989  0.13764  0.05836  1.0000
  C   C571      1.0  0.91329  0.12678  0.08199  1.0000
  H   H563      1.0  0.70515  0.42154  0.21298  1.0000
  H   H564      1.0  0.94525  0.05360  0.12272  1.0000
  S   S191      1.0  0.98560  0.07306  0.12992  1.0000
  C   C572      1.0  0.67004  0.10880  0.32585  1.0000
  C   C573      1.0  0.67885  0.13232  0.33714  1.0000
  C   C574      1.0  0.99060  0.09122  0.17299  1.0000
  N   N48       1.0  0.69298  0.38693  0.23907  1.0000
  C   C575      1.0  0.67752  0.08793  0.30403  1.0000
  H   H565      1.0  0.98423  0.34474  0.03024  1.0000
  H   H566      1.0  0.98168  0.01515  0.99307  1.0000
  C   C576      1.0  0.99513  0.01140  0.44069  1.0000
  H   H567      1.0  0.67309  0.14911  0.35317  1.0000
  C   C577      1.0  0.66633  0.42208  0.24384  1.0000
  S   S192      1.0  0.78540  0.11345  0.98771  1.0000
  C   C578      1.0  0.99408  0.21741  0.99415  1.0000
  H   H568      1.0  0.99053  0.40026  0.40456  1.0000
  H   H569      1.0  0.99025  0.07297  0.45760  1.0000
  H   H570      1.0  0.67075  0.06968  0.29458  1.0000
  C   C579      1.0  0.98853  0.48108  0.47604  1.0000
  H   H571      1.0  0.67462  0.19748  0.05816  1.0000
  H   H572      1.0  0.99554  0.35556  0.43757  1.0000
  H   H573      1.0  0.66367  0.99515  0.25558  1.0000
  C   C580      1.0  0.82989  0.36719  0.53415  1.0000
  H   H574      1.0  0.89341  0.16621  0.93927  1.0000
  Fe  Fe93      1.0  0.81236  0.33241  0.71584  1.0000
  S   S193      1.0  0.81862  0.32276  0.65411  1.0000
  S   S194      1.0  0.81136  0.30339  0.76918  1.0000
  Fe  Fe94      1.0  0.81081  0.39634  0.69861  1.0000
  S   S195      1.0  0.81736  0.39009  0.63526  1.0000
  S   S196      1.0  0.80127  0.43713  0.72669  1.0000
  Fe  Fe95      1.0  0.79951  0.35418  0.63645  1.0000
  S   S197      1.0  0.78162  0.34020  0.58845  1.0000
  Fe  Fe96      1.0  0.83598  0.35923  0.65736  1.0000
  S   S198      1.0  0.86183  0.34702  0.63882  1.0000
  S   S199      1.0  0.79222  0.36157  0.69850  1.0000
  S   S200      1.0  0.83040  0.36776  0.72020  1.0000
  Fe  Fe97      1.0  0.83706  0.12479  0.90984  1.0000
  S   S201      1.0  0.83253  0.11401  0.84749  1.0000
  S   S202      1.0  0.86177  0.14335  0.92622  1.0000
  Fe  Fe98      1.0  0.80078  0.11630  0.93147  1.0000
  S   S203      1.0  0.79421  0.10507  0.86978  1.0000
  C   C581      1.0  0.84096  0.32436  0.55943  1.0000
  Fe  Fe99      1.0  0.81687  0.07869  0.86857  1.0000
  S   S204      1.0  0.82086  0.03246  0.85066  1.0000
  Fe  Fe100     1.0  0.81051  0.14152  0.85262  1.0000
  S   S205      1.0  0.80632  0.17091  0.80082  1.0000
  S   S206      1.0  0.82270  0.08799  0.93119  1.0000
  S   S207      1.0  0.81570  0.15406  0.91403  1.0000
  Fe  Fe101     1.0  0.98753  0.40425  0.54098  1.0000
  H   H575      1.0  0.85403  0.36327  0.55715  1.0000
  H   H576      1.0  0.94054  0.31379  0.70031  1.0000
  Fe  Fe102     1.0  0.98338  0.36321  0.60916  1.0000
  S   S208      1.0  0.96367  0.33877  0.57902  1.0000
  C   C582      1.0  0.81374  0.32611  0.53508  1.0000
  Fe  Fe103     1.0  0.97956  0.34146  0.52606  1.0000
  C   C583      1.0  0.85363  0.20988  0.88989  1.0000
  Fe  Fe104     1.0  0.95376  0.38081  0.56261  1.0000
  S   S209      1.0  0.92773  0.39706  0.56926  1.0000
  S   S210      1.0  0.97262  0.40517  0.59565  1.0000
  C   C584      1.0  0.74632  0.34118  0.50515  1.0000
  C   C585      1.0  0.80892  0.46579  0.75464  1.0000
  H   H577      1.0  0.79245  0.35600  0.49924  1.0000
  C   C586      1.0  0.70079  0.34727  0.52920  1.0000
  H   H578      1.0  0.98534  0.24024  0.90345  1.0000
  H   H579      1.0  0.96044  0.38054  0.67064  1.0000
  H   H580      1.0  0.75289  0.12881  0.95896  1.0000
  H   H581      1.0  0.83407  0.45554  0.74871  1.0000
  H   H582      1.0  0.80227  0.31572  0.53012  1.0000
  C   C587      1.0  0.97217  0.33968  0.93681  1.0000
  H   H583      1.0  0.90113  0.38246  0.68504  1.0000
  C   C588      1.0  0.80949  0.26648  0.77719  1.0000
  C   C589      1.0  0.80767  0.24717  0.74702  1.0000
  C   C590      1.0  0.80646  0.21821  0.75496  1.0000
  C   C591      1.0  0.80723  0.20794  0.79306  1.0000
  C   C592      1.0  0.80902  0.22725  0.82326  1.0000
  C   C593      1.0  0.81010  0.25625  0.81534  1.0000
  H   H584      1.0  0.80710  0.25454  0.71754  1.0000
  H   H585      1.0  0.80499  0.20359  0.73131  1.0000
  H   H586      1.0  0.80952  0.21984  0.85272  1.0000
  H   H587      1.0  0.81139  0.27086  0.83904  1.0000
  C   C594      1.0  0.87987  0.36142  0.61859  1.0000
  C   C595      1.0  0.89329  0.34377  0.61286  1.0000
  C   C596      1.0  0.90794  0.35410  0.59740  1.0000
  C   C597      1.0  0.90937  0.38232  0.58726  1.0000
  C   C598      1.0  0.89589  0.39990  0.59261  1.0000
  C   C599      1.0  0.88127  0.38961  0.60827  1.0000
  H   H588      1.0  0.89237  0.32189  0.62049  1.0000
  H   H589      1.0  0.91812  0.34025  0.59333  1.0000
  H   H590      1.0  0.89681  0.42175  0.58481  1.0000
  H   H591      1.0  0.87112  0.40351  0.61240  1.0000
  C   C600      1.0  0.76613  0.35227  0.55614  1.0000
  C   C601      1.0  0.76198  0.38056  0.55247  1.0000
  H   H592      1.0  0.79443  0.00049  0.88130  1.0000
  C   C602      1.0  0.90793  0.13412  0.96586  1.0000
  C   C603      1.0  0.74228  0.36949  0.50122  1.0000
  C   C604      1.0  0.75817  0.33273  0.53217  1.0000
  H   H593      1.0  0.76789  0.39599  0.57044  1.0000
  C   C605      1.0  0.97705  0.33113  0.97342  1.0000
  C   C606      1.0  0.77419  0.02821  0.87657  1.0000
  C   C607      1.0  0.83078  0.49323  0.78295  1.0000
  H   H594      1.0  0.78686  0.05489  0.97727  1.0000
  C   C608      1.0  0.80220  0.36989  0.51027  1.0000
  H   H595      1.0  0.84437  0.19746  0.90570  1.0000
  H   H596      1.0  0.97039  0.32425  0.91413  1.0000
  H   H597      1.0  0.70409  0.34056  0.49945  1.0000
  H   H598      1.0  0.91626  0.33875  0.69595  1.0000
  H   H599      1.0  0.84825  0.25005  0.83722  1.0000
  H   H600      1.0  0.78739  0.43767  0.81734  1.0000
  N   N49       1.0  0.85144  0.20645  0.84815  1.0000
  S   S211      1.0  0.96815  0.38232  0.50684  1.0000
  C   C609      1.0  0.69523  0.39769  0.52751  1.0000
  C   C610      1.0  0.76980  0.05876  0.93112  1.0000
  C   C611      1.0  0.87956  0.12834  0.94653  1.0000
  C   C612      1.0  0.75022  0.38902  0.52523  1.0000
  C   C613      1.0  0.81040  0.42012  0.83181  1.0000
  H   H601      1.0  0.81205  0.03073  0.96975  1.0000
  H   H602      1.0  0.94561  0.42431  0.65760  1.0000
  H   H603      1.0  0.85076  0.31306  0.57309  1.0000
  H   H604      1.0  0.81596  0.00994  0.92799  1.0000
  H   H605      1.0  0.79616  0.00340  0.72616  1.0000
  N   N50       1.0  0.93928  0.35721  0.68457  1.0000
  H   H606      1.0  0.85249  0.23201  0.89928  1.0000
  C   C614      1.0  0.84643  0.22576  0.78530  1.0000
  H   H607      1.0  0.95804  0.33451  0.71190  1.0000
  C   C615      1.0  0.91420  0.38238  0.68284  1.0000
  C   C616      1.0  0.93915  0.40587  0.66738  1.0000
  C   C617      1.0  0.85185  0.18012  0.83265  1.0000
  C   C618      1.0  0.88004  0.10082  0.96014  1.0000
  H   H608      1.0  0.86571  0.20201  0.89853  1.0000
  H   H609      1.0  0.80313  0.99619  0.96599  1.0000
  N   N51       1.0  0.97329  0.38773  0.95737  1.0000
  C   C619      1.0  0.84888  0.22918  0.82501  1.0000
  C   C620      1.0  0.94833  0.33122  0.69024  1.0000
  C   C621      1.0  0.97229  0.41756  0.94786  1.0000
  H   H610      1.0  0.96715  0.37477  0.90027  1.0000
  C   C622      1.0  0.79792  0.48494  0.77114  1.0000
  C   C623      1.0  0.68466  0.42032  0.52360  1.0000
  S   S212      1.0  0.98823  0.34715  0.67015  1.0000
  C   C624      1.0  0.78335  0.04720  0.94899  1.0000
  C   C625      1.0  0.92285  0.35765  0.68879  1.0000
  C   C626      1.0  0.80680  0.01663  0.78016  1.0000
  C   C627      1.0  0.82541  0.46998  0.76105  1.0000
  C   C628      1.0  0.84279  0.35262  0.55053  1.0000
  H   H611      1.0  0.82463  0.28922  0.55962  1.0000
  H   H612      1.0  0.74729  0.41099  0.52267  1.0000
  H   H613      1.0  0.68931  0.44153  0.52276  1.0000
  H   H614      1.0  0.83237  0.39704  0.84099  1.0000
  H   H615      1.0  0.96129  0.42208  0.93079  1.0000
  H   H616      1.0  0.78513  0.48203  0.76645  1.0000
  H   H617      1.0  0.80236  0.03784  0.77809  1.0000
  H   H618      1.0  0.77097  0.02088  0.84792  1.0000
  N   N52       1.0  0.78865  0.39439  0.80261  1.0000
  C   C629      1.0  0.79799  0.37083  0.80159  1.0000
  C   C630      1.0  0.81377  0.37132  0.81580  1.0000
  C   C631      1.0  0.82002  0.39620  0.83075  1.0000
  C   C632      1.0  0.77255  0.39420  0.78516  1.0000
  H   H619      1.0  0.79336  0.35156  0.78921  1.0000
  H   H620      1.0  0.82116  0.35260  0.81435  1.0000
  H   H621      1.0  0.84370  0.19582  0.73911  1.0000
  H   H622      1.0  0.77318  0.40403  0.75610  1.0000
  H   H623      1.0  0.76781  0.37256  0.78172  1.0000
  H   H624      1.0  0.76385  0.40605  0.80336  1.0000
  C   C633      1.0  0.79462  0.41878  0.81766  1.0000
  H   H625      1.0  0.91579  0.42545  0.66499  1.0000
  C   C634      1.0  0.81607  0.00881  0.81207  1.0000
  H   H626      1.0  0.70808  0.40175  0.52972  1.0000
  H   H627      1.0  0.84383  0.24372  0.76726  1.0000
  C   C635      1.0  0.89432  0.09015  0.97671  1.0000
  H   H628      1.0  0.81523  0.43981  0.84242  1.0000
  C   C636      1.0  0.82634  0.31098  0.55181  1.0000
  H   H629      1.0  0.85400  0.16219  0.85099  1.0000
  H   H630      1.0  0.76119  0.31079  0.53448  1.0000
  H   H631      1.0  0.69538  0.32924  0.54474  1.0000
  H   H632      1.0  0.74043  0.32576  0.48710  1.0000
  H   H633      1.0  0.98315  0.42385  0.93098  1.0000
  C   C637      1.0  0.84918  0.17589  0.79321  1.0000
  C   C638      1.0  0.84638  0.19889  0.76947  1.0000
  H   H634      1.0  0.95413  0.32473  0.66262  1.0000
  H   H635      1.0  0.66886  0.34441  0.52124  1.0000
  H   H636      1.0  0.99289  0.32969  0.74822  1.0000
  H   H637      1.0  0.86938  0.08781  0.95812  1.0000
  H   H638      1.0  0.84877  0.15485  0.78143  1.0000
  C   C639      1.0  0.94745  0.38094  0.67424  1.0000
  C   C640      1.0  0.92242  0.40654  0.67168  1.0000
  H   H639      1.0  0.71208  0.35321  0.54446  1.0000
  H   H640      1.0  0.75508  0.05874  0.87998  1.0000
  N   N53       1.0  0.81566  0.35383  0.52631  1.0000
  N   N54       1.0  0.68951  0.37081  0.52732  1.0000
  C   C641      1.0  0.89360  0.14489  0.94960  1.0000
  C   C642      1.0  0.97037  0.36824  0.92920  1.0000
  H   H641      1.0  0.98121  0.19922  0.94640  1.0000
  S   S213      1.0  0.97081  0.12000  0.96818  1.0000
  C   C643      1.0  0.76532  0.04940  0.89450  1.0000
  C   C644      1.0  0.99021  0.24057  0.93242  1.0000
  H   H642      1.0  0.97886  0.30906  0.97932  1.0000
  C   C645      1.0  0.67337  0.36571  0.52289  1.0000
  C   C646      1.0  0.80650  0.01528  0.94968  1.0000
  C   C647      1.0  0.98783  0.21728  0.95670  1.0000
  H   H643      1.0  0.79687  0.38335  0.53321  1.0000
  N   N55       1.0  0.79223  0.02698  0.93075  1.0000
  C   C648      1.0  0.66816  0.41529  0.51932  1.0000
  H   H644      1.0  0.76306  0.07529  0.94540  1.0000
  H   H645      1.0  0.91859  0.14713  0.96789  1.0000
  H   H646      1.0  0.97194  0.43087  0.97425  1.0000
  H   H647      1.0  0.98141  0.05824  0.50048  1.0000
  C   C649      1.0  0.78753  0.01685  0.89553  1.0000
  C   C650      1.0  0.90838  0.10662  0.97958  1.0000
  C   C651      1.0  0.98688  0.07750  0.48808  1.0000
  C   C652      1.0  0.99127  0.00382  0.97875  1.0000
  H   H648      1.0  0.83128  0.38932  0.52817  1.0000
  H   H649      1.0  0.97759  0.09421  0.48860  1.0000
  C   C653      1.0  0.80328  0.99696  0.75070  1.0000
  H   H650      1.0  0.80632  0.38316  0.48589  1.0000
  H   H651      1.0  0.98432  0.73625  0.33024  1.0000
  S   S214      1.0  0.96285  0.57094  0.03713  1.0000
  H   H652      1.0  0.72085  0.99207  0.29588  1.0000
  H   H653      1.0  0.72181  0.73038  0.11967  1.0000
  S   S215      1.0  0.95282  0.63746  0.04329  1.0000
  C   C654      1.0  0.70832  0.99273  0.28732  1.0000
  Fe  Fe105     1.0  0.96965  0.60791  0.07460  1.0000
  S   S216      1.0  0.97026  0.59729  0.13879  1.0000
  C   C655      1.0  0.81097  0.64439  0.02344  1.0000
  C   C656      1.0  0.81816  0.59446  0.02141  1.0000
  Fe  Fe106     1.0  0.70497  0.62441  0.13443  1.0000
  S   S217      1.0  0.71156  0.61463  0.19612  1.0000
  S   S218      1.0  0.72487  0.64045  0.09208  1.0000
  H   H654      1.0  0.67331  0.95642  0.29740  1.0000
  C   C657      1.0  0.75014  0.59230  0.01298  1.0000
  Fe  Fe107     1.0  0.69200  0.64466  0.21480  1.0000
  S   S219      1.0  0.69581  0.67435  0.26686  1.0000
  Fe  Fe108     1.0  0.69230  0.58113  0.19424  1.0000
  S   S220      1.0  0.70058  0.53772  0.21620  1.0000
  S   S221      1.0  0.68638  0.65641  0.15371  1.0000
  S   S222      1.0  0.68639  0.58962  0.13112  1.0000
  C   C658      1.0  0.73901  0.92404  0.39050  1.0000
  S   S223      1.0  0.67623  0.87414  0.33465  1.0000
  Fe  Fe109     1.0  0.70183  0.86599  0.42783  1.0000
  S   S224      1.0  0.71275  0.86851  0.36810  1.0000
  H   H655      1.0  0.73610  0.65676  0.23662  1.0000
  Fe  Fe110     1.0  0.69508  0.90367  0.35695  1.0000
  S   S225      1.0  0.70544  0.94423  0.33037  1.0000
  Fe  Fe111     1.0  0.69295  0.83859  0.34948  1.0000
  S   S226      1.0  0.69430  0.80680  0.29905  1.0000
  S   S227      1.0  0.68498  0.90259  0.41741  1.0000
  S   S228      1.0  0.68288  0.83378  0.40992  1.0000
  C   C659      1.0  0.67618  0.99463  0.26437  1.0000
  H   H656      1.0  0.74801  0.66979  0.04466  1.0000
  C   C660      1.0  0.68162  0.97254  0.28815  1.0000
  C   C661      1.0  0.69776  0.97140  0.29988  1.0000
  H   H657      1.0  0.78446  0.62431  0.05640  1.0000
  H   H658      1.0  0.77712  0.57487  0.06683  1.0000
  H   H659      1.0  0.71227  0.69657  0.12251  1.0000
  C   C662      1.0  0.81438  0.56624  0.02719  1.0000
  C   C663      1.0  0.75370  0.91283  0.40236  1.0000
  H   H660      1.0  0.98596  0.54891  0.09792  1.0000
  C   C664      1.0  0.69445  0.71119  0.27531  1.0000
  C   C665      1.0  0.69169  0.73042  0.24565  1.0000
  C   C666      1.0  0.69197  0.75949  0.25346  1.0000
  C   C667      1.0  0.69452  0.76982  0.29117  1.0000
  C   C668      1.0  0.69688  0.75057  0.32098  1.0000
  C   C669      1.0  0.69698  0.72154  0.31299  1.0000
  H   H661      1.0  0.68970  0.72289  0.21655  1.0000
  C   C670      1.0  0.73354  0.70079  0.24865  1.0000
  H   H662      1.0  0.69885  0.75805  0.35011  1.0000
  H   H663      1.0  0.87805  0.64308  0.01742  1.0000
  C   C671      1.0  0.79954  0.55908  0.04360  1.0000
  H   H664      1.0  0.97381  0.98522  0.43937  1.0000
  C   C672      1.0  0.74858  0.64804  0.03611  1.0000
  C   C673      1.0  0.73831  0.62852  0.05445  1.0000
  C   C674      1.0  0.73924  0.60050  0.04258  1.0000
  H   H665      1.0  0.79626  0.53728  0.04738  1.0000
  C   C675      1.0  0.72353  0.70839  0.12894  1.0000
  C   C676      1.0  0.99444  0.50236  0.00423  1.0000
  H   H666      1.0  0.73148  0.58513  0.05608  1.0000
  H   H667      1.0  0.67063  0.52977  0.26149  1.0000
  C   C677      1.0  0.75719  0.91116  0.44169  1.0000
  H   H668      1.0  0.99183  0.60231  0.27063  1.0000
  H   H669      1.0  0.98586  0.51321  0.02247  1.0000
  H   H670      1.0  0.72367  0.74957  0.18203  1.0000
  C   C678      1.0  0.75948  0.63984  0.00650  1.0000
  H   H671      1.0  0.80131  0.65342  0.00507  1.0000
  C   C679      1.0  0.88255  0.62865  0.99581  1.0000
  H   H672      1.0  0.82963  0.59979  0.00812  1.0000
  C   C680      1.0  0.73093  0.68047  0.18512  1.0000
  C   C681      1.0  0.72782  0.93292  0.41828  1.0000
  C   C682      1.0  0.98252  0.61245  0.17525  1.0000
  C   C683      1.0  0.99283  0.63500  0.16781  1.0000
  H   H673      1.0  0.82279  0.55009  0.01823  1.0000
  C   C684      1.0  0.98570  0.98797  0.45165  1.0000
  C   C685      1.0  0.73399  0.67737  0.22457  1.0000
  H   H674      1.0  0.97629  0.63312  0.47446  1.0000
  N   N56       1.0  0.72733  0.70615  0.17015  1.0000
  H   H675      1.0  0.91271  0.70902  0.00249  1.0000
  C   C686      1.0  0.73013  0.72699  0.23307  1.0000
  C   C687      1.0  0.98215  0.60095  0.21261  1.0000
  H   H676      1.0  0.73340  0.69912  0.11125  1.0000
  H   H677      1.0  0.71633  0.94130  0.40881  1.0000
  Fe  Fe112     1.0  0.98397  0.58391  0.00103  1.0000
  C   C688      1.0  0.89870  0.61934  0.99779  1.0000
  H   H678      1.0  0.73517  0.69843  0.27955  1.0000
  C   C689      1.0  0.67892  0.51313  0.26867  1.0000
  C   C690      1.0  0.99149  0.96790  0.47802  1.0000
  C   C691      1.0  0.69423  0.51257  0.25147  1.0000
  H   H679      1.0  0.76850  0.90221  0.45139  1.0000
  N   N57       1.0  0.80738  0.61492  0.03136  1.0000
  N   N58       1.0  0.73118  0.93062  0.45678  1.0000
  C   C692      1.0  0.79302  0.60811  0.04851  1.0000
  Fe  Fe113     1.0  0.66822  0.62092  0.15476  1.0000
  C   C693      1.0  0.78882  0.58013  0.05466  1.0000
  H   H680      1.0  0.73612  0.92548  0.35999  1.0000
  H   H681      1.0  0.76232  0.90534  0.38108  1.0000
  H   H682      1.0  0.97647  0.74393  0.45007  1.0000
  S   S229      1.0  0.67319  0.61044  0.21731  1.0000
  Fe  Fe114     1.0  0.97454  0.64663  0.00564  1.0000
  H   H683      1.0  0.69915  0.70692  0.33621  1.0000
  C   C694      1.0  0.72689  0.72928  0.19356  1.0000
  H   H684      1.0  0.70685  0.93412  0.47591  1.0000
  H   H685      1.0  0.90652  0.62665  0.02067  1.0000
  C   C695      1.0  0.98871  0.74293  0.46074  1.0000
  H   H686      1.0  0.82259  0.64699  0.00764  1.0000
  C   C696      1.0  0.74580  0.92056  0.46864  1.0000
  H   H687      1.0  0.98320  0.96351  0.99912  1.0000
  H   H688      1.0  0.72922  0.74517  0.25184  1.0000
  H   H689      1.0  0.73112  0.66213  0.16663  1.0000
  H   H690      1.0  0.69011  0.77409  0.23009  1.0000
  H   H691      1.0  0.81175  0.65635  0.05090  1.0000
  Fe  Fe115     1.0  0.94793  0.60148  0.00288  1.0000
  H   H692      1.0  0.99318  0.64413  0.13928  1.0000
  S   S230      1.0  0.99164  0.61959  0.03979  1.0000
  H   H693      1.0  0.75062  0.57057  0.00424  1.0000
  Fe  Fe116     1.0  0.66697  0.87073  0.39587  1.0000
  H   H694      1.0  0.97414  0.58359  0.21869  1.0000
  H   H695      1.0  0.99649  0.76446  0.38340  1.0000
  H   H696      1.0  0.97703  0.51280  0.44128  1.0000
  C   C697      1.0  0.76039  0.61181  0.99463  1.0000
  H   H697      1.0  0.76713  0.65525  0.99279  1.0000
  C   C698      1.0  0.99217  0.61150  0.24211  1.0000
  H   H698      1.0  0.92034  0.82706  0.47126  1.0000
  C   C699      1.0  0.98829  0.50589  0.45380  1.0000
  H   H699      1.0  0.94157  0.69600  0.99314  1.0000
  H   H700      1.0  0.99165  0.96095  0.10443  1.0000
  H   H701      1.0  0.74638  0.84297  0.46260  1.0000
  H   H702      1.0  0.99380  0.70333  0.43234  1.0000
  C   C700      1.0  0.99069  0.71713  0.98338  1.0000
  H   H703      1.0  0.79123  0.76170  0.64138  1.0000
  H   H704      1.0  0.89168  0.68721  0.96070  1.0000
  Fe  Fe117     1.0  0.81327  0.83675  0.70519  1.0000
  S   S231      1.0  0.81916  0.82895  0.64228  1.0000
  S   S232      1.0  0.80954  0.80494  0.75491  1.0000
  Fe  Fe118     1.0  0.81074  0.90067  0.69386  1.0000
  S   S233      1.0  0.81647  0.89635  0.63039  1.0000
  S   S234      1.0  0.80472  0.94584  0.71321  1.0000
  Fe  Fe119     1.0  0.79927  0.85996  0.62835  1.0000
  S   S235      1.0  0.78362  0.85195  0.57356  1.0000
  Fe  Fe120     1.0  0.83601  0.86613  0.64775  1.0000
  S   S236      1.0  0.85947  0.87302  0.61281  1.0000
  S   S237      1.0  0.79234  0.86563  0.69109  1.0000
  S   S238      1.0  0.83126  0.87254  0.71148  1.0000
  Fe  Fe121     1.0  0.83245  0.62177  0.92018  1.0000
  S   S239      1.0  0.83499  0.61814  0.85600  1.0000
  S   S240      1.0  0.85207  0.63249  0.96440  1.0000
  Fe  Fe122     1.0  0.79586  0.61128  0.91799  1.0000
  S   S241      1.0  0.79595  0.60667  0.85245  1.0000
  H   H705      1.0  0.90760  0.81077  0.58924  1.0000
  Fe  Fe123     1.0  0.81841  0.58065  0.85933  1.0000
  S   S242      1.0  0.82750  0.54237  0.82450  1.0000
  Fe  Fe124     1.0  0.81254  0.64460  0.85172  1.0000
  S   S243      1.0  0.81309  0.67387  0.79845  1.0000
  S   S244      1.0  0.81744  0.58271  0.92439  1.0000
  S   S245      1.0  0.81092  0.65079  0.91659  1.0000
  Fe  Fe125     1.0  0.98039  0.89982  0.53035  1.0000
  S   S246      1.0  0.96189  0.86507  0.52274  1.0000
  C   C701      1.0  0.84477  0.97281  0.71111  1.0000
  H   H706      1.0  0.72105  0.92937  0.51357  1.0000
  S   S247      1.0  0.97799  0.83367  0.59685  1.0000
  C   C702      1.0  0.79357  0.55941  0.72669  1.0000
  Fe  Fe126     1.0  0.98239  0.83444  0.53248  1.0000
  H   H707      1.0  0.84264  0.59223  0.77914  1.0000
  Fe  Fe127     1.0  0.95855  0.86603  0.58731  1.0000
  S   S248      1.0  0.93642  0.85976  0.62703  1.0000
  S   S249      1.0  0.97557  0.90250  0.59446  1.0000
  N   N59       1.0  0.92474  0.65480  0.92455  1.0000
  C   C703      1.0  0.80892  0.96917  0.75255  1.0000
  H   H708      1.0  0.74854  0.91890  0.49916  1.0000
  C   C704      1.0  0.81815  0.96132  0.78454  1.0000
  C   C705      1.0  0.81980  0.51244  0.79934  1.0000
  C   C706      1.0  0.99211  0.97446  0.98196  1.0000
  C   C707      1.0  0.90433  0.68201  0.95671  1.0000
  H   H709      1.0  0.89872  0.57669  0.91919  1.0000
  C   C708      1.0  0.76851  0.79959  0.75166  1.0000
  C   C709      1.0  0.73440  0.86330  0.51016  1.0000
  H   H710      1.0  0.82882  0.97457  0.83849  1.0000
  C   C710      1.0  0.81178  0.76858  0.76696  1.0000
  C   C711      1.0  0.81650  0.74829  0.73991  1.0000
  C   C712      1.0  0.81692  0.71964  0.75022  1.0000
  C   C713      1.0  0.81295  0.71069  0.78790  1.0000
  C   C714      1.0  0.80852  0.73103  0.81512  1.0000
  C   C715      1.0  0.80783  0.75964  0.80462  1.0000
  H   H711      1.0  0.81965  0.75461  0.71087  1.0000
  H   H712      1.0  0.82038  0.70425  0.72879  1.0000
  H   H713      1.0  0.80537  0.72471  0.84415  1.0000
  H   H714      1.0  0.80416  0.77498  0.82593  1.0000
  C   C716      1.0  0.88086  0.86945  0.61787  1.0000
  C   C717      1.0  0.89097  0.87832  0.58744  1.0000
  C   C718      1.0  0.90795  0.87605  0.58988  1.0000
  C   C719      1.0  0.91511  0.86474  0.62288  1.0000
  C   C720      1.0  0.90501  0.85590  0.65334  1.0000
  C   C721      1.0  0.88803  0.85823  0.65093  1.0000
  H   H715      1.0  0.88561  0.88714  0.56175  1.0000
  H   H716      1.0  0.91548  0.88300  0.56619  1.0000
  H   H717      1.0  0.91035  0.84704  0.67900  1.0000
  H   H718      1.0  0.88049  0.85119  0.67456  1.0000
  C   C722      1.0  0.76453  0.85720  0.54986  1.0000
  C   C723      1.0  0.75138  0.87029  0.56791  1.0000
  C   C724      1.0  0.73646  0.87307  0.54835  1.0000
  H   H719      1.0  0.97528  0.87773  0.80123  1.0000
  H   H720      1.0  0.94001  0.62198  0.90439  1.0000
  C   C725      1.0  0.76248  0.84746  0.51166  1.0000
  H   H721      1.0  0.75264  0.87816  0.59706  1.0000
  N   N60       1.0  0.84256  0.96131  0.67526  1.0000
  H   H722      1.0  0.86815  0.90643  0.68133  1.0000
  H   H723      1.0  0.78275  0.54758  0.71989  1.0000
  H   H724      1.0  0.93539  0.76628  0.61176  1.0000
  C   C726      1.0  0.76413  0.81482  0.64636  1.0000
  H   H725      1.0  0.75557  0.80001  0.76002  1.0000
  H   H726      1.0  0.85648  0.96907  0.76644  1.0000
  H   H727      1.0  0.92800  0.79833  0.63369  1.0000
  C   C727      1.0  0.86164  0.92511  0.69002  1.0000
  C   C728      1.0  0.80874  0.54784  0.71965  1.0000
  S   S250      1.0  0.92509  0.58902  0.96961  1.0000
  C   C729      1.0  0.97798  0.88763  0.77380  1.0000
  C   C730      1.0  0.93225  0.68674  0.97515  1.0000
  C   C731      1.0  0.96842  0.88132  0.74162  1.0000
  H   H728      1.0  0.83431  0.55329  0.72597  1.0000
  C   C732      1.0  0.85105  0.93805  0.66430  1.0000
  C   C733      1.0  0.97207  0.89343  0.70603  1.0000
  C   C734      1.0  0.91638  0.80965  0.56596  1.0000
  C   C735      1.0  0.92336  0.81886  0.49951  1.0000
  S   S251      1.0  0.98150  0.79379  0.49541  1.0000
  C   C736      1.0  0.98863  0.74207  0.96244  1.0000
  C   C737      1.0  0.98513  0.91176  0.70307  1.0000
  C   C738      1.0  0.82257  0.56291  0.72988  1.0000
  C   C739      1.0  0.83157  0.97460  0.64778  1.0000
  H   H729      1.0  0.82261  0.94012  0.78655  1.0000
  S   S252      1.0  0.77455  0.59966  0.95873  1.0000
  C   C740      1.0  0.83607  0.60410  0.75654  1.0000
  H   H730      1.0  0.83817  0.99141  0.71974  1.0000
  H   H731      1.0  0.78068  0.59507  0.74947  1.0000
  H   H732      1.0  0.75440  0.83157  0.69907  1.0000
  C   C741      1.0  0.93603  0.78945  0.61095  1.0000
  C   C742      1.0  0.98936  0.59625  0.49142  1.0000
  H   H733      1.0  0.87160  0.92609  0.74740  1.0000
  H   H734      1.0  0.82493  0.95849  0.63088  1.0000
  C   C743      1.0  0.91210  0.81974  0.52952  1.0000
  H   H735      1.0  0.99405  0.83771  0.68591  1.0000
  H   H736      1.0  0.93221  0.64508  0.86743  1.0000
  H   H737      1.0  0.94845  0.79642  0.61838  1.0000
  H   H738      1.0  0.98843  0.92057  0.67527  1.0000
  H   H739      1.0  0.89964  0.65259  0.91117  1.0000
  H   H740      1.0  0.80980  0.52685  0.70781  1.0000
  H   H741      1.0  0.97822  0.74439  0.94396  1.0000
  C   C744      1.0  0.93864  0.80766  0.50613  1.0000
  C   C745      1.0  0.82167  0.98099  0.81399  1.0000
  H   H742      1.0  0.77247  0.83728  0.49719  1.0000
  H   H743      1.0  0.80545  0.62117  0.76581  1.0000
  H   H744      1.0  0.77431  0.78174  0.76680  1.0000
  H   H745      1.0  0.72642  0.88302  0.56295  1.0000
  C   C746      1.0  0.99454  0.76484  0.48434  1.0000
  C   C747      1.0  0.86360  0.93620  0.72703  1.0000
  C   C748      1.0  0.87220  0.61952  0.96610  1.0000
  C   C749      1.0  0.80649  0.60061  0.75269  1.0000
  H   H746      1.0  0.83342  0.62536  0.76820  1.0000
  C   C750      1.0  0.79240  0.58596  0.74333  1.0000
  N   N61       1.0  0.93158  0.79959  0.57252  1.0000
  C   C751      1.0  0.91610  0.69409  0.98024  1.0000
  C   C752      1.0  0.80328  0.50788  0.79366  1.0000
  C   C753      1.0  0.76217  0.81573  0.68649  1.0000
  H   H747      1.0  0.84399  0.60664  0.73090  1.0000
  S   S253      1.0  0.97887  0.93862  0.49050  1.0000
  H   H748      1.0  0.95460  0.78994  0.54813  1.0000
  H   H749      1.0  0.84359  0.49644  0.78707  1.0000
  H   H750      1.0  0.99388  0.82203  0.75428  1.0000
  S   S254      1.0  0.96883  0.61189  0.96389  1.0000
  C   C754      1.0  0.77460  0.79527  0.62997  1.0000
  C   C755      1.0  0.90891  0.66240  0.92867  1.0000
  H   H751      1.0  0.77653  0.79494  0.59892  1.0000
  H   H752      1.0  0.84955  0.92918  0.63563  1.0000
  H   H753      1.0  0.87038  0.59340  0.91560  1.0000
  S   S255      1.0  0.71533  0.86875  0.48657  1.0000
  H   H754      1.0  0.79464  0.52238  0.80595  1.0000
  H   H755      1.0  0.77456  0.81899  0.76203  1.0000
  N   N62       1.0  0.82132  0.58899  0.74597  1.0000
  H   H756      1.0  0.90023  0.82868  0.52494  1.0000
  C   C756      1.0  0.87818  0.60074  0.93852  1.0000
  H   H757      1.0  0.75792  0.82966  0.62804  1.0000
  C   C757      1.0  0.94258  0.79810  0.54306  1.0000
  C   C758      1.0  0.92936  0.63431  0.89493  1.0000
  H   H758      1.0  0.78694  0.76350  0.71198  1.0000
  C   C759      1.0  0.89428  0.59130  0.94064  1.0000
  C   C760      1.0  0.78044  0.77791  0.69372  1.0000
  C   C761      1.0  0.78284  0.77667  0.65375  1.0000
  N   N63       1.0  0.77028  0.79738  0.70961  1.0000
  H   H759      1.0  0.91954  0.61879  0.89020  1.0000
  C   C762      1.0  0.85517  0.96028  0.73767  1.0000
  H   H760      1.0  0.96497  0.88824  0.68064  1.0000
  C   C763      1.0  0.93638  0.66707  0.94684  1.0000
  C   C764      1.0  0.90468  0.60063  0.97008  1.0000
  H   H761      1.0  0.94896  0.66150  0.94310  1.0000
  H   H762      1.0  0.95842  0.86676  0.74404  1.0000
  C   C765      1.0  0.99441  0.91765  0.73581  1.0000
  N   N64       1.0  0.99087  0.90541  0.77051  1.0000
  C   C766      1.0  0.74762  0.85059  0.49190  1.0000
  Fe  Fe128     1.0  0.99508  0.87011  0.59994  1.0000
  H   H763      1.0  0.82219  0.98714  0.66302  1.0000
  S   S256      1.0  0.97665  0.68943  0.97642  1.0000
  C   C767      1.0  0.98745  0.62496  0.48616  1.0000
  H   H764      1.0  0.83845  0.98831  0.62784  1.0000
  H   H765      1.0  0.94758  0.80704  0.48312  1.0000
  H   H766      1.0  0.72000  0.96294  0.48930  1.0000
  C   C768      1.0  0.71923  0.93994  0.48534  1.0000
  H   H767      1.0  0.97981  0.58181  0.48338  1.0000
  H   H768      1.0  0.99548  0.93099  0.81952  1.0000
