data_image0
_chemical_formula_structural       FeS2HC2HSHC2FeNHCHCH4SFeSNHCHCH3SFeCHS2HC3SHC2HSH2CHCFeHCSFeHSH2CHCS2HC2FeH2C2FeCHC2H3C2H3CNC2HSFeCH2C3NHCHC5HCHCHCNCHSCNHC2HCH4SCHCHCH3CHC2SC2FeCHNCHSH2C4SCNSHC3FeC2HCSH2CHCHCHNCHCHCFeNH3NH2SHC2HCHSHC2SC2FeC5HCHCH3FeC2HCHCH3C4H2CNHC3HSCH2C3NSHCSFeCSH2CSCHCH4FeH2C2H3FeH2C4HS2HCFeSH2SCNH2CHCH2CFeCHCHSH2SH2FeH2CSHSH2C4SH2SCH2SCSFeH3FeC2H2SCH2FeC2HSHC2HSC3H5SFeCSHC2NSNFeC3HC2SNSHC2SCH2CHSFeHCHC3SHFeH3CHCHCHC6S2H2SH2CSCH2SCFeHCH2CSHCHSCHCH4CH2CNCSHCFeC3HCHC2H3CSFeHC2HCHFe2SC4HSCHC3SCNHCH2NHCSH2C3FeCHCSCHC2HC2H4FeSC2H2CHCHC2FeHCHCSCH2SC2H3CH2C3SC3HC5HNHC2FeHS2CH2FeH5CHCHCSCHC2H2SH3CSHCFeHS4C3H2C2H3CFe2H4SFeHCSH2SCHCHC8HFeCFeSC2HC4SCSHCNHC2H4CNH4CNHFeH5CFeNHC2HSH3CSHCH2CH2CHCHS3CH2SC2H2C2SC2SHC5HNCFe2HC2HSCFeHCFeCH2CSH3SNCSFeC3HCHC2HCHSHCHCHCSH2C2FeCFeSHSC2FeCH2NCSHC2H3SH2CSH2NHSH2CH2CH3CH3C3H2S2H3SH2CHCSFe2CH2SFeHSH4CS2C3H2CHC4SC2H2SC3H4CSCSCHC4FeCFeHFeCH2CHCSCHSHCH2SCFeH2FeH2SFeC4H2CSCSC2SN2C2HC2H2CSCH2CFeHCH3C3SFeC4SHCH2SHCFeHNH2FeC2SCHCH2SH2C2H3CHC3HSCHSCHNHSC3HFeHCHC2S4HSCHCHC2HCH6SHFeSH2Fe2HCHCHCSCHSHFeHC3H3C2HFeC2H2CHSHCHC2HSFeHSHSC3H2C4SHSC2HCSCFeHC2NSCSCH2NFeHCH2C2FeCNCH2C2H3C2HCH2C3SC5HFeHSCH8SC2HNFeH2CHCFeC2HCHC3HNHSHCH3C4SHSHSC3SH2SFeHC3HNCHFeCSH4CFeHC2HCS2CSC3HCSCFeH2CH2CSCHC2HSFeH2CH2C4HSHCH2NHCHSFeC2H3CH4CH2C3HCFeC2H2SCSHNHC3H5CH4CFeSC2SH2CHSCHCHSHCS2CHCSCH3CSCFeH2C2H2SC3HCSCSC2HC3H2C2SC4HCH2CHC2NCHSH2CHS2CNSH2NCFe2H3C2HFeC2NFeC2HC2H6CNCHC2SH2SCHSHFeSHSCHSCHFe2HC2HCSCH3C3HSCHC4H2SNC2H2CSCSCH2SH2CHFe2HSCFe2CH2C3FeN2CH3FeC3H3SCHSCSNC4HCH2SHC3HCS2CHFeCH6FeHCH2CH2C4H2NH2CHSNC3S3H2SHCHCFeSCH2CHFeC3H3CSHCH3SHFeC6HC4HS2CHFeSCH2S2C6HSH2CNC2NHCFeHSHFeSCHFe2H2CH2CHSHC2NFeH2SCHC2HFeC3H5CHCNHCHCH2CSCSCHCH4CHSHCSCHC2HCH3CH3SHCHCS2CH2CSCH3CS2C2HNCNC2HC3FeSH2CHCH2C2H2SHC2HCFeC2SH2CHC3FeHFeSCFeC2HC3H2CH2CH2CHCHSHCHC3FeC3HCSHSNCHCFeCFeSH2NC5HCH2SFeHCFeCHCSH3CHC2H3S2HSHSC2HCS2HSFeH2C7HCHFeHS2H2NSHCHCHFeCHC2H3CH5C2HNC2HCFeC2HC2H3CH2CHNSCNCHC2HCH3Fe
_chemical_formula_sum              "Fe128 S256 H768 C768 N64"
_cell_length_a       35.6644
_cell_length_b       45.0283
_cell_length_c       20.3874
_cell_angle_alpha    91.3458
_cell_angle_beta     70.4765
_cell_angle_gamma    80.9069

_space_group_name_H-M_alt    "P 1"
_space_group_IT_number       1

loop_
  _space_group_symop_operation_xyz
  'x, y, z'

loop_
  _atom_site_type_symbol
  _atom_site_label
  _atom_site_symmetry_multiplicity
  _atom_site_fract_x
  _atom_site_fract_y
  _atom_site_fract_z
  _atom_site_occupancy
  Fe  Fe1       1.0  0.05501  0.33299  0.37315  1.0000
  S   S1        1.0  0.10098  0.22418  0.42185  1.0000
  S   S2        1.0  0.87695  0.39198  0.29779  1.0000
  H   H1        1.0  0.32468  0.37911  0.18293  1.0000
  C   C1        1.0  0.10932  0.38897  0.02431  1.0000
  C   C2        1.0  0.00161  0.28692  0.21392  1.0000
  H   H2        1.0  0.99592  0.26487  0.22912  1.0000
  S   S3        1.0  0.31916  0.24608  0.20833  1.0000
  H   H3        1.0  0.20761  0.43506  0.31770  1.0000
  C   C3        1.0  0.14262  0.41278  0.09072  1.0000
  C   C4        1.0  0.01950  0.34326  0.17299  1.0000
  Fe  Fe2       1.0  0.88976  0.20655  0.25156  1.0000
  N   N1        1.0  0.88061  0.31337  0.29758  1.0000
  H   H4        1.0  0.32216  0.41510  0.28740  1.0000
  C   C5        1.0  0.87083  0.31513  0.18652  1.0000
  H   H5        1.0  0.24093  0.26018  0.20292  1.0000
  C   C6        1.0  0.33296  0.29360  0.04081  1.0000
  H   H6        1.0  0.89533  0.37983  0.06443  1.0000
  H   H7        1.0  0.92641  0.33343  0.31928  1.0000
  H   H8        1.0  0.02208  0.29580  0.29871  1.0000
  H   H9        1.0  0.20724  0.34042  0.11190  1.0000
  S   S4        1.0  0.28791  0.20270  0.37283  1.0000
  Fe  Fe3       1.0  0.31348  0.24212  0.32050  1.0000
  S   S5        1.0  0.93359  0.23259  0.27245  1.0000
  N   N2        1.0  0.11467  0.21063  0.23211  1.0000
  H   H10       1.0  0.88486  0.32830  0.39423  1.0000
  C   C7        1.0  0.90476  0.31795  0.34157  1.0000
  H   H11       1.0  0.90782  0.38153  0.44206  1.0000
  C   C8        1.0  0.23620  0.20778  0.38505  1.0000
  H   H12       1.0  0.22977  0.25599  0.38549  1.0000
  H   H13       1.0  0.11900  0.39354  0.45196  1.0000
  H   H14       1.0  0.92054  0.32923  0.20752  1.0000
  S   S6        1.0  0.04718  0.35387  0.27916  1.0000
  Fe  Fe4       1.0  0.91065  0.43025  0.29230  1.0000
  C   C9        1.0  0.22646  0.30229  0.16155  1.0000
  H   H15       1.0  0.28640  0.37397  0.01316  1.0000
  S   S7        1.0  0.22193  0.36071  0.96869  1.0000
  S   S8        1.0  0.17860  0.24789  0.02484  1.0000
  H   H16       1.0  0.89162  0.38554  0.15367  1.0000
  C   C10       1.0  0.97452  0.40505  0.06486  1.0000
  C   C11       1.0  0.19291  0.29974  0.07614  1.0000
  C   C12       1.0  0.21483  0.23686  0.38951  1.0000
  S   S9        1.0  0.97801  0.27544  0.10280  1.0000
  H   H17       1.0  0.02573  0.36533  0.15791  1.0000
  C   C13       1.0  0.22853  0.27116  0.16639  1.0000
  C   C14       1.0  0.34510  0.42801  0.36675  1.0000
  H   H18       1.0  0.14097  0.37504  0.23267  1.0000
  S   S10       1.0  0.92477  0.31756  0.98252  1.0000
  H   H19       1.0  0.09775  0.38875  0.98149  1.0000
  H   H20       1.0  0.11736  0.34866  0.15876  1.0000
  C   C15       1.0  0.26464  0.43521  0.13677  1.0000
  H   H21       1.0  0.24948  0.35737  0.40890  1.0000
  C   C16       1.0  0.31060  0.27946  0.00883  1.0000
  Fe  Fe5       1.0  0.20157  0.19823  0.01342  1.0000
  H   H22       1.0  0.09245  0.34670  0.05952  1.0000
  C   C17       1.0  0.21388  0.25424  0.12460  1.0000
  S   S11       1.0  0.24890  0.32344  0.20663  1.0000
  Fe  Fe6       1.0  0.95746  0.23546  0.15705  1.0000
  H   H23       1.0  0.21491  0.23040  0.12971  1.0000
  S   S12       1.0  0.01966  0.29934  0.43296  1.0000
  H   H24       1.0  0.25306  0.39639  0.19523  1.0000
  H   H25       1.0  0.15740  0.43106  0.09839  1.0000
  C   C18       1.0  0.25033  0.40080  0.45534  1.0000
  H   H26       1.0  0.27897  0.28871  0.02062  1.0000
  C   C19       1.0  0.12028  0.36678  0.12437  1.0000
  S   S13       1.0  0.97501  0.42498  0.22351  1.0000
  S   S14       1.0  0.11469  0.30579  0.36424  1.0000
  H   H27       1.0  0.31846  0.31322  0.07779  1.0000
  C   C20       1.0  0.91298  0.38228  0.09937  1.0000
  C   C21       1.0  0.31632  0.39926  0.15945  1.0000
  Fe  Fe7       1.0  0.07931  0.27436  0.43274  1.0000
  H   H28       1.0  0.09195  0.28151  0.13947  1.0000
  H   H29       1.0  0.12986  0.28294  0.22089  1.0000
  C   C22       1.0  0.89321  0.31994  0.22927  1.0000
  C   C23       1.0  0.09758  0.26175  0.16648  1.0000
  Fe  Fe8       1.0  0.29619  0.29537  0.24012  1.0000
  C   C24       1.0  0.09166  0.21022  0.19034  1.0000
  H   H30       1.0  0.05418  0.43453  0.15224  1.0000
  C   C25       1.0  0.33556  0.40724  0.32558  1.0000
  C   C26       1.0  0.15288  0.21738  0.40862  1.0000
  H   H31       1.0  0.13955  0.41475  0.22481  1.0000
  H   H32       1.0  0.93458  0.36089  0.09329  1.0000
  H   H33       1.0  0.95237  0.21270  0.44142  1.0000
  C   C27       1.0  0.17330  0.24165  0.40321  1.0000
  C   C28       1.0  0.10604  0.36558  0.06837  1.0000
  H   H34       1.0  0.33476  0.36055  0.30301  1.0000
  H   H35       1.0  0.15717  0.26435  0.41179  1.0000
  H   H36       1.0  0.92233  0.29607  0.34687  1.0000
  C   C29       1.0  0.36205  0.41788  0.41670  1.0000
  N   N3        1.0  0.13757  0.39053  0.13574  1.0000
  C   C30       1.0  0.20801  0.31656  0.11723  1.0000
  C   C31       1.0  0.34592  0.41542  0.12209  1.0000
  H   H37       1.0  0.06606  0.23502  0.12127  1.0000
  S   S15       1.0  0.28723  0.29111  0.35337  1.0000
  Fe  Fe9       1.0  0.35113  0.29820  0.32580  1.0000
  C   C32       1.0  0.19654  0.26850  0.07867  1.0000
  H   H38       1.0  0.14517  0.23719  0.27863  1.0000
  H   H39       1.0  0.06219  0.27893  0.01553  1.0000
  C   C33       1.0  0.11893  0.26255  0.21230  1.0000
  C   C34       1.0  0.12762  0.23655  0.24445  1.0000
  C   C35       1.0  0.08345  0.23555  0.15576  1.0000
  N   N4        1.0  0.24227  0.43144  0.45373  1.0000
  H   H40       1.0  0.02645  0.42735  0.03532  1.0000
  C   C36       1.0  0.99654  0.29718  0.15288  1.0000
  H   H41       1.0  0.11588  0.27699  0.98099  1.0000
  C   C37       1.0  0.00566  0.32527  0.13221  1.0000
  C   C38       1.0  0.24369  0.38164  0.40685  1.0000
  C   C39       1.0  0.02554  0.33270  0.23323  1.0000
  C   C40       1.0  0.99391  0.43000  0.04940  1.0000
  C   C41       1.0  0.01637  0.30458  0.25377  1.0000
  H   H42       1.0  0.00174  0.33309  0.08498  1.0000
  C   C42       1.0  0.34289  0.37633  0.33427  1.0000
  H   H43       1.0  0.22307  0.37920  0.31926  1.0000
  C   C43       1.0  0.22854  0.39397  0.35676  1.0000
  H   H44       1.0  0.99261  0.38320  0.06276  1.0000
  C   C44       1.0  0.12821  0.41253  0.03488  1.0000
  N   N5        1.0  0.93345  0.40833  0.08281  1.0000
  C   C45       1.0  0.15148  0.39216  0.19556  1.0000
  H   H45       1.0  0.17975  0.31090  0.04050  1.0000
  S   S16       1.0  0.91063  0.21257  0.13699  1.0000
  C   C46       1.0  0.27575  0.40913  0.16668  1.0000
  N   N6        1.0  0.32857  0.25487  0.96187  1.0000
  H   H46       1.0  0.18505  0.38849  0.17707  1.0000
  C   C47       1.0  0.29894  0.35714  0.96906  1.0000
  C   C48       1.0  0.33495  0.44126  0.09120  1.0000
  H   H47       1.0  0.91755  0.24813  0.45792  1.0000
  C   C49       1.0  0.21986  0.42528  0.35605  1.0000
  H   H48       1.0  0.27252  0.24337  0.96275  1.0000
  H   H49       1.0  0.88116  0.32022  0.13225  1.0000
  H   H50       1.0  0.13190  0.43039  0.99982  1.0000
  H   H51       1.0  0.95988  0.20029  0.98420  1.0000
  S   S17       1.0  0.35840  0.30650  0.21483  1.0000
  C   C50       1.0  0.91075  0.43612  0.08611  1.0000
  H   H52       1.0  0.87816  0.43860  0.10081  1.0000
  C   C51       1.0  0.08915  0.27353  0.96733  1.0000
  H   H53       1.0  0.03036  0.24294  0.97194  1.0000
  C   C52       1.0  0.36041  0.36611  0.38343  1.0000
  H   H54       1.0  0.00880  0.30739  0.96588  1.0000
  H   H55       1.0  0.36056  0.35801  0.95991  1.0000
  H   H56       1.0  0.28831  0.44018  0.96020  1.0000
  C   C53       1.0  0.35723  0.32787  0.87907  1.0000
  H   H57       1.0  0.93340  0.42663  0.68814  1.0000
  C   C54       1.0  0.27332  0.34511  0.94074  1.0000
  C   C55       1.0  0.94035  0.23861  0.93467  1.0000
  S   S18       1.0  0.05056  0.36173  0.46789  1.0000
  C   C56       1.0  0.16238  0.25691  0.56716  1.0000
  C   C57       1.0  0.88911  0.23204  0.88537  1.0000
  Fe  Fe10      1.0  0.12318  0.37451  0.84026  1.0000
  C   C58       1.0  0.91502  0.24987  0.89831  1.0000
  H   H58       1.0  0.02630  0.43734  0.79533  1.0000
  N   N7        1.0  0.32106  0.42561  0.85302  1.0000
  C   C59       1.0  0.98843  0.23532  0.51594  1.0000
  H   H59       1.0  0.31370  0.36387  0.68603  1.0000
  S   S19       1.0  0.18656  0.26939  0.73776  1.0000
  H   H60       1.0  0.26668  0.40741  0.89662  1.0000
  H   H61       1.0  0.03785  0.24197  0.54979  1.0000
  C   C60       1.0  0.29261  0.40639  0.84712  1.0000
  C   C61       1.0  0.03186  0.39969  0.64543  1.0000
  C   C62       1.0  0.10482  0.28791  0.77800  1.0000
  C   C63       1.0  0.13050  0.39986  0.49209  1.0000
  S   S20       1.0  0.88939  0.33952  0.83111  1.0000
  C   C64       1.0  0.12987  0.23532  0.73690  1.0000
  N   N8        1.0  0.94739  0.24045  0.53172  1.0000
  S   S21       1.0  0.15577  0.35646  0.72888  1.0000
  H   H62       1.0  0.08505  0.20904  0.73353  1.0000
  C   C65       1.0  0.15445  0.20473  0.57559  1.0000
  C   C66       1.0  0.06032  0.23031  0.94383  1.0000
  C   C67       1.0  0.31325  0.33848  0.56744  1.0000
  Fe  Fe11      1.0  0.20655  0.37843  0.73628  1.0000
  C   C68       1.0  0.16110  0.41634  0.59453  1.0000
  C   C69       1.0  0.35421  0.42742  0.79598  1.0000
  H   H63       1.0  0.89008  0.26103  0.60515  1.0000
  C   C70       1.0  0.13159  0.22729  0.89996  1.0000
  S   S22       1.0  0.16124  0.34012  0.48884  1.0000
  H   H64       1.0  0.08576  0.28930  0.92808  1.0000
  H   H65       1.0  0.34397  0.29772  0.80952  1.0000
  C   C71       1.0  0.25494  0.43427  0.69297  1.0000
  H   H66       1.0  0.26145  0.39105  0.49487  1.0000
  C   C72       1.0  0.13641  0.19862  0.86720  1.0000
  H   H67       1.0  0.15812  0.23755  0.89317  1.0000
  C   C73       1.0  0.33150  0.31426  0.85406  1.0000
  H   H68       1.0  0.31589  0.32024  0.52771  1.0000
  N   N9        1.0  0.34538  0.33243  0.59758  1.0000
  C   C74       1.0  0.06534  0.28355  0.78820  1.0000
  H   H69       1.0  0.31835  0.42884  0.63202  1.0000
  C   C75       1.0  0.09040  0.23104  0.74628  1.0000
  H   H70       1.0  0.92252  0.37604  0.92670  1.0000
  C   C76       1.0  0.05819  0.25523  0.77168  1.0000
  Fe  Fe12      1.0  0.19826  0.35712  0.88062  1.0000
  N   N10       1.0  0.88861  0.20366  0.90785  1.0000
  H   H71       1.0  0.10474  0.43909  0.74082  1.0000
  H   H72       1.0  0.26974  0.31212  0.86612  1.0000
  H   H73       1.0  0.25971  0.26258  0.50628  1.0000
  N   N11       1.0  0.09388  0.24264  0.93796  1.0000
  H   H74       1.0  0.09107  0.37994  0.64596  1.0000
  H   H75       1.0  0.11006  0.30995  0.79027  1.0000
  S   S23       1.0  0.23621  0.33763  0.77227  1.0000
  H   H76       1.0  0.91932  0.28109  0.68751  1.0000
  C   C77       1.0  0.95288  0.36782  0.92572  1.0000
  C   C78       1.0  0.21954  0.21918  0.55424  1.0000
  H   H77       1.0  0.18823  0.36952  0.58524  1.0000
  C   C79       1.0  0.13715  0.26384  0.75184  1.0000
  H   H78       1.0  0.14918  0.28046  0.56883  1.0000
  S   S24       1.0  0.14668  0.33377  0.88547  1.0000
  H   H79       1.0  0.86999  0.24085  0.85610  1.0000
  C   C80       1.0  0.93126  0.36179  0.51867  1.0000
  C   C81       1.0  0.16958  0.38633  0.56720  1.0000
  S   S25       1.0  0.00899  0.25043  0.78219  1.0000
  C   C82       1.0  0.93878  0.26776  0.63991  1.0000
  C   C83       1.0  0.34095  0.34853  0.93810  1.0000
  Fe  Fe13      1.0  0.18263  0.31731  0.77426  1.0000
  C   C84       1.0  0.92220  0.34867  0.58241  1.0000
  C   C85       1.0  0.13831  0.43822  0.56937  1.0000
  C   C86       1.0  0.02197  0.37553  0.90124  1.0000
  C   C87       1.0  0.31421  0.44193  0.91465  1.0000
  C   C88       1.0  0.06412  0.20155  0.91226  1.0000
  H   H80       1.0  0.15479  0.21659  0.71756  1.0000
  C   C89       1.0  0.00268  0.36047  0.74527  1.0000
  H   H81       1.0  0.10558  0.24140  0.58633  1.0000
  C   C90       1.0  0.98046  0.26255  0.62440  1.0000
  H   H82       1.0  0.27989  0.41384  0.80632  1.0000
  H   H83       1.0  0.04379  0.41416  0.60450  1.0000
  H   H84       1.0  0.90524  0.21673  0.51105  1.0000
  Fe  Fe14      1.0  0.01025  0.20409  0.73991  1.0000
  C   C91       1.0  0.96332  0.41917  0.64656  1.0000
  C   C92       1.0  0.28956  0.32275  0.88524  1.0000
  H   H85       1.0  0.06158  0.33939  0.92351  1.0000
  C   C93       1.0  0.13762  0.23500  0.57708  1.0000
  H   H86       1.0  0.95871  0.40603  0.60387  1.0000
  C   C94       1.0  0.29366  0.44145  0.67517  1.0000
  H   H87       1.0  0.04032  0.30214  0.80818  1.0000
  H   H88       1.0  0.87573  0.33404  0.66705  1.0000
  H   H89       1.0  0.17268  0.42272  0.63449  1.0000
  C   C95       1.0  0.97639  0.38105  0.72362  1.0000
  C   C96       1.0  0.34075  0.34739  0.65976  1.0000
  C   C97       1.0  0.03146  0.34718  0.92367  1.0000
  C   C98       1.0  0.96235  0.33947  0.94876  1.0000
  H   H90       1.0  0.06481  0.34490  0.73510  1.0000
  H   H91       1.0  0.00823  0.22216  0.46811  1.0000
  C   C99       1.0  0.00546  0.24626  0.56211  1.0000
  N   N12       1.0  0.20295  0.24873  0.55408  1.0000
  H   H92       1.0  0.25168  0.21273  0.54429  1.0000
  C   C100      1.0  0.22859  0.27189  0.54195  1.0000
  C   C101      1.0  0.19557  0.19673  0.56490  1.0000
  C   C102      1.0  0.04412  0.36041  0.71799  1.0000
  H   H93       1.0  0.99329  0.27170  0.66009  1.0000
  S   S26       1.0  0.05873  0.39846  0.87262  1.0000
  C   C103      1.0  0.00161  0.32925  0.94792  1.0000
  H   H94       1.0  0.97477  0.40816  0.88672  1.0000
  H   H95       1.0  0.99093  0.34446  0.78243  1.0000
  C   C104      1.0  0.98249  0.38604  0.90315  1.0000
  C   C105      1.0  0.05886  0.38020  0.66800  1.0000
  C   C106      1.0  0.93983  0.20961  0.95702  1.0000
  N   N13       1.0  0.99112  0.40009  0.67374  1.0000
  S   S27       1.0  0.96043  0.33712  0.61670  1.0000
  H   H96       1.0  0.31483  0.36007  0.54223  1.0000
  C   C107      1.0  0.92259  0.25661  0.59264  1.0000
  S   S28       1.0  0.24754  0.40194  0.65296  1.0000
  Fe  Fe15      1.0  0.01832  0.32665  0.52689  1.0000
  C   C108      1.0  0.30464  0.24076  0.92805  1.0000
  S   S29       1.0  0.07446  0.29875  0.53255  1.0000
  H   H97       1.0  0.28307  0.34008  0.60842  1.0000
  H   H98       1.0  0.94422  0.38058  0.74422  1.0000
  C   C109      1.0  0.92967  0.22912  0.48290  1.0000
  S   S30       1.0  0.17200  0.39940  0.84478  1.0000
  C   C110      1.0  0.15357  0.37802  0.51718  1.0000
  H   H99       1.0  0.30807  0.38260  0.83371  1.0000
  C   C111      1.0  0.90068  0.37123  0.49114  1.0000
  H   H100      1.0  0.22964  0.28071  0.59252  1.0000
  H   H101      1.0  0.35950  0.41482  0.74682  1.0000
  H   H102      1.0  0.30557  0.25154  0.87923  1.0000
  H   H103      1.0  0.91627  0.27210  0.87905  1.0000
  Fe  Fe16      1.0  0.87363  0.33279  0.94468  1.0000
  H   H104      1.0  0.21664  0.29094  0.51657  1.0000
  H   H105      1.0  0.96068  0.25236  0.94437  1.0000
  C   C112      1.0  0.12335  0.43015  0.51752  1.0000
  C   C113      1.0  0.88271  0.34442  0.61801  1.0000
  H   H106      1.0  0.31630  0.21612  0.91535  1.0000
  H   H107      1.0  0.27240  0.43987  0.52517  1.0000
  H   H108      1.0  0.97528  0.43967  0.62589  1.0000
  Fe  Fe17      1.0  0.10746  0.33107  0.46432  1.0000
  H   H109      1.0  0.96178  0.36496  0.49072  1.0000
  H   H110      1.0  0.97657  0.68243  0.10725  1.0000
  C   C114      1.0  0.90637  0.57931  0.29889  1.0000
  C   C115      1.0  0.07013  0.46241  0.22234  1.0000
  C   C116      1.0  0.05784  0.47756  0.28859  1.0000
  C   C117      1.0  0.25388  0.64607  0.97067  1.0000
  H   H111      1.0  0.10514  0.67655  0.12677  1.0000
  S   S31       1.0  0.35112  0.64802  0.09875  1.0000
  S   S32       1.0  0.28058  0.61124  0.24464  1.0000
  H   H112      1.0  0.09953  0.46351  0.18520  1.0000
  C   C118      1.0  0.08570  0.64822  0.99064  1.0000
  Fe  Fe18      1.0  0.89962  0.63948  0.99175  1.0000
  S   S33       1.0  0.87700  0.53198  0.01516  1.0000
  H   H113      1.0  0.29980  0.63430  0.01721  1.0000
  H   H114      1.0  0.28634  0.65717  0.41510  1.0000
  S   S34       1.0  0.96857  0.67772  0.30269  1.0000
  C   C119      1.0  0.04727  0.58262  0.18393  1.0000
  N   N14       1.0  0.03273  0.55974  0.22190  1.0000
  H   H115      1.0  0.14070  0.62350  0.24899  1.0000
  H   H116      1.0  0.05717  0.55411  0.02229  1.0000
  C   C120      1.0  0.17352  0.53460  0.24648  1.0000
  H   H117      1.0  0.03481  0.69270  0.13871  1.0000
  C   C121      1.0  0.88864  0.53033  0.32971  1.0000
  H   H118      1.0  0.13858  0.65213  0.05343  1.0000
  H   H119      1.0  0.00964  0.48848  0.38778  1.0000
  C   C122      1.0  0.26855  0.53053  0.32909  1.0000
  Fe  Fe19      1.0  0.17090  0.54748  0.06079  1.0000
  C   C123      1.0  0.04031  0.67812  0.09201  1.0000
  H   H120      1.0  0.00205  0.58357  0.32132  1.0000
  C   C124      1.0  0.91675  0.54782  0.29294  1.0000
  H   H121      1.0  0.27442  0.66641  0.33747  1.0000
  S   S35       1.0  0.88833  0.67914  0.06820  1.0000
  H   H122      1.0  0.95632  0.64076  0.44200  1.0000
  H   H123      1.0  0.05200  0.56240  0.30863  1.0000
  S   S36       1.0  0.94306  0.59738  0.98737  1.0000
  H   H124      1.0  0.16853  0.51167  0.23408  1.0000
  H   H125      1.0  0.28552  0.47184  0.07767  1.0000
  Fe  Fe20      1.0  0.92339  0.64947  0.29472  1.0000
  H   H126      1.0  0.21925  0.46808  0.40571  1.0000
  H   H127      1.0  0.91099  0.48373  0.07604  1.0000
  C   C125      1.0  0.11338  0.67186  0.06947  1.0000
  S   S37       1.0  0.88109  0.44505  0.40618  1.0000
  H   H128      1.0  0.94640  0.53685  0.25989  1.0000
  S   S38       1.0  0.14675  0.59361  0.11770  1.0000
  H   H129      1.0  0.19375  0.62974  0.29971  1.0000
  H   H130      1.0  0.06841  0.59887  0.08179  1.0000
  C   C126      1.0  0.03572  0.53228  0.11734  1.0000
  C   C127      1.0  0.99336  0.46040  0.31754  1.0000
  C   C128      1.0  0.29894  0.66308  0.36021  1.0000
  C   C129      1.0  0.24309  0.61007  0.20722  1.0000
  S   S39       1.0  0.88052  0.66386  0.40315  1.0000
  H   H131      1.0  0.89715  0.50605  0.32539  1.0000
  H   H132      1.0  0.18174  0.54624  0.19777  1.0000
  S   S40       1.0  0.33599  0.46652  0.35510  1.0000
  C   C130      1.0  0.20226  0.62010  0.24652  1.0000
  H   H133      1.0  0.98557  0.47801  0.04357  1.0000
  H   H134      1.0  0.03170  0.51222  0.09189  1.0000
  S   S41       1.0  0.94165  0.60097  0.25171  1.0000
  C   C131      1.0  0.05611  0.58097  0.11166  1.0000
  S   S42       1.0  0.34109  0.54255  0.44357  1.0000
  Fe  Fe21      1.0  0.14372  0.49762  0.99305  1.0000
  H   H135      1.0  0.01672  0.51617  0.21921  1.0000
  H   H136      1.0  0.23713  0.49083  0.22066  1.0000
  H   H137      1.0  0.28506  0.59048  0.10758  1.0000
  Fe  Fe22      1.0  0.20005  0.48160  0.07732  1.0000
  C   C132      1.0  0.26846  0.50712  0.28309  1.0000
  C   C133      1.0  0.02362  0.56237  0.29755  1.0000
  H   H138      1.0  0.88992  0.62390  0.13799  1.0000
  H   H139      1.0  0.29305  0.52963  0.34963  1.0000
  S   S43       1.0  0.13545  0.51909  0.44027  1.0000
  C   C134      1.0  0.05008  0.55571  0.07833  1.0000
  H   H140      1.0  0.05236  0.60221  0.20953  1.0000
  H   H141      1.0  0.12490  0.69143  0.04239  1.0000
  Fe  Fe23      1.0  0.35240  0.49212  0.43331  1.0000
  C   C135      1.0  0.23706  0.55526  0.34808  1.0000
  C   C136      1.0  0.01942  0.47656  0.33661  1.0000
  H   H142      1.0  0.22926  0.64999  0.02020  1.0000
  S   S44       1.0  0.89155  0.68426  0.24589  1.0000
  H   H143      1.0  0.00968  0.54330  0.32287  1.0000
  C   C137      1.0  0.02747  0.53458  0.18944  1.0000
  C   C138      1.0  0.01378  0.65431  0.01388  1.0000
  H   H144      1.0  0.96367  0.45967  0.35424  1.0000
  S   S45       1.0  0.09036  0.49952  0.30591  1.0000
  C   C139      1.0  0.20564  0.55606  0.32122  1.0000
  C   C140      1.0  0.23676  0.50885  0.25684  1.0000
  C   C141      1.0  0.22408  0.59417  0.11022  1.0000
  H   H145      1.0  0.32185  0.64332  0.33073  1.0000
  H   H146      1.0  0.18131  0.57538  0.33613  1.0000
  H   H147      1.0  0.29276  0.48777  0.26744  1.0000
  H   H148      1.0  0.14434  0.54698  0.28347  1.0000
  H   H149      1.0  0.23266  0.58422  0.05762  1.0000
  S   S46       1.0  0.23270  0.52004  0.04112  1.0000
  Fe  Fe24      1.0  0.07924  0.51862  0.41420  1.0000
  C   C142      1.0  0.00719  0.67253  0.07437  1.0000
  S   S47       1.0  0.05533  0.56769  0.44848  1.0000
  H   H150      1.0  0.89375  0.56853  0.13515  1.0000
  C   C143      1.0  0.92909  0.46164  0.07214  1.0000
  C   C144      1.0  0.29423  0.45131  0.09916  1.0000
  N   N15       1.0  0.20569  0.53292  0.27656  1.0000
  S   S48       1.0  0.13842  0.50971  0.10332  1.0000
  N   N16       1.0  0.07891  0.66556  0.05093  1.0000
  Fe  Fe25      1.0  0.34066  0.60753  0.15957  1.0000
  C   C145      1.0  0.97093  0.45847  0.05376  1.0000
  C   C146      1.0  0.35020  0.69348  0.30190  1.0000
  C   C147      1.0  0.25385  0.59785  0.13853  1.0000
  H   H151      1.0  0.23720  0.57399  0.38246  1.0000
  C   C148      1.0  0.17229  0.61673  0.21774  1.0000
  C   C149      1.0  0.18335  0.60312  0.14997  1.0000
  S   S49       1.0  0.21338  0.44838  0.15060  1.0000
  N   N17       1.0  0.31669  0.69048  0.35714  1.0000
  S   S50       1.0  0.86733  0.46198  0.25799  1.0000
  H   H152      1.0  0.30362  0.56593  0.96803  1.0000
  C   C150      1.0  0.29383  0.63735  0.96901  1.0000
  C   C151      1.0  0.00614  0.44504  0.25101  1.0000
  S   S51       1.0  0.20234  0.46613  0.97080  1.0000
  C   C152      1.0  0.04450  0.44612  0.20369  1.0000
  H   H153      1.0  0.35784  0.45378  0.06249  1.0000
  H   H154      1.0  0.98829  0.64991  0.99972  1.0000
  C   C153      1.0  0.05326  0.64210  0.97149  1.0000
  H   H155      1.0  0.33416  0.47524  0.96716  1.0000
  S   S52       1.0  0.09285  0.48444  0.96390  1.0000
  Fe  Fe26      1.0  0.89923  0.57232  0.96203  1.0000
  H   H156      1.0  0.86927  0.52668  0.20108  1.0000
  C   C154      1.0  0.86756  0.59318  0.34125  1.0000
  H   H157      1.0  0.36387  0.67569  0.25994  1.0000
  C   C155      1.0  0.86655  0.58305  0.16906  1.0000
  C   C156      1.0  0.22666  0.44379  0.40563  1.0000
  C   C157      1.0  0.87217  0.50299  0.96049  1.0000
  S   S53       1.0  0.17175  0.53766  0.95246  1.0000
  H   H158      1.0  0.08668  0.45648  0.82903  1.0000
  Fe  Fe27      1.0  0.09936  0.50626  0.54451  1.0000
  H   H159      1.0  0.24226  0.62838  0.57603  1.0000
  H   H160      1.0  0.88723  0.58309  0.54014  1.0000
  H   H161      1.0  0.25803  0.47214  0.48386  1.0000
  C   C158      1.0  0.31742  0.63531  0.84291  1.0000
  H   H162      1.0  0.05867  0.62810  0.92397  1.0000
  C   C159      1.0  0.05173  0.56109  0.84954  1.0000
  H   H163      1.0  0.01215  0.54030  0.71767  1.0000
  C   C160      1.0  0.88377  0.50443  0.88816  1.0000
  H   H164      1.0  0.07648  0.51579  0.72982  1.0000
  C   C161      1.0  0.94116  0.66549  0.54186  1.0000
  C   C162      1.0  0.21426  0.55976  0.57099  1.0000
  C   C163      1.0  0.09295  0.55229  0.83782  1.0000
  C   C164      1.0  0.11138  0.66478  0.62876  1.0000
  C   C165      1.0  0.24839  0.45118  0.50613  1.0000
  C   C166      1.0  0.95884  0.61096  0.52210  1.0000
  S   S54       1.0  0.32566  0.48811  0.54819  1.0000
  S   S55       1.0  0.92633  0.57475  0.84658  1.0000
  H   H165      1.0  0.96218  0.46050  0.78184  1.0000
  H   H166      1.0  0.22027  0.53717  0.58653  1.0000
  S   S56       1.0  0.96374  0.57347  0.62344  1.0000
  H   H167      1.0  0.10258  0.62903  0.75645  1.0000
  H   H168      1.0  0.34163  0.62953  0.79370  1.0000
  C   C167      1.0  0.06701  0.62925  0.64815  1.0000
  S   S57       1.0  0.07636  0.55380  0.58971  1.0000
  C   C168      1.0  0.10620  0.52715  0.86880  1.0000
  H   H169      1.0  0.32881  0.67090  0.66750  1.0000
  H   H170      1.0  0.86980  0.52314  0.72210  1.0000
  S   S58       1.0  0.92602  0.64662  0.87835  1.0000
  C   C169      1.0  0.27784  0.64487  0.84447  1.0000
  Fe  Fe28      1.0  0.10848  0.56671  0.48344  1.0000
  H   H171      1.0  0.11628  0.47516  0.75786  1.0000
  C   C170      1.0  0.23428  0.58201  0.58544  1.0000
  H   H172      1.0  0.11456  0.56504  0.80582  1.0000
  H   H173      1.0  0.24198  0.59910  0.77065  1.0000
  C   C171      1.0  0.23723  0.58178  0.80913  1.0000
  S   S59       1.0  0.28118  0.50136  0.83427  1.0000
  H   H174      1.0  0.19281  0.44655  0.75977  1.0000
  C   C172      1.0  0.26994  0.47877  0.77462  1.0000
  H   H175      1.0  0.33939  0.59841  0.62560  1.0000
  S   S60       1.0  0.14298  0.60467  0.47460  1.0000
  C   C173      1.0  0.12009  0.62276  0.70030  1.0000
  H   H176      1.0  0.19343  0.64046  0.51346  1.0000
  C   C174      1.0  0.34288  0.55566  0.86102  1.0000
  H   H177      1.0  0.88964  0.48201  0.78965  1.0000
  H   H178      1.0  0.15120  0.62757  0.68841  1.0000
  H   H179      1.0  0.12313  0.59799  0.68956  1.0000
  H   H180      1.0  0.20619  0.48511  0.83323  1.0000
  C   C175      1.0  0.32565  0.63220  0.90492  1.0000
  H   H181      1.0  0.21058  0.59165  0.85521  1.0000
  H   H182      1.0  0.89458  0.52392  0.86476  1.0000
  C   C176      1.0  0.30099  0.46404  0.71558  1.0000
  N   N18       1.0  0.05501  0.47518  0.76372  1.0000
  C   C177      1.0  0.30559  0.56484  0.91379  1.0000
  S   S61       1.0  0.26945  0.57318  0.62769  1.0000
  H   H183      1.0  0.27178  0.64715  0.79611  1.0000
  C   C178      1.0  0.94184  0.63499  0.63832  1.0000
  Fe  Fe29      1.0  0.96696  0.60264  0.87226  1.0000
  C   C179      1.0  0.07821  0.51131  0.91248  1.0000
  C   C180      1.0  0.23070  0.47302  0.78933  1.0000
  C   C181      1.0  0.06023  0.66944  0.57458  1.0000
  H   H184      1.0  0.04543  0.68078  0.54105  1.0000
  C   C182      1.0  0.22647  0.61121  0.56541  1.0000
  H   H185      1.0  0.05643  0.60971  0.67318  1.0000
  C   C183      1.0  0.19889  0.61805  0.53013  1.0000
  C   C184      1.0  0.95225  0.63925  0.49674  1.0000
  H   H186      1.0  0.92711  0.68362  0.64778  1.0000
  H   H187      1.0  0.02322  0.63496  0.59573  1.0000
  H   H188      1.0  0.86802  0.62227  0.65759  1.0000
  C   C185      1.0  0.34010  0.46159  0.91929  1.0000
  S   S62       1.0  0.04481  0.50192  0.51600  1.0000
  Fe  Fe30      1.0  0.88282  0.61819  0.86331  1.0000
  H   H189      1.0  0.88736  0.57223  0.74576  1.0000
  C   C186      1.0  0.35438  0.61641  0.59743  1.0000
  C   C187      1.0  0.09204  0.68028  0.58693  1.0000
  H   H190      1.0  0.93762  0.63332  0.69315  1.0000
  C   C188      1.0  0.34517  0.55493  0.79131  1.0000
  H   H191      1.0  0.31161  0.56216  0.72147  1.0000
  Fe  Fe31      1.0  0.23023  0.50672  0.93600  1.0000
  Fe  Fe32      1.0  0.32000  0.53836  0.55866  1.0000
  S   S63       1.0  0.12919  0.47553  0.60311  1.0000
  C   C189      1.0  0.09251  0.46086  0.77338  1.0000
  C   C190      1.0  0.05138  0.50362  0.74159  1.0000
  C   C191      1.0  0.35667  0.65927  0.67205  1.0000
  C   C192      1.0  0.98298  0.50193  0.74792  1.0000
  H   H192      1.0  0.21996  0.45723  0.55159  1.0000
  S   S64       1.0  0.18569  0.68576  0.73014  1.0000
  C   C193      1.0  0.36250  0.67984  0.49148  1.0000
  H   H193      1.0  0.01583  0.50607  0.95144  1.0000
  C   C194      1.0  0.93598  0.66337  0.61267  1.0000
  C   C195      1.0  0.30998  0.56374  0.77542  1.0000
  C   C196      1.0  0.88106  0.48054  0.84548  1.0000
  S   S65       1.0  0.19662  0.66214  0.90940  1.0000
  C   C197      1.0  0.98705  0.47285  0.77003  1.0000
  N   N19       1.0  0.27364  0.57317  0.82744  1.0000
  H   H194      1.0  0.13806  0.51999  0.85868  1.0000
  C   C198      1.0  0.18580  0.56685  0.53769  1.0000
  H   H195      1.0  0.24228  0.58124  0.93701  1.0000
  H   H196      1.0  0.96750  0.59074  0.48695  1.0000
  N   N20       1.0  0.09935  0.63918  0.65738  1.0000
  H   H197      1.0  0.13640  0.67313  0.63731  1.0000
  C   C199      1.0  0.22316  0.45096  0.74812  1.0000
  S   S66       1.0  0.28260  0.68713  0.56903  1.0000
  H   H198      1.0  0.17002  0.54965  0.52776  1.0000
  H   H199      1.0  0.33114  0.46905  0.70308  1.0000
  C   C200      1.0  0.04755  0.64380  0.60550  1.0000
  C   C201      1.0  0.24602  0.65032  0.90834  1.0000
  C   C202      1.0  0.02428  0.54362  0.88827  1.0000
  Fe  Fe33      1.0  0.02479  0.55112  0.55235  1.0000
  C   C203      1.0  0.27106  0.57366  0.89594  1.0000
  H   H200      1.0  0.99277  0.54910  0.89413  1.0000
  C   C204      1.0  0.02344  0.45982  0.77781  1.0000
  S   S67       1.0  0.03397  0.59426  0.81811  1.0000
  C   C205      1.0  0.03747  0.51878  0.91973  1.0000
  H   H201      1.0  0.23045  0.56161  0.78567  1.0000
  C   C206      1.0  0.95371  0.60879  0.59280  1.0000
  C   C207      1.0  0.01525  0.51749  0.73387  1.0000
  H   H202      1.0  0.95488  0.51257  0.74197  1.0000
  C   C208      1.0  0.17824  0.59594  0.51692  1.0000
  C   C209      1.0  0.86689  0.45493  0.87473  1.0000
  H   H203      1.0  0.10629  0.44712  0.49704  1.0000
  H   H204      1.0  0.33096  0.63252  0.58564  1.0000
  H   H205      1.0  0.11643  0.63901  0.95716  1.0000
  H   H206      1.0  0.35667  0.66213  0.46133  1.0000
  Fe  Fe34      1.0  0.30533  0.90248  0.17231  1.0000
  S   S68       1.0  0.24683  0.90208  0.15434  1.0000
  C   C210      1.0  0.17790  0.86497  0.97489  1.0000
  C   C211      1.0  0.29857  0.71350  0.40843  1.0000
  H   H207      1.0  0.94524  0.78107  0.30411  1.0000
  H   H208      1.0  0.27130  0.71151  0.45108  1.0000
  C   C212      1.0  0.35454  0.90901  0.40514  1.0000
  H   H209      1.0  0.32606  0.84057  0.19951  1.0000
  C   C213      1.0  0.17672  0.87289  0.04247  1.0000
  H   H210      1.0  0.94577  0.90471  0.33855  1.0000
  C   C214      1.0  0.89157  0.78944  0.19359  1.0000
  C   C215      1.0  0.35020  0.74249  0.35254  1.0000
  Fe  Fe35      1.0  0.92280  0.69471  0.40822  1.0000
  H   H211      1.0  0.08372  0.91722  0.10133  1.0000
  C   C216      1.0  0.87983  0.90547  0.30255  1.0000
  H   H212      1.0  0.08710  0.90243  0.98201  1.0000
  C   C217      1.0  0.08310  0.92327  0.28636  1.0000
  S   S69       1.0  0.02203  0.91604  0.23854  1.0000
  C   C218      1.0  0.91472  0.92952  0.11547  1.0000
  H   H213      1.0  0.36380  0.76253  0.35093  1.0000
  H   H214      1.0  0.06482  0.85602  0.23600  1.0000
  S   S70       1.0  0.89067  0.73287  0.36807  1.0000
  C   C219      1.0  0.90313  0.90939  0.07590  1.0000
  C   C220      1.0  0.91947  0.90086  0.38116  1.0000
  H   H215      1.0  0.89191  0.78030  0.14386  1.0000
  H   H216      1.0  0.35488  0.79766  0.25217  1.0000
  H   H217      1.0  0.12526  0.83743  0.26815  1.0000
  C   C221      1.0  0.11253  0.89407  0.99837  1.0000
  H   H218      1.0  0.88589  0.81748  0.37864  1.0000
  H   H219      1.0  0.87696  0.88381  0.27894  1.0000
  C   C222      1.0  0.07942  0.87187  0.25505  1.0000
  C   C223      1.0  0.35821  0.83210  0.17980  1.0000
  C   C224      1.0  0.14282  0.89194  0.08814  1.0000
  S   S71       1.0  0.17683  0.86897  0.31535  1.0000
  C   C225      1.0  0.11345  0.86137  0.27345  1.0000
  C   C226      1.0  0.97246  0.76899  0.98856  1.0000
  C   C227      1.0  0.13273  0.88188  0.29699  1.0000
  H   H220      1.0  0.35844  0.86263  0.42921  1.0000
  C   C228      1.0  0.11038  0.90249  0.06619  1.0000
  C   C229      1.0  0.92146  0.78977  0.28414  1.0000
  C   C230      1.0  0.92272  0.77845  0.21883  1.0000
  C   C231      1.0  0.11745  0.91281  0.30359  1.0000
  C   C232      1.0  0.95230  0.74429  0.99882  1.0000
  H   H221      1.0  0.13156  0.92868  0.32323  1.0000
  N   N21       1.0  0.88331  0.90094  0.37136  1.0000
  H   H222      1.0  0.93892  0.73737  0.05104  1.0000
  C   C233      1.0  0.06425  0.90281  0.26171  1.0000
  C   C234      1.0  0.31545  0.73957  0.40774  1.0000
  Fe  Fe36      1.0  0.93320  0.71374  0.26173  1.0000
  H   H223      1.0  0.97457  0.78097  0.03371  1.0000
  S   S72       1.0  0.28038  0.89615  0.28668  1.0000
  S   S73       1.0  0.95655  0.74517  0.17974  1.0000
  C   C235      1.0  0.88769  0.81012  0.32662  1.0000
  H   H224      1.0  0.94422  0.92464  0.12125  1.0000
  H   H225      1.0  0.92330  0.88850  0.05145  1.0000
  Fe  Fe37      1.0  0.22089  0.89957  0.27013  1.0000
  H   H226      1.0  0.16470  0.91649  0.43034  1.0000
  H   H227      1.0  0.30177  0.75721  0.45002  1.0000
  H   H228      1.0  0.14159  0.89838  0.14056  1.0000
  H   H229      1.0  0.20189  0.86428  0.05938  1.0000
  H   H230      1.0  0.90654  0.91366  0.26678  1.0000
  C   C236      1.0  0.86569  0.91672  0.06644  1.0000
  H   H231      1.0  0.95189  0.89572  0.45385  1.0000
  C   C237      1.0  0.92318  0.89573  0.44633  1.0000
  H   H232      1.0  0.33698  0.91785  0.45842  1.0000
  C   C238      1.0  0.29041  0.82490  0.63679  1.0000
  S   S74       1.0  0.20465  0.75323  0.68946  1.0000
  C   C239      1.0  0.96741  0.73730  0.87441  1.0000
  H   H233      1.0  0.95822  0.82594  0.67716  1.0000
  C   C240      1.0  0.18827  0.84259  0.58302  1.0000
  C   C241      1.0  0.11681  0.80257  0.75415  1.0000
  H   H234      1.0  0.04196  0.79335  0.69108  1.0000
  H   H235      1.0  0.97573  0.83386  0.78337  1.0000
  S   S75       1.0  0.25757  0.71205  0.76959  1.0000
  H   H236      1.0  0.89218  0.88634  0.55214  1.0000
  H   H237      1.0  0.86765  0.79902  0.50391  1.0000
  H   H238      1.0  0.31427  0.73260  0.62835  1.0000
  C   C242      1.0  0.36447  0.85899  0.87480  1.0000
  S   S76       1.0  0.93294  0.70086  0.51015  1.0000
  H   H239      1.0  0.25226  0.85874  0.82908  1.0000
  C   C243      1.0  0.86567  0.85917  0.78882  1.0000
  Fe  Fe38      1.0  0.15156  0.73325  0.75314  1.0000
  H   H240      1.0  0.00162  0.76860  0.81374  1.0000
  S   S77       1.0  0.92819  0.86191  0.92036  1.0000
  S   S78       1.0  0.02707  0.89603  0.88798  1.0000
  S   S79       1.0  0.98070  0.90875  0.77427  1.0000
  S   S80       1.0  0.09655  0.88636  0.69508  1.0000
  C   C244      1.0  0.94964  0.72848  0.94136  1.0000
  C   C245      1.0  0.93499  0.83606  0.72521  1.0000
  C   C246      1.0  0.87465  0.77821  0.52893  1.0000
  H   H241      1.0  0.93403  0.70932  0.94888  1.0000
  H   H242      1.0  0.30080  0.81551  0.58315  1.0000
  C   C247      1.0  0.06528  0.83468  0.69308  1.0000
  C   C248      1.0  0.19863  0.89343  0.55878  1.0000
  H   H243      1.0  0.96611  0.72491  0.82915  1.0000
  H   H244      1.0  0.17406  0.87753  0.84431  1.0000
  H   H245      1.0  0.14138  0.84330  0.75328  1.0000
  C   C249      1.0  0.09414  0.84848  0.70884  1.0000
  Fe  Fe39      1.0  0.23991  0.70654  0.67479  1.0000
  Fe  Fe40      1.0  0.04181  0.91032  0.77913  1.0000
  H   H246      1.0  0.20422  0.84996  0.93971  1.0000
  H   H247      1.0  0.90116  0.76312  0.49125  1.0000
  H   H248      1.0  0.00840  0.81544  0.86753  1.0000
  H   H249      1.0  0.14593  0.93765  0.51509  1.0000
  S   S81       1.0  0.09064  0.74943  0.74486  1.0000
  Fe  Fe41      1.0  0.28041  0.92483  0.63231  1.0000
  H   H250      1.0  0.04488  0.84730  0.67043  1.0000
  C   C250      1.0  0.32009  0.93832  0.85666  1.0000
  S   S82       1.0  0.23210  0.79970  0.82853  1.0000
  H   H251      1.0  0.21952  0.86791  0.63197  1.0000
  H   H252      1.0  0.33622  0.85109  0.89868  1.0000
  S   S83       1.0  0.21639  0.93095  0.70503  1.0000
  C   C251      1.0  0.91487  0.85333  0.84781  1.0000
  H   H253      1.0  0.12082  0.87708  0.87135  1.0000
  C   C252      1.0  0.89540  0.84556  0.72674  1.0000
  H   H254      1.0  0.15325  0.82417  0.52931  1.0000
  C   C253      1.0  0.94480  0.84023  0.78553  1.0000
  C   C254      1.0  0.16681  0.84331  0.53686  1.0000
  C   C255      1.0  0.87523  0.86265  0.84956  1.0000
  C   C256      1.0  0.06331  0.80431  0.70548  1.0000
  C   C257      1.0  0.33869  0.71935  0.58593  1.0000
  C   C258      1.0  0.14907  0.86805  0.88149  1.0000
  C   C259      1.0  0.08967  0.78809  0.73491  1.0000
  C   C260      1.0  0.25807  0.81986  0.76048  1.0000
  H   H255      1.0  0.13584  0.79077  0.78007  1.0000
  Fe  Fe42      1.0  0.21785  0.75746  0.78900  1.0000
  C   C261      1.0  0.88969  0.89049  0.50140  1.0000
  Fe  Fe43      1.0  0.96446  0.89839  0.88600  1.0000
  S   S84       1.0  0.16236  0.74053  0.85369  1.0000
  C   C262      1.0  0.11958  0.83251  0.73997  1.0000
  C   C263      1.0  0.26256  0.84926  0.77561  1.0000
  H   H256      1.0  0.27521  0.92014  0.93694  1.0000
  C   C264      1.0  0.27983  0.86674  0.72150  1.0000
  C   C265      1.0  0.20405  0.86785  0.59447  1.0000
  C   C266      1.0  0.98737  0.76208  0.86601  1.0000
  C   C267      1.0  0.16179  0.86933  0.50226  1.0000
  S   S85       1.0  0.31022  0.87814  0.58490  1.0000
  C   C268      1.0  0.29313  0.85477  0.65207  1.0000
  S   S86       1.0  0.88332  0.84065  0.65090  1.0000
  H   H257      1.0  0.27029  0.78451  0.67931  1.0000
  C   C269      1.0  0.27271  0.80747  0.69110  1.0000
  N   N22       1.0  0.98927  0.77778  0.92277  1.0000
  H   H258      1.0  0.15529  0.84310  0.87037  1.0000
  C   C270      1.0  0.17150  0.92137  0.47846  1.0000
  C   C271      1.0  0.33087  0.69668  0.54667  1.0000
  H   H259      1.0  0.10200  0.70034  0.56367  1.0000
  H   H260      1.0  0.19161  0.82286  0.61153  1.0000
  H   H261      1.0  0.31923  0.92319  0.81527  1.0000
  H   H262      1.0  0.28269  0.88955  0.73376  1.0000
  C   C272      1.0  0.29567  0.93626  0.92521  1.0000
  N   N23       1.0  0.17809  0.89380  0.51288  1.0000
  H   H263      1.0  0.21050  0.91315  0.56850  1.0000
  H   H264      1.0  0.88310  0.78518  0.57403  1.0000
  H   H265      1.0  0.14455  0.86988  0.46728  1.0000
  H   H266      1.0  0.36150  0.69596  0.73702  1.0000
  C   C273      1.0  0.01170  0.80292  0.91225  1.0000
  N   N24       1.0  0.14622  0.87584  0.95344  1.0000
  H   H267      1.0  0.04434  0.79419  0.90105  1.0000
  Fe  Fe44      1.0  0.20070  0.69457  0.82635  1.0000
  H   H268      1.0  0.19896  0.93207  0.46296  1.0000
  H   H269      1.0  0.35344  0.89274  0.95897  1.0000
  H   H270      1.0  0.99995  0.81958  0.95863  1.0000
  H   H271      1.0  0.14753  0.00219  0.26102  1.0000
  H   H272      1.0  0.35908  0.16002  0.27509  1.0000
  C   C274      1.0  0.11917  0.00761  0.24905  1.0000
  Fe  Fe45      1.0  0.00378  0.01937  0.36577  1.0000
  N   N25       1.0  0.17597  0.07980  0.43957  1.0000
  H   H273      1.0  0.33380  0.04484  0.24451  1.0000
  C   C275      1.0  0.09924  0.09855  0.19966  1.0000
  C   C276      1.0  0.03177  0.08313  0.38338  1.0000
  H   H274      1.0  0.08987  0.02838  0.15084  1.0000
  S   S87       1.0  0.02626  0.96497  0.00679  1.0000
  H   H275      1.0  0.23192  0.16073  0.39198  1.0000
  H   H276      1.0  0.07145  0.94720  0.29151  1.0000
  H   H277      1.0  0.07999  0.98345  0.07355  1.0000
  C   C277      1.0  0.12215  0.06103  0.26685  1.0000
  S   S88       1.0  0.01985  0.00581  0.25186  1.0000
  H   H278      1.0  0.09536  0.05406  0.00199  1.0000
  C   C278      1.0  0.22728  0.05988  0.20423  1.0000
  H   H279      1.0  0.13401  0.05552  0.30837  1.0000
  H   H280      1.0  0.98831  0.05975  0.03126  1.0000
  C   C279      1.0  0.09731  0.97622  0.01940  1.0000
  H   H281      1.0  0.23568  0.01239  0.21993  1.0000
  H   H282      1.0  0.90097  0.11193  0.32552  1.0000
  C   C280      1.0  0.29828  0.95478  0.97882  1.0000
  H   H283      1.0  0.31698  0.12259  0.01059  1.0000
  C   C281      1.0  0.02401  0.12558  0.99989  1.0000
  H   H284      1.0  0.29852  0.99679  0.06836  1.0000
  S   S89       1.0  0.35256  0.08549  0.33424  1.0000
  S   S90       1.0  0.29584  0.95279  0.18831  1.0000
  S   S91       1.0  0.93383  0.98153  0.29376  1.0000
  C   C282      1.0  0.87421  0.11761  0.37191  1.0000
  H   H285      1.0  0.07611  0.08153  0.12422  1.0000
  H   H286      1.0  0.12287  0.10863  0.28044  1.0000
  S   S92       1.0  0.94274  0.05804  0.19421  1.0000
  C   C283      1.0  0.31014  0.04775  0.42077  1.0000
  C   C284      1.0  0.87365  0.02814  0.09391  1.0000
  H   H287      1.0  0.35275  0.98440  0.03521  1.0000
  H   H288      1.0  0.03446  0.13304  0.09649  1.0000
  C   C285      1.0  0.01367  0.08957  0.33278  1.0000
  C   C286      1.0  0.02142  0.14197  0.34123  1.0000
  S   S93       1.0  0.01676  0.17862  0.31408  1.0000
  C   C287      1.0  0.08969  0.07587  0.16352  1.0000
  C   C288      1.0  0.04471  0.10622  0.41260  1.0000
  S   S94       1.0  0.97117  0.13490  0.03705  1.0000
  H   H289      1.0  0.18667  0.03740  0.05897  1.0000
  C   C289      1.0  0.32573  0.15258  0.14074  1.0000
  C   C290      1.0  0.90144  0.05191  0.17091  1.0000
  C   C291      1.0  0.29780  0.13679  0.25823  1.0000
  C   C292      1.0  0.19671  0.05173  0.41085  1.0000
  C   C293      1.0  0.09043  0.12404  0.00945  1.0000
  H   H290      1.0  0.10890  0.12646  0.04104  1.0000
  N   N26       1.0  0.04909  0.04183  0.96788  1.0000
  C   C294      1.0  0.35491  0.16451  0.08876  1.0000
  Fe  Fe46      1.0  0.95464  0.16969  0.12693  1.0000
  Fe  Fe47      1.0  0.92485  0.99566  0.40504  1.0000
  H   H291      1.0  0.15817  0.16914  0.40906  1.0000
  C   C295      1.0  0.34320  0.10713  0.97786  1.0000
  C   C296      1.0  0.22575  0.02949  0.19006  1.0000
  H   H292      1.0  0.15190  0.18346  0.27902  1.0000
  S   S95       1.0  0.04037  0.04601  0.40714  1.0000
  C   C297      1.0  0.29078  0.00377  0.37846  1.0000
  Fe  Fe48      1.0  0.97564  0.18829  0.25206  1.0000
  H   H293      1.0  0.12999  0.16282  0.22998  1.0000
  C   C298      1.0  0.32262  0.03832  0.29733  1.0000
  Fe  Fe49      1.0  0.26604  0.94657  0.30152  1.0000
  C   C299      1.0  0.00816  0.11900  0.31217  1.0000
  H   H294      1.0  0.18751  0.09092  0.08622  1.0000
  H   H295      1.0  0.30195  0.14403  0.12819  1.0000
  C   C300      1.0  0.01738  0.04900  0.03652  1.0000
  S   S96       1.0  0.92995  0.16159  0.24028  1.0000
  H   H296      1.0  0.19938  0.11462  0.37927  1.0000
  H   H297      1.0  0.93697  0.02070  0.08193  1.0000
  H   H298      1.0  0.23895  0.06613  0.24423  1.0000
  S   S97       1.0  0.94035  0.04118  0.38052  1.0000
  N   N27       1.0  0.32746  0.15109  0.20658  1.0000
  C   C301      1.0  0.19749  0.10541  0.43015  1.0000
  S   S98       1.0  0.20458  0.94962  0.29400  1.0000
  Fe  Fe50      1.0  0.21864  0.14103  0.08141  1.0000
  C   C302      1.0  0.11572  0.09113  0.25152  1.0000
  C   C303      1.0  0.87182  0.10691  0.02586  1.0000
  C   C304      1.0  0.17706  0.02682  0.41979  1.0000
  H   H299      1.0  0.00462  0.07184  0.30819  1.0000
  C   C305      1.0  0.32618  0.99452  0.02136  1.0000
  H   H300      1.0  0.15394  0.98477  0.02660  1.0000
  C   C306      1.0  0.21144  0.02142  0.13714  1.0000
  C   C307      1.0  0.90701  0.03244  0.11259  1.0000
  H   H301      1.0  0.22877  0.04849  0.38175  1.0000
  C   C308      1.0  0.09713  0.04592  0.17943  1.0000
  H   H302      1.0  0.28046  0.95206  0.03208  1.0000
  S   S99       1.0  0.26986  0.97092  0.39512  1.0000
  H   H303      1.0  0.99459  0.12365  0.27259  1.0000
  C   C309      1.0  0.04006  0.13545  0.39087  1.0000
  H   H304      1.0  0.34376  0.07781  0.05963  1.0000
  C   C310      1.0  0.19936  0.07384  0.11385  1.0000
  H   H305      1.0  0.26670  0.14672  0.26097  1.0000
  C   C311      1.0  0.07818  0.96587  0.97564  1.0000
  S   S100      1.0  0.98698  0.97475  0.39954  1.0000
  H   H306      1.0  0.09347  0.00420  0.29537  1.0000
  H   H307      1.0  0.09306  0.12191  0.18862  1.0000
  C   C312      1.0  0.04827  0.12809  0.04069  1.0000
  C   C313      1.0  0.35761  0.16144  0.22291  1.0000
  Fe  Fe51      1.0  0.95538  0.02535  0.26844  1.0000
  C   C314      1.0  0.13901  0.97692  0.99294  1.0000
  Fe  Fe52      1.0  0.23519  0.95200  0.17980  1.0000
  S   S101      1.0  0.24486  0.11323  0.97866  1.0000
  H   H308      1.0  0.01269  0.02811  0.06385  1.0000
  S   S102      1.0  0.20815  0.98398  0.11918  1.0000
  C   C315      1.0  0.19824  0.04359  0.09922  1.0000
  C   C316      1.0  0.29274  0.02172  0.43379  1.0000
  Fe  Fe53      1.0  0.99702  0.96320  0.28669  1.0000
  C   C317      1.0  0.32600  0.05557  0.35228  1.0000
  H   H309      1.0  0.30270  0.99935  0.26777  1.0000
  H   H310      1.0  0.12194  0.99126  0.20521  1.0000
  N   N28       1.0  0.11318  0.03886  0.23058  1.0000
  C   C318      1.0  0.21570  0.18323  0.39334  1.0000
  S   S103      1.0  0.21685  0.11997  0.18085  1.0000
  H   H311      1.0  0.91309  0.17004  0.96206  1.0000
  C   C319      1.0  0.21443  0.08201  0.16548  1.0000
  C   C320      1.0  0.30499  0.01247  0.31045  1.0000
  H   H312      1.0  0.02463  0.06542  0.06987  1.0000
  H   H313      1.0  0.30344  0.11214  0.24361  1.0000
  H   H314      1.0  0.04981  0.15327  0.41424  1.0000
  S   S104      1.0  0.16377  0.16353  0.05966  1.0000
  H   H315      1.0  0.29971  0.13990  0.31122  1.0000
  H   H316      1.0  0.22863  0.09838  0.43130  1.0000
  C   C321      1.0  0.12424  0.18336  0.26545  1.0000
  S   S105      1.0  0.25418  0.17779  0.04365  1.0000
  H   H317      1.0  0.90260  0.10448  0.02612  1.0000
  H   H318      1.0  0.89685  0.97230  0.17728  1.0000
  N   N29       1.0  0.32335  0.97563  0.96433  1.0000
  H   H319      1.0  0.32976  0.01766  0.00573  1.0000
  S   S106      1.0  0.00290  0.19348  0.13820  1.0000
  H   H320      1.0  0.35607  0.95272  0.36607  1.0000
  H   H321      1.0  0.35379  0.16529  0.03628  1.0000
  C   C322      1.0  0.88834  0.95623  0.14673  1.0000
  H   H322      1.0  0.19398  0.00445  0.39903  1.0000
  H   H323      1.0  0.09860  0.18205  0.31405  1.0000
  C   C323      1.0  0.17408  0.18798  0.40367  1.0000
  H   H324      1.0  0.07994  0.19008  0.18300  1.0000
  H   H325      1.0  0.87795  0.01322  0.04861  1.0000
  H   H326      1.0  0.88495  0.16207  0.39319  1.0000
  C   C324      1.0  0.35826  0.08172  0.00551  1.0000
  H   H327      1.0  0.94786  0.12695  0.45619  1.0000
  H   H328      1.0  0.05769  0.10187  0.45281  1.0000
  H   H329      1.0  0.88060  0.06282  0.97400  1.0000
  C   C325      1.0  0.86528  0.14559  0.40981  1.0000
  C   C326      1.0  0.13575  0.03089  0.45718  1.0000
  C   C327      1.0  0.10860  0.02844  0.83690  1.0000
  H   H330      1.0  0.34588  0.99742  0.70607  1.0000
  H   H331      1.0  0.29343  0.10304  0.71953  1.0000
  S   S107      1.0  0.94402  0.94695  0.92804  1.0000
  S   S108      1.0  0.21979  0.00273  0.71563  1.0000
  H   H332      1.0  0.03368  0.96867  0.63928  1.0000
  H   H333      1.0  0.07476  0.08687  0.69428  1.0000
  H   H334      1.0  0.97638  0.96777  0.60858  1.0000
  S   S109      1.0  0.03403  0.16305  0.78297  1.0000
  H   H335      1.0  0.14857  0.04230  0.88626  1.0000
  H   H336      1.0  0.20130  0.07824  0.57670  1.0000
  C   C328      1.0  0.11460  0.05974  0.48457  1.0000
  H   H337      1.0  0.10589  0.16415  0.84563  1.0000
  C   C329      1.0  0.17492  0.06809  0.60056  1.0000
  S   S110      1.0  0.16098  0.11331  0.89664  1.0000
  Fe  Fe54      1.0  0.19239  0.13809  0.95406  1.0000
  Fe  Fe55      1.0  0.20578  0.97056  0.64579  1.0000
  C   C330      1.0  0.89891  0.10769  0.52414  1.0000
  H   H338      1.0  0.08250  0.06313  0.51386  1.0000
  H   H339      1.0  0.92355  0.99193  0.56439  1.0000
  S   S111      1.0  0.30030  0.95332  0.70180  1.0000
  Fe  Fe56      1.0  0.27605  0.15187  0.93946  1.0000
  H   H340      1.0  0.22255  0.04187  0.83614  1.0000
  S   S112      1.0  0.94483  0.12139  0.86167  1.0000
  H   H341      1.0  0.27100  0.02900  0.89772  1.0000
  H   H342      1.0  0.96797  0.07536  0.56170  1.0000
  H   H343      1.0  0.87462  0.94879  0.84258  1.0000
  H   H344      1.0  0.12018  0.01173  0.46538  1.0000
  C   C331      1.0  0.17836  0.03662  0.59678  1.0000
  S   S113      1.0  0.02831  0.95962  0.81168  1.0000
  S   S114      1.0  0.95436  0.18759  0.73988  1.0000
  C   C332      1.0  0.34628  0.95918  0.84229  1.0000
  C   C333      1.0  0.04220  0.11661  0.92863  1.0000
  C   C334      1.0  0.10850  0.11666  0.93754  1.0000
  H   H345      1.0  0.91890  0.04586  0.54087  1.0000
  H   H346      1.0  0.18199  0.12353  0.47315  1.0000
  C   C335      1.0  0.04002  0.03017  0.91367  1.0000
  H   H347      1.0  0.96001  0.06490  0.91501  1.0000
  C   C336      1.0  0.08441  0.11203  0.89751  1.0000
  C   C337      1.0  0.28800  0.08721  0.75952  1.0000
  C   C338      1.0  0.11808  0.03903  0.89322  1.0000
  C   C339      1.0  0.34755  0.97782  0.89720  1.0000
  S   S115      1.0  0.34126  0.14355  0.87402  1.0000
  C   C340      1.0  0.10660  0.04163  0.66000  1.0000
  C   C341      1.0  0.92751  0.12678  0.50910  1.0000
  H   H348      1.0  0.20750  0.02255  0.57063  1.0000
  H   H349      1.0  0.92296  0.09943  0.74773  1.0000
  S   S116      1.0  0.93389  0.99054  0.76475  1.0000
  C   C342      1.0  0.14187  0.95731  0.87977  1.0000
  C   C343      1.0  0.30999  0.05943  0.84380  1.0000
  C   C344      1.0  0.87234  0.10759  0.59226  1.0000
  H   H350      1.0  0.86775  0.16164  0.90473  1.0000
  H   H351      1.0  0.33161  0.05412  0.87052  1.0000
  H   H352      1.0  0.20883  0.17326  0.56392  1.0000
  H   H353      1.0  0.01983  0.05060  0.60811  1.0000
  C   C345      1.0  0.06939  0.02385  0.84716  1.0000
  S   S117      1.0  0.04556  0.18768  0.62869  1.0000
  C   C346      1.0  0.13720  0.08628  0.63375  1.0000
  S   S118      1.0  0.21293  0.96964  0.88726  1.0000
  C   C347      1.0  0.22639  0.08082  0.73720  1.0000
  H   H354      1.0  0.19743  0.07284  0.76281  1.0000
  C   C348      1.0  0.92664  0.05143  0.75592  1.0000
  C   C349      1.0  0.36204  0.11251  0.90823  1.0000
  C   C350      1.0  0.24871  0.05283  0.82385  1.0000
  C   C351      1.0  0.94893  0.03169  0.84879  1.0000
  Fe  Fe57      1.0  0.28353  0.99160  0.64279  1.0000
  C   C352      1.0  0.16126  0.96770  0.92257  1.0000
  Fe  Fe58      1.0  0.23492  0.96267  0.77005  1.0000
  H   H355      1.0  0.02428  0.00302  0.69280  1.0000
  Fe  Fe59      1.0  0.98097  0.14487  0.77367  1.0000
  C   C353      1.0  0.96977  0.05168  0.57166  1.0000
  H   H356      1.0  0.24001  0.07012  0.68289  1.0000
  H   H357      1.0  0.91625  0.04791  0.71275  1.0000
  C   C354      1.0  0.03223  0.99350  0.63814  1.0000
  H   H358      1.0  0.06281  0.99749  0.60654  1.0000
  C   C355      1.0  0.13521  0.08418  0.47469  1.0000
  S   S119      1.0  0.13169  0.12541  0.63068  1.0000
  C   C356      1.0  0.87497  0.12608  0.64601  1.0000
  H   H359      1.0  0.16613  0.18677  0.83543  1.0000
  S   S120      1.0  0.87022  0.98654  0.48961  1.0000
  H   H360      1.0  0.15832  0.95031  0.82589  1.0000
  C   C357      1.0  0.93647  0.02700  0.79186  1.0000
  H   H361      1.0  0.02360  0.11403  0.89709  1.0000
  H   H362      1.0  0.08038  0.03155  0.68465  1.0000
  S   S121      1.0  0.26842  0.96230  0.56803  1.0000
  C   C358      1.0  0.95154  0.06089  0.86977  1.0000
  Fe  Fe60      1.0  0.96558  0.95702  0.81579  1.0000
  H   H363      1.0  0.06200  0.01503  0.80405  1.0000
  H   H364      1.0  0.21871  0.10563  0.73579  1.0000
  Fe  Fe61      1.0  0.06560  0.14527  0.67143  1.0000
  H   H365      1.0  0.95570  0.01292  0.87752  1.0000
  H   H366      1.0  0.01008  0.02529  0.92218  1.0000
  S   S122      1.0  0.14872  0.98427  0.62304  1.0000
  Fe  Fe62      1.0  0.99155  0.16763  0.63196  1.0000
  C   C359      1.0  0.14404  0.02345  0.62545  1.0000
  C   C360      1.0  0.94500  0.00482  0.57264  1.0000
  C   C361      1.0  0.91326  0.19249  0.94393  1.0000
  C   C362      1.0  0.10336  0.07301  0.66519  1.0000
  H   H367      1.0  0.34247  0.09116  0.78081  1.0000
  H   H368      1.0  0.13161  0.02333  0.78560  1.0000
  C   C363      1.0  0.97528  0.99121  0.59698  1.0000
  S   S123      1.0  0.31568  0.03051  0.60861  1.0000
  C   C364      1.0  0.90462  0.14439  0.63147  1.0000
  S   S124      1.0  0.22611  0.17468  0.90579  1.0000
  C   C365      1.0  0.27617  0.04541  0.85894  1.0000
  C   C366      1.0  0.99938  0.03745  0.59701  1.0000
  S   S125      1.0  0.01425  0.12347  0.66518  1.0000
  N   N30       1.0  0.25472  0.07363  0.77510  1.0000
  N   N31       1.0  0.00194  0.00754  0.60900  1.0000
  C   C367      1.0  0.10079  0.95592  0.90632  1.0000
  C   C368      1.0  0.94239  0.03517  0.55962  1.0000
  H   H369      1.0  0.09824  0.10583  0.84193  1.0000
  C   C369      1.0  0.93066  0.14487  0.56287  1.0000
  C   C370      1.0  0.31597  0.08045  0.79380  1.0000
  H   H370      1.0  0.28145  0.01538  0.48672  1.0000
  H   H371      1.0  0.31284  0.06100  0.46348  1.0000
  C   C371      1.0  0.94254  0.08519  0.83304  1.0000
  S   S126      1.0  0.96789  0.16733  0.54414  1.0000
  C   C372      1.0  0.10243  0.18587  0.87301  1.0000
  H   H372      1.0  0.89726  0.09308  0.48290  1.0000
  H   H373      1.0  0.90685  0.15848  0.67314  1.0000
  C   C373      1.0  0.93042  0.08053  0.77567  1.0000
  Fe  Fe63      1.0  0.00850  0.94549  0.92123  1.0000
  H   H374      1.0  0.11860  0.10650  0.49714  1.0000
  C   C374      1.0  0.35443  0.03440  0.64107  1.0000
  H   H375      1.0  0.03757  0.19176  0.91672  1.0000
  H   H376      1.0  0.13564  0.18753  0.58318  1.0000
  H   H377      1.0  0.08679  0.94705  0.87267  1.0000
  C   C375      1.0  0.36372  0.01461  0.68743  1.0000
  C   C376      1.0  0.08777  0.04562  0.95880  1.0000
  C   C377      1.0  0.50528  0.33904  0.08970  1.0000
  S   S127      1.0  0.79475  0.44037  0.38305  1.0000
  Fe  Fe64      1.0  0.38041  0.25678  0.19361  1.0000
  C   C378      1.0  0.74776  0.37664  0.19916  1.0000
  C   C379      1.0  0.68271  0.23342  0.13363  1.0000
  C   C380      1.0  0.59149  0.43889  0.28861  1.0000
  C   C381      1.0  0.72172  0.35677  0.23079  1.0000
  S   S128      1.0  0.68992  0.32046  0.33428  1.0000
  H   H378      1.0  0.57760  0.24753  0.01642  1.0000
  C   C382      1.0  0.47636  0.26492  0.17184  1.0000
  H   H379      1.0  0.75463  0.24069  0.27437  1.0000
  H   H380      1.0  0.36958  0.43377  0.44873  1.0000
  S   S129      1.0  0.52805  0.34101  0.28333  1.0000
  H   H381      1.0  0.68255  0.26639  0.05903  1.0000
  C   C383      1.0  0.45144  0.40467  0.26244  1.0000
  Fe  Fe65      1.0  0.63309  0.32671  0.30770  1.0000
  H   H382      1.0  0.39213  0.29384  0.04671  1.0000
  N   N32       1.0  0.47031  0.38211  0.20266  1.0000
  H   H383      1.0  0.70186  0.35006  0.20559  1.0000
  H   H384      1.0  0.74757  0.38524  0.15017  1.0000
  Fe  Fe66      1.0  0.84287  0.40962  0.40855  1.0000
  C   C384      1.0  0.44989  0.35989  0.19404  1.0000
  C   C385      1.0  0.72389  0.23636  0.28007  1.0000
  S   S130      1.0  0.59194  0.27718  0.12875  1.0000
  C   C386      1.0  0.65037  0.43413  0.32471  1.0000
  H   H385      1.0  0.74920  0.34514  0.37384  1.0000
  C   C387      1.0  0.54937  0.25251  0.05982  1.0000
  H   H386      1.0  0.60045  0.43744  0.09543  1.0000
  H   H387      1.0  0.51599  0.23250  0.00528  1.0000
  S   S131      1.0  0.83201  0.37699  0.98193  1.0000
  H   H388      1.0  0.47252  0.37564  0.42257  1.0000
  H   H389      1.0  0.66649  0.21921  0.11325  1.0000
  C   C388      1.0  0.74866  0.35390  0.32511  1.0000
  C   C389      1.0  0.54772  0.26738  0.12197  1.0000
  H   H390      1.0  0.45030  0.32093  0.13000  1.0000
  H   H391      1.0  0.58926  0.21256  0.26234  1.0000
  H   H392      1.0  0.54057  0.23708  0.28658  1.0000
  C   C390      1.0  0.52564  0.36201  0.09831  1.0000
  H   H393      1.0  0.44819  0.27001  0.21510  1.0000
  C   C391      1.0  0.46691  0.33818  0.13728  1.0000
  C   C392      1.0  0.82290  0.29650  0.28351  1.0000
  C   C393      1.0  0.39260  0.25829  0.97371  1.0000
  H   H394      1.0  0.70048  0.43665  0.17878  1.0000
  S   S132      1.0  0.55937  0.42211  0.25618  1.0000
  C   C394      1.0  0.72283  0.26993  0.18775  1.0000
  H   H395      1.0  0.72371  0.21217  0.28988  1.0000
  S   S133      1.0  0.37096  0.32749  0.39362  1.0000
  C   C395      1.0  0.77418  0.37412  0.29408  1.0000
  H   H396      1.0  0.67439  0.38482  0.42437  1.0000
  N   N33       1.0  0.71379  0.24386  0.21764  1.0000
  H   H397      1.0  0.52401  0.40093  0.16227  1.0000
  S   S134      1.0  0.80485  0.41156  0.19325  1.0000
  C   C396      1.0  0.50765  0.38347  0.15549  1.0000
  C   C397      1.0  0.63270  0.43119  0.06888  1.0000
  C   C398      1.0  0.83529  0.30354  0.21408  1.0000
  H   H398      1.0  0.55504  0.36320  0.06066  1.0000
  Fe  Fe67      1.0  0.43400  0.38841  0.00612  1.0000
  H   H399      1.0  0.41994  0.35918  0.23053  1.0000
  C   C399      1.0  0.55959  0.21638  0.25440  1.0000
  H   H400      1.0  0.81737  0.30016  0.18171  1.0000
  C   C400      1.0  0.51119  0.27363  0.17806  1.0000
  C   C401      1.0  0.72207  0.34544  0.29390  1.0000
  S   S135      1.0  0.45760  0.33949  0.97021  1.0000
  S   S136      1.0  0.37696  0.24874  0.30316  1.0000
  S   S137      1.0  0.58168  0.36173  0.37296  1.0000
  S   S138      1.0  0.39626  0.40412  0.11674  1.0000
  H   H401      1.0  0.67705  0.42030  0.32905  1.0000
  S   S139      1.0  0.43500  0.23864  0.10109  1.0000
  C   C402      1.0  0.71203  0.27838  0.13003  1.0000
  H   H402      1.0  0.70181  0.25052  0.32649  1.0000
  C   C403      1.0  0.71620  0.41499  0.00129  1.0000
  H   H403      1.0  0.79426  0.38070  0.31905  1.0000
  C   C404      1.0  0.69188  0.25993  0.10291  1.0000
  C   C405      1.0  0.76334  0.19865  0.40877  1.0000
  H   H404      1.0  0.63401  0.39766  0.27654  1.0000
  C   C406      1.0  0.69471  0.39464  0.04218  1.0000
  H   H405      1.0  0.73799  0.28460  0.20912  1.0000
  H   H406      1.0  0.47237  0.41978  0.26726  1.0000
  H   H407      1.0  0.50974  0.28507  0.22628  1.0000
  H   H408      1.0  0.56603  0.22011  0.19838  1.0000
  H   H409      1.0  0.65865  0.32310  0.04133  1.0000
  H   H410      1.0  0.63297  0.35388  0.00848  1.0000
  S   S140      1.0  0.62553  0.34049  0.20752  1.0000
  H   H411      1.0  0.68585  0.20531  0.21573  1.0000
  Fe  Fe68      1.0  0.57124  0.37314  0.27390  1.0000
  S   S141      1.0  0.82602  0.22189  0.32301  1.0000
  H   H412      1.0  0.79539  0.28731  0.30557  1.0000
  H   H413      1.0  0.83634  0.29584  0.37856  1.0000
  Fe  Fe69      1.0  0.54305  0.32696  0.37782  1.0000
  Fe  Fe70      1.0  0.58342  0.30721  0.22377  1.0000
  H   H414      1.0  0.51908  0.32208  0.04584  1.0000
  C   C407      1.0  0.69372  0.22575  0.19163  1.0000
  H   H415      1.0  0.49543  0.20660  0.22401  1.0000
  C   C408      1.0  0.47808  0.24996  0.10958  1.0000
  H   H416      1.0  0.84187  0.43489  0.97090  1.0000
  C   C409      1.0  0.65305  0.40300  0.07716  1.0000
  S   S142      1.0  0.59529  0.29059  0.31920  1.0000
  C   C410      1.0  0.51455  0.24397  0.05352  1.0000
  H   H417      1.0  0.71863  0.29937  0.10734  1.0000
  S   S143      1.0  0.71967  0.35836  0.04660  1.0000
  H   H418      1.0  0.63636  0.38764  0.10996  1.0000
  Fe  Fe71      1.0  0.83136  0.42495  0.27184  1.0000
  H   H419      1.0  0.44234  0.39325  0.31163  1.0000
  C   C411      1.0  0.62589  0.42126  0.29503  1.0000
  C   C412      1.0  0.77367  0.38562  0.23113  1.0000
  C   C413      1.0  0.84614  0.30148  0.32470  1.0000
  H   H420      1.0  0.42413  0.41860  0.25708  1.0000
  H   H421      1.0  0.75583  0.21982  0.44042  1.0000
  H   H422      1.0  0.61364  0.31941  0.02186  1.0000
  C   C414      1.0  0.36985  0.38694  0.42483  1.0000
  C   C415      1.0  0.69589  0.44314  0.99318  1.0000
  H   H423      1.0  0.74851  0.40904  0.97551  1.0000
  Fe  Fe72      1.0  0.78350  0.35276  0.97283  1.0000
  C   C416      1.0  0.37425  0.28292  0.02296  1.0000
  C   C417      1.0  0.64193  0.32899  0.00498  1.0000
  H   H424      1.0  0.42482  0.25011  0.95929  1.0000
  H   H425      1.0  0.38344  0.37917  0.46295  1.0000
  C   C418      1.0  0.62163  0.34924  0.77666  1.0000
  H   H426      1.0  0.38374  0.22554  0.90453  1.0000
  S   S144      1.0  0.49359  0.40248  0.95640  1.0000
  H   H427      1.0  0.69542  0.35633  0.91376  1.0000
  C   C419      1.0  0.36919  0.24447  0.94332  1.0000
  H   H428      1.0  0.84642  0.40725  0.68829  1.0000
  C   C420      1.0  0.81326  0.41502  0.70363  1.0000
  C   C421      1.0  0.47586  0.36039  0.52019  1.0000
  H   H429      1.0  0.64469  0.27608  0.94054  1.0000
  S   S145      1.0  0.50051  0.32372  0.48528  1.0000
  Fe  Fe73      1.0  0.44090  0.35086  0.87615  1.0000
  H   H430      1.0  0.77473  0.28267  0.89216  1.0000
  S   S146      1.0  0.82395  0.30757  0.94793  1.0000
  H   H431      1.0  0.62647  0.42834  0.59694  1.0000
  S   S147      1.0  0.66541  0.42284  0.69505  1.0000
  C   C422      1.0  0.37068  0.34151  0.69027  1.0000
  C   C423      1.0  0.71802  0.32369  0.82486  1.0000
  C   C424      1.0  0.66876  0.39593  0.47689  1.0000
  H   H432      1.0  0.52854  0.37895  0.66062  1.0000
  H   H433      1.0  0.60063  0.39182  0.92885  1.0000
  C   C425      1.0  0.78083  0.26056  0.86545  1.0000
  C   C426      1.0  0.85236  0.35300  0.58932  1.0000
  C   C427      1.0  0.60737  0.35735  0.84854  1.0000
  C   C428      1.0  0.81363  0.22648  0.76128  1.0000
  S   S148      1.0  0.57839  0.33478  0.90644  1.0000
  H   H434      1.0  0.73541  0.28664  0.74593  1.0000
  S   S149      1.0  0.82303  0.37834  0.49213  1.0000
  C   C429      1.0  0.57562  0.40580  0.63601  1.0000
  C   C430      1.0  0.44656  0.41124  0.50566  1.0000
  H   H435      1.0  0.56190  0.42041  0.68413  1.0000
  C   C431      1.0  0.43815  0.41942  0.57640  1.0000
  S   S150      1.0  0.50130  0.36210  0.81445  1.0000
  C   C432      1.0  0.63114  0.40501  0.82637  1.0000
  Fe  Fe74      1.0  0.47513  0.40927  0.86229  1.0000
  H   H436      1.0  0.43835  0.29066  0.56391  1.0000
  C   C433      1.0  0.86127  0.36677  0.52642  1.0000
  C   C434      1.0  0.61288  0.36748  0.51528  1.0000
  N   N34       1.0  0.63007  0.39126  0.52698  1.0000
  S   S151      1.0  0.40932  0.32020  0.83349  1.0000
  C   C435      1.0  0.55712  0.38231  0.62321  1.0000
  S   S152      1.0  0.83580  0.28224  0.75726  1.0000
  C   C436      1.0  0.69354  0.33436  0.89321  1.0000
  H   H437      1.0  0.65061  0.36301  0.67399  1.0000
  H   H438      1.0  0.61717  0.32796  0.75732  1.0000
  N   N35       1.0  0.80348  0.43155  0.64875  1.0000
  Fe  Fe75      1.0  0.51585  0.35458  0.91222  1.0000
  H   H439      1.0  0.63423  0.42665  0.84602  1.0000
  C   C437      1.0  0.68962  0.27807  0.84034  1.0000
  H   H440      1.0  0.75250  0.41085  0.65639  1.0000
  H   H441      1.0  0.47555  0.35219  0.62393  1.0000
  C   C438      1.0  0.46720  0.36854  0.59098  1.0000
  C   C439      1.0  0.41063  0.30619  0.59189  1.0000
  Fe  Fe76      1.0  0.84568  0.38308  0.86798  1.0000
  C   C440      1.0  0.77034  0.42759  0.63228  1.0000
  N   N36       1.0  0.66724  0.31748  0.93349  1.0000
  C   C441      1.0  0.46587  0.38183  0.47736  1.0000
  H   H442      1.0  0.82195  0.34924  0.61625  1.0000
  H   H443      1.0  0.42894  0.31564  0.67968  1.0000
  C   C442      1.0  0.80802  0.25469  0.79708  1.0000
  C   C443      1.0  0.40553  0.32045  0.65648  1.0000
  H   H444      1.0  0.73870  0.33713  0.79278  1.0000
  H   H445      1.0  0.68826  0.25582  0.82069  1.0000
  H   H446      1.0  0.36712  0.35302  0.73979  1.0000
  C   C444      1.0  0.66542  0.28950  0.90832  1.0000
  C   C445      1.0  0.64027  0.36914  0.72958  1.0000
  H   H447      1.0  0.73945  0.24278  0.95185  1.0000
  C   C446      1.0  0.61233  0.38518  0.87341  1.0000
  H   H448      1.0  0.79881  0.39471  0.71395  1.0000
  H   H449      1.0  0.44298  0.40429  0.67335  1.0000
  C   C447      1.0  0.61221  0.41006  0.58678  1.0000
  C   C448      1.0  0.38027  0.31271  0.56264  1.0000
  C   C449      1.0  0.79244  0.20408  0.79441  1.0000
  S   S153      1.0  0.41330  0.39894  0.91591  1.0000
  C   C450      1.0  0.76595  0.20993  0.86347  1.0000
  C   C451      1.0  0.71597  0.29538  0.79838  1.0000
  C   C452      1.0  0.64457  0.39721  0.75436  1.0000
  C   C453      1.0  0.76022  0.23814  0.89880  1.0000
  C   C454      1.0  0.44879  0.39807  0.61887  1.0000
  H   H450      1.0  0.83473  0.22178  0.70833  1.0000
  Fe  Fe77      1.0  0.83616  0.31784  0.83639  1.0000
  H   H451      1.0  0.80287  0.43007  0.75264  1.0000
  S   S154      1.0  0.79374  0.36212  0.86122  1.0000
  C   C455      1.0  0.57578  0.36298  0.56248  1.0000
  H   H452      1.0  0.69390  0.38649  0.49524  1.0000
  H   H453      1.0  0.56165  0.34456  0.55202  1.0000
  H   H454      1.0  0.62775  0.35192  0.46902  1.0000
  H   H455      1.0  0.66907  0.42036  0.47019  1.0000
  H   H456      1.0  0.38491  0.30192  0.51174  1.0000
  H   H457      1.0  0.43865  0.42758  0.47246  1.0000
  H   H458      1.0  0.73296  0.44150  0.57046  1.0000
  H   H459      1.0  0.82927  0.19513  0.92560  1.0000
  S   S155      1.0  0.86463  0.42521  0.81923  1.0000
  C   C456      1.0  0.48824  0.66672  0.12751  1.0000
  C   C457      1.0  0.56822  0.56279  0.97497  1.0000
  H   H460      1.0  0.85847  0.61728  0.34377  1.0000
  N   N37       1.0  0.83521  0.57092  0.21178  1.0000
  Fe  Fe78      1.0  0.42587  0.57356  0.08165  1.0000
  H   H461      1.0  0.45830  0.45231  0.09192  1.0000
  H   H462      1.0  0.81335  0.66312  0.06888  1.0000
  C   C458      1.0  0.51242  0.68800  0.12926  1.0000
  H   H463      1.0  0.60632  0.51819  0.16411  1.0000
  C   C459      1.0  0.83783  0.53807  0.20955  1.0000
  Fe  Fe79      1.0  0.40271  0.53750  0.45073  1.0000
  C   C460      1.0  0.58231  0.46969  0.31012  1.0000
  C   C461      1.0  0.73330  0.67421  0.41111  1.0000
  H   H464      1.0  0.53779  0.47908  0.19141  1.0000
  C   C462      1.0  0.54635  0.62665  0.10511  1.0000
  H   H465      1.0  0.59975  0.50629  0.35531  1.0000
  C   C463      1.0  0.71666  0.45525  0.18420  1.0000
  C   C464      1.0  0.64627  0.54195  0.19594  1.0000
  C   C465      1.0  0.63387  0.51627  0.17657  1.0000
  H   H466      1.0  0.73127  0.50773  0.22274  1.0000
  N   N38       1.0  0.49791  0.68947  0.32491  1.0000
  H   H467      1.0  0.72063  0.68421  0.37376  1.0000
  S   S156      1.0  0.60079  0.55914  0.41794  1.0000
  H   H468      1.0  0.69140  0.55883  0.22710  1.0000
  C   C466      1.0  0.43548  0.49693  0.23933  1.0000
  H   H469      1.0  0.70782  0.61599  0.03356  1.0000
  H   H470      1.0  0.50706  0.60273  0.30954  1.0000
  H   H471      1.0  0.81843  0.53102  0.25977  1.0000
  C   C467      1.0  0.52321  0.67188  0.35189  1.0000
  C   C468      1.0  0.70422  0.51009  0.20870  1.0000
  C   C469      1.0  0.63482  0.67061  0.35395  1.0000
  C   C470      1.0  0.47754  0.64525  0.28908  1.0000
  S   S157      1.0  0.81322  0.52256  0.41247  1.0000
  H   H472      1.0  0.75424  0.69295  0.04952  1.0000
  S   S158      1.0  0.39863  0.60302  0.18203  1.0000
  H   H473      1.0  0.47829  0.50889  0.28496  1.0000
  S   S159      1.0  0.62890  0.48596  0.01334  1.0000
  C   C471      1.0  0.71381  0.54080  0.99887  1.0000
  C   C472      1.0  0.51070  0.48685  0.96216  1.0000
  C   C473      1.0  0.47420  0.49630  0.24248  1.0000
  S   S160      1.0  0.85351  0.61416  0.97729  1.0000
  H   H474      1.0  0.80928  0.58654  0.40987  1.0000
  H   H475      1.0  0.62833  0.56421  0.19929  1.0000
  S   S161      1.0  0.41646  0.48724  0.43044  1.0000
  Fe  Fe80      1.0  0.63980  0.59343  0.37592  1.0000
  H   H476      1.0  0.55944  0.60297  0.09678  1.0000
  C   C474      1.0  0.50752  0.47963  0.19012  1.0000
  C   C475      1.0  0.64105  0.46485  0.34707  1.0000
  C   C476      1.0  0.82955  0.63323  0.21290  1.0000
  H   H477      1.0  0.54803  0.62659  0.36619  1.0000
  N   N39       1.0  0.69184  0.48505  0.18955  1.0000
  C   C477      1.0  0.72075  0.59280  0.01277  1.0000
  H   H478      1.0  0.82849  0.53022  0.16631  1.0000
  Fe  Fe81      1.0  0.41090  0.64096  0.11402  1.0000
  C   C478      1.0  0.46262  0.46460  0.13455  1.0000
  S   S162      1.0  0.44218  0.57049  0.40303  1.0000
  H   H479      1.0  0.82766  0.65754  0.21361  1.0000
  H   H480      1.0  0.48618  0.61922  0.11742  1.0000
  H   H481      1.0  0.46467  0.62271  0.45415  1.0000
  H   H482      1.0  0.69486  0.52359  0.00930  1.0000
  C   C479      1.0  0.48152  0.51305  0.98440  1.0000
  Fe  Fe82      1.0  0.83542  0.47440  0.37200  1.0000
  H   H483      1.0  0.84599  0.47707  0.04607  1.0000
  C   C480      1.0  0.62813  0.65715  0.29737  1.0000
  C   C481      1.0  0.57107  0.64822  0.10135  1.0000
  H   H484      1.0  0.64662  0.46799  0.16094  1.0000
  C   C482      1.0  0.79753  0.62067  0.25562  1.0000
  S   S163      1.0  0.44217  0.61146  0.01539  1.0000
  S   S164      1.0  0.43681  0.67892  0.14230  1.0000
  C   C483      1.0  0.50176  0.46357  0.13594  1.0000
  S   S165      1.0  0.47397  0.53289  0.06392  1.0000
  C   C484      1.0  0.61312  0.67537  0.25386  1.0000
  C   C485      1.0  0.60717  0.48264  0.33904  1.0000
  C   C486      1.0  0.50501  0.63590  0.11649  1.0000
  H   H485      1.0  0.36964  0.68985  0.96924  1.0000
  C   C487      1.0  0.83942  0.57571  0.37798  1.0000
  S   S166      1.0  0.67230  0.48006  0.38476  1.0000
  C   C488      1.0  0.52743  0.64045  0.34569  1.0000
  Fe  Fe83      1.0  0.38117  0.61465  0.00567  1.0000
  H   H486      1.0  0.55568  0.48346  0.30561  1.0000
  H   H487      1.0  0.45476  0.69064  0.27353  1.0000
  C   C489      1.0  0.55379  0.67879  0.11509  1.0000
  H   H488      1.0  0.70175  0.63660  0.42236  1.0000
  H   H489      1.0  0.54038  0.68212  0.37831  1.0000
  C   C490      1.0  0.85648  0.47791  0.99002  1.0000
  S   S167      1.0  0.63659  0.61767  0.28252  1.0000
  C   C491      1.0  0.81158  0.68708  0.06530  1.0000
  H   H490      1.0  0.36799  0.50211  0.21465  1.0000
  C   C492      1.0  0.47490  0.67660  0.29454  1.0000
  C   C493      1.0  0.76292  0.68656  0.42775  1.0000
  H   H491      1.0  0.77639  0.57970  0.28946  1.0000
  S   S168      1.0  0.69718  0.56291  0.36922  1.0000
  Fe  Fe84      1.0  0.65739  0.52975  0.41840  1.0000
  H   H492      1.0  0.74489  0.45275  0.13826  1.0000
  H   H493      1.0  0.42655  0.67095  0.43609  1.0000
  C   C494      1.0  0.65408  0.45105  0.02580  1.0000
  H   H494      1.0  0.40974  0.50998  0.28015  1.0000
  H   H495      1.0  0.56635  0.62187  0.96232  1.0000
  C   C495      1.0  0.80091  0.58927  0.25452  1.0000
  C   C496      1.0  0.68175  0.53891  0.21180  1.0000
  C   C497      1.0  0.84973  0.54428  0.37152  1.0000
  C   C498      1.0  0.65712  0.48785  0.17381  1.0000
  H   H496      1.0  0.52757  0.45090  0.09460  1.0000
  S   S169      1.0  0.62379  0.63745  0.07299  1.0000
  H   H497      1.0  0.54490  0.56410  0.02767  1.0000
  C   C499      1.0  0.38961  0.48243  0.18218  1.0000
  H   H498      1.0  0.45924  0.63511  0.26492  1.0000
  H   H499      1.0  0.64751  0.65693  0.38639  1.0000
  N   N40       1.0  0.43023  0.48161  0.18515  1.0000
  H   H500      1.0  0.66518  0.57624  0.05956  1.0000
  C   C500      1.0  0.72228  0.64741  0.43904  1.0000
  H   H501      1.0  0.77054  0.63506  0.29025  1.0000
  S   S170      1.0  0.36676  0.57423  0.06497  1.0000
  Fe  Fe85      1.0  0.64808  0.67728  0.02141  1.0000
  C   C501      1.0  0.50455  0.62708  0.31372  1.0000
  C   C502      1.0  0.69685  0.57043  0.02741  1.0000
  H   H502      1.0  0.59536  0.57065  0.97933  1.0000
  H   H503      1.0  0.60788  0.66511  0.21001  1.0000
  H   H504      1.0  0.71270  0.45872  0.96174  1.0000
  C   C503      1.0  0.76123  0.58534  0.97046  1.0000
  H   H505      1.0  0.53048  0.47998  0.99139  1.0000
  H   H506      1.0  0.77319  0.48761  0.96675  1.0000
  H   H507      1.0  0.37843  0.46145  0.20141  1.0000
  H   H508      1.0  0.72479  0.45209  0.23206  1.0000
  C   C504      1.0  0.86441  0.61434  0.16975  1.0000
  H   H509      1.0  0.39007  0.48427  0.12769  1.0000
  H   H510      1.0  0.45274  0.61640  0.69729  1.0000
  C   C505      1.0  0.56069  0.47166  0.52702  1.0000
  C   C506      1.0  0.66447  0.61432  0.69383  1.0000
  C   C507      1.0  0.82563  0.59523  0.78707  1.0000
  H   H511      1.0  0.50538  0.45478  0.54079  1.0000
  C   C508      1.0  0.65246  0.60847  0.81631  1.0000
  Fe  Fe86      1.0  0.66973  0.46393  0.75403  1.0000
  C   C509      1.0  0.49711  0.55348  0.54460  1.0000
  C   C510      1.0  0.37362  0.46382  0.86121  1.0000
  H   H512      1.0  0.53323  0.54432  0.88819  1.0000
  H   H513      1.0  0.63913  0.59761  0.86307  1.0000
  S   S171      1.0  0.72899  0.59912  0.51640  1.0000
  C   C511      1.0  0.40701  0.61542  0.64971  1.0000
  S   S172      1.0  0.61574  0.49342  0.83120  1.0000
  H   H514      1.0  0.50210  0.62823  0.53525  1.0000
  N   N41       1.0  0.56539  0.49588  0.62970  1.0000
  H   H515      1.0  0.61975  0.67090  0.55160  1.0000
  C   C512      1.0  0.76713  0.64740  0.50549  1.0000
  C   C513      1.0  0.59704  0.67725  0.72553  1.0000
  C   C514      1.0  0.50547  0.47623  0.63634  1.0000
  H   H516      1.0  0.78694  0.53774  0.56225  1.0000
  H   H517      1.0  0.70237  0.64654  0.64823  1.0000
  H   H518      1.0  0.86011  0.53999  0.50662  1.0000
  H   H519      1.0  0.44170  0.51207  0.85421  1.0000
  H   H520      1.0  0.58337  0.62386  0.66098  1.0000
  C   C515      1.0  0.77008  0.50276  0.92604  1.0000
  H   H521      1.0  0.53461  0.65374  0.89211  1.0000
  H   H522      1.0  0.85184  0.45605  0.63204  1.0000
  H   H523      1.0  0.51388  0.49919  0.72236  1.0000
  H   H524      1.0  0.53552  0.44824  0.88692  1.0000
  C   C516      1.0  0.55199  0.61154  0.93069  1.0000
  Fe  Fe87      1.0  0.64565  0.53181  0.78470  1.0000
  S   S173      1.0  0.83824  0.62931  0.80835  1.0000
  C   C517      1.0  0.79962  0.55591  0.57765  1.0000
  C   C518      1.0  0.64622  0.60072  0.75441  1.0000
  S   S174      1.0  0.70621  0.46017  0.82456  1.0000
  H   H525      1.0  0.74402  0.56327  0.79575  1.0000
  H   H526      1.0  0.67919  0.63725  0.86678  1.0000
  C   C519      1.0  0.75912  0.44490  0.58358  1.0000
  H   H527      1.0  0.80887  0.54993  0.91009  1.0000
  S   S175      1.0  0.38115  0.53635  0.56688  1.0000
  C   C520      1.0  0.84607  0.54243  0.74438  1.0000
  H   H528      1.0  0.80010  0.50118  0.88477  1.0000
  C   C521      1.0  0.85413  0.45388  0.94728  1.0000
  H   H529      1.0  0.50632  0.53418  0.56954  1.0000
  S   S176      1.0  0.65021  0.54603  0.52752  1.0000
  H   H530      1.0  0.58157  0.53629  0.65890  1.0000
  C   C522      1.0  0.78163  0.46670  0.55263  1.0000
  S   S177      1.0  0.71198  0.67981  0.95572  1.0000
  S   S178      1.0  0.62872  0.61461  0.48250  1.0000
  C   C523      1.0  0.49498  0.60648  0.52494  1.0000
  H   H531      1.0  0.37379  0.54718  0.74991  1.0000
  C   C524      1.0  0.67503  0.63104  0.81847  1.0000
  S   S179      1.0  0.37575  0.62029  0.90032  1.0000
  C   C525      1.0  0.56892  0.64735  0.65803  1.0000
  H   H532      1.0  0.78885  0.68728  0.80808  1.0000
  H   H533      1.0  0.80085  0.68363  0.49093  1.0000
  H   H534      1.0  0.77072  0.62047  0.68326  1.0000
  C   C526      1.0  0.42581  0.62869  0.69018  1.0000
  S   S180      1.0  0.71463  0.67704  0.76381  1.0000
  C   C527      1.0  0.84047  0.55740  0.54614  1.0000
  Fe  Fe88      1.0  0.68398  0.58223  0.47830  1.0000
  H   H535      1.0  0.78054  0.63703  0.54138  1.0000
  H   H536      1.0  0.62089  0.50336  0.64038  1.0000
  C   C528      1.0  0.58187  0.48676  0.55992  1.0000
  C   C529      1.0  0.45801  0.52287  0.94349  1.0000
  H   H537      1.0  0.39413  0.47869  0.86420  1.0000
  H   H538      1.0  0.82257  0.64780  0.66602  1.0000
  S   S181      1.0  0.67928  0.53340  0.85940  1.0000
  C   C530      1.0  0.77520  0.56494  0.78612  1.0000
  C   C531      1.0  0.51360  0.46894  0.90299  1.0000
  C   C532      1.0  0.85601  0.57015  0.75849  1.0000
  H   H539      1.0  0.77278  0.48076  0.51589  1.0000
  C   C533      1.0  0.84660  0.63019  0.63029  1.0000
  S   S182      1.0  0.53598  0.58436  0.60932  1.0000
  C   C534      1.0  0.52739  0.49132  0.66752  1.0000
  S   S183      1.0  0.41590  0.45639  0.61260  1.0000
  C   C535      1.0  0.38098  0.44651  0.79933  1.0000
  C   C536      1.0  0.53420  0.62976  0.89072  1.0000
  H   H540      1.0  0.47195  0.52813  0.48411  1.0000
  C   C537      1.0  0.51519  0.58591  0.84889  1.0000
  C   C538      1.0  0.40974  0.65796  0.72123  1.0000
  C   C539      1.0  0.47476  0.60323  0.47771  1.0000
  H   H541      1.0  0.86257  0.64057  0.58228  1.0000
  H   H542      1.0  0.76162  0.61230  0.82142  1.0000
  C   C540      1.0  0.85547  0.58197  0.56465  1.0000
  C   C541      1.0  0.58780  0.51160  0.66380  1.0000
  S   S184      1.0  0.61648  0.57352  0.75231  1.0000
  C   C542      1.0  0.82622  0.45240  0.61753  1.0000
  C   C543      1.0  0.80567  0.53965  0.75910  1.0000
  C   C544      1.0  0.77879  0.67371  0.47658  1.0000
  C   C545      1.0  0.62103  0.67745  0.60204  1.0000
  H   H543      1.0  0.83332  0.48719  0.54551  1.0000
  C   C546      1.0  0.50585  0.58159  0.55863  1.0000
  H   H544      1.0  0.50107  0.57565  0.81680  1.0000
  H   H545      1.0  0.57898  0.50794  0.72022  1.0000
  C   C547      1.0  0.40210  0.68479  0.47719  1.0000
  H   H546      1.0  0.61157  0.49103  0.52927  1.0000
  C   C548      1.0  0.77457  0.57849  0.62793  1.0000
  C   C549      1.0  0.51560  0.61683  0.84973  1.0000
  N   N42       1.0  0.59574  0.66835  0.66188  1.0000
  C   C550      1.0  0.47782  0.55010  0.49613  1.0000
  H   H547      1.0  0.42394  0.66839  0.75310  1.0000
  S   S185      1.0  0.62290  0.69086  0.93784  1.0000
  H   H548      1.0  0.57762  0.66958  0.77283  1.0000
  H   H549      1.0  0.66048  0.60781  0.64551  1.0000
  C   C551      1.0  0.46112  0.50505  0.88396  1.0000
  H   H550      1.0  0.47560  0.47226  0.66698  1.0000
  S   S186      1.0  0.79431  0.50409  0.74513  1.0000
  S   S187      1.0  0.48327  0.45111  0.80508  1.0000
  C   C552      1.0  0.78520  0.59278  0.80005  1.0000
  N   N43       1.0  0.55153  0.58120  0.92952  1.0000
  S   S188      1.0  0.69651  0.50252  0.70155  1.0000
  H   H551      1.0  0.83894  0.68708  0.86864  1.0000
  H   H552      1.0  0.41959  0.59267  0.62565  1.0000
  N   N44       1.0  0.83030  0.60449  0.61259  1.0000
  C   C553      1.0  0.81556  0.47037  0.56932  1.0000
  Fe  Fe89      1.0  0.72852  0.50150  0.77892  1.0000
  Fe  Fe90      1.0  0.65403  0.49234  0.89914  1.0000
  H   H553      1.0  0.56189  0.64845  0.60893  1.0000
  H   H554      1.0  0.50133  0.63072  0.81899  1.0000
  H   H555      1.0  0.53963  0.65275  0.70166  1.0000
  C   C554      1.0  0.48742  0.47728  0.86603  1.0000
  C   C555      1.0  0.68827  0.63614  0.69539  1.0000
  H   H556      1.0  0.75042  0.49470  0.89987  1.0000
  Fe  Fe91      1.0  0.38926  0.48627  0.54662  1.0000
  C   C556      1.0  0.79045  0.60285  0.64464  1.0000
  C   C557      1.0  0.52229  0.46632  0.56564  1.0000
  N   N45       1.0  0.37337  0.63095  0.64002  1.0000
  Fe  Fe92      1.0  0.59586  0.57730  0.52416  1.0000
  C   C558      1.0  0.53336  0.56833  0.88947  1.0000
  C   C559      1.0  0.69205  0.64551  0.75845  1.0000
  H   H557      1.0  0.74277  0.57752  0.65229  1.0000
  C   C560      1.0  0.73966  0.63378  0.48548  1.0000
  C   C561      1.0  0.37487  0.67341  0.71220  1.0000
  H   H558      1.0  0.36996  0.54954  0.87423  1.0000
  H   H559      1.0  0.37733  0.60665  0.54647  1.0000
  H   H560      1.0  0.57381  0.46424  0.47192  1.0000
  H   H561      1.0  0.57733  0.53867  0.95474  1.0000
  H   H562      1.0  0.40705  0.44822  0.75414  1.0000
  H   H563      1.0  0.43683  0.54384  0.95840  1.0000
  C   C562      1.0  0.77740  0.55543  0.94352  1.0000
  N   N46       1.0  0.75348  0.53377  0.95676  1.0000
  C   C563      1.0  0.46711  0.57490  0.46206  1.0000
  H   H564      1.0  0.77967  0.60276  0.95699  1.0000
  C   C564      1.0  0.64628  0.93821  0.05653  1.0000
  C   C565      1.0  0.38381  0.84621  0.12696  1.0000
  S   S189      1.0  0.78448  0.71517  0.38077  1.0000
  H   H565      1.0  0.44498  0.84542  0.05882  1.0000
  H   H566      1.0  0.47374  0.80220  0.11058  1.0000
  S   S190      1.0  0.76877  0.86962  0.06394  1.0000
  C   C566      1.0  0.39984  0.75243  0.01720  1.0000
  H   H567      1.0  0.65596  0.91441  0.03886  1.0000
  S   S191      1.0  0.49896  0.83996  0.20476  1.0000
  H   H568      1.0  0.38913  0.81521  0.99011  1.0000
  Fe  Fe93      1.0  0.56543  0.82195  0.16489  1.0000
  S   S192      1.0  0.60507  0.83374  0.06046  1.0000
  H   H569      1.0  0.57618  0.90548  0.06240  1.0000
  S   S193      1.0  0.80573  0.89396  0.21909  1.0000
  C   C567      1.0  0.36734  0.71957  0.29873  1.0000
  H   H570      1.0  0.38789  0.71127  0.06611  1.0000
  S   S194      1.0  0.71641  0.92612  0.22350  1.0000
  C   C568      1.0  0.84276  0.70113  0.07082  1.0000
  H   H571      1.0  0.66851  0.81377  0.22929  1.0000
  Fe  Fe94      1.0  0.75941  0.93385  0.27725  1.0000
  Fe  Fe95      1.0  0.50600  0.84826  0.30802  1.0000
  H   H572      1.0  0.82163  0.89584  0.41745  1.0000
  C   C569      1.0  0.75929  0.74555  0.23858  1.0000
  C   C570      1.0  0.52364  0.91321  0.25663  1.0000
  H   H573      1.0  0.85272  0.92261  0.30750  1.0000
  C   C571      1.0  0.65704  0.79375  0.42420  1.0000
  S   S195      1.0  0.62307  0.90878  0.35679  1.0000
  C   C572      1.0  0.77509  0.73512  0.05148  1.0000
  H   H574      1.0  0.39379  0.72212  0.25482  1.0000
  H   H575      1.0  0.75429  0.79589  0.41016  1.0000
  H   H576      1.0  0.63712  0.77759  0.42771  1.0000
  C   C573      1.0  0.62528  0.70200  0.36849  1.0000
  C   C574      1.0  0.44143  0.81038  0.12955  1.0000
  C   C575      1.0  0.69769  0.78313  0.41483  1.0000
  H   H577      1.0  0.83297  0.81762  0.21772  1.0000
  S   S196      1.0  0.81084  0.84064  0.36202  1.0000
  C   C576      1.0  0.66662  0.84442  0.43390  1.0000
  H   H578      1.0  0.50487  0.72965  0.27361  1.0000
  C   C577      1.0  0.39895  0.88711  0.26840  1.0000
  C   C578      1.0  0.72017  0.84882  0.00064  1.0000
  C   C579      1.0  0.42520  0.83470  0.10013  1.0000
  C   C580      1.0  0.68455  0.79731  0.18329  1.0000
  H   H579      1.0  0.78690  0.74630  0.24960  1.0000
  H   H580      1.0  0.49321  0.72836  0.03691  1.0000
  S   S197      1.0  0.73566  0.75606  0.03076  1.0000
  N   N47       1.0  0.38688  0.91753  0.28498  1.0000
  C   C581      1.0  0.70696  0.83455  0.42762  1.0000
  C   C582      1.0  0.60300  0.70679  0.26885  1.0000
  H   H581      1.0  0.73286  0.94068  0.00541  1.0000
  H   H582      1.0  0.69655  0.69721  0.23004  1.0000
  C   C583      1.0  0.68413  0.84015  0.00055  1.0000
  S   S198      1.0  0.57329  0.83316  0.26677  1.0000
  C   C584      1.0  0.60872  0.72009  0.32666  1.0000
  S   S199      1.0  0.55342  0.76658  0.00123  1.0000
  C   C585      1.0  0.50410  0.72936  0.98097  1.0000
  H   H583      1.0  0.56471  0.82345  0.95990  1.0000
  H   H584      1.0  0.63028  0.71224  0.41273  1.0000
  S   S200      1.0  0.59675  0.75924  0.34698  1.0000
  H   H585      1.0  0.72563  0.85076  0.43207  1.0000
  H   H586      1.0  0.49938  0.71176  0.14050  1.0000
  C   C586      1.0  0.85796  0.81030  0.23577  1.0000
  H   H587      1.0  0.62453  0.86539  0.16684  1.0000
  Fe  Fe96      1.0  0.56042  0.78691  0.29209  1.0000
  Fe  Fe97      1.0  0.69682  0.72858  0.99758  1.0000
  H   H588      1.0  0.54217  0.89126  0.24919  1.0000
  S   S201      1.0  0.47069  0.89207  0.36801  1.0000
  C   C587      1.0  0.68754  0.86829  0.12125  1.0000
  Fe  Fe98      1.0  0.69043  0.89868  0.31197  1.0000
  Fe  Fe99      1.0  0.61373  0.73800  0.98381  1.0000
  C   C588      1.0  0.83882  0.73253  0.07168  1.0000
  H   H589      1.0  0.66217  0.74322  0.19611  1.0000
  H   H590      1.0  0.66248  0.79207  0.15881  1.0000
  C   C589      1.0  0.68939  0.74401  0.20821  1.0000
  C   C590      1.0  0.57081  0.90435  0.01195  1.0000
  C   C591      1.0  0.65124  0.86018  0.12080  1.0000
  Fe  Fe100     1.0  0.85154  0.70094  0.35495  1.0000
  N   N48       1.0  0.53064  0.92102  0.01987  1.0000
  N   N49       1.0  0.70483  0.77012  0.20384  1.0000
  C   C592      1.0  0.39774  0.93808  0.22963  1.0000
  H   H591      1.0  0.75187  0.79166  0.21415  1.0000
  H   H592      1.0  0.57213  0.69554  0.11483  1.0000
  H   H593      1.0  0.70924  0.75907  0.40827  1.0000
  Fe  Fe101     1.0  0.75921  0.88364  0.17459  1.0000
  C   C593      1.0  0.85041  0.89568  0.42499  1.0000
  C   C594      1.0  0.85540  0.81956  0.30340  1.0000
  C   C595      1.0  0.72231  0.86216  0.06148  1.0000
  H   H594      1.0  0.70706  0.80773  0.14302  1.0000
  H   H595      1.0  0.41641  0.87837  0.21508  1.0000
  H   H596      1.0  0.51477  0.72998  0.35480  1.0000
  S   S202      1.0  0.43772  0.77337  0.23410  1.0000
  C   C596      1.0  0.74395  0.71877  0.24255  1.0000
  H   H597      1.0  0.59594  0.85369  0.41035  1.0000
  S   S203      1.0  0.63574  0.72441  0.07120  1.0000
  C   C597      1.0  0.73918  0.77117  0.21907  1.0000
  S   S204      1.0  0.55689  0.77437  0.18780  1.0000
  N   N50       1.0  0.64222  0.82408  0.43210  1.0000
  C   C598      1.0  0.80492  0.74956  0.06192  1.0000
  C   C599      1.0  0.49528  0.72230  0.32750  1.0000
  C   C600      1.0  0.77787  0.70401  0.05511  1.0000
  C   C601      1.0  0.45999  0.92173  0.04209  1.0000
  H   H598      1.0  0.59067  0.72053  0.23575  1.0000
  C   C602      1.0  0.70877  0.71791  0.22735  1.0000
  H   H599      1.0  0.39912  0.84277  0.30648  1.0000
  H   H600      1.0  0.80230  0.77382  0.06071  1.0000
  S   S205      1.0  0.73090  0.90921  0.36899  1.0000
  H   H601      1.0  0.40864  0.76127  0.05889  1.0000
  C   C603      1.0  0.72280  0.80374  0.41646  1.0000
  C   C604      1.0  0.36654  0.87796  0.38862  1.0000
  C   C605      1.0  0.53744  0.93512  0.21172  1.0000
  H   H602      1.0  0.38693  0.93200  0.18672  1.0000
  C   C606      1.0  0.64973  0.84540  0.06093  1.0000
  S   S206      1.0  0.73077  0.85520  0.25974  1.0000
  S   S207      1.0  0.49376  0.80297  0.34284  1.0000
  C   C607      1.0  0.41626  0.79756  0.18559  1.0000
  H   H603      1.0  0.75952  0.69874  0.25709  1.0000
  Fe  Fe102     1.0  0.49098  0.79342  0.23669  1.0000
  C   C608      1.0  0.49827  0.90635  0.03685  1.0000
  H   H604      1.0  0.43467  0.90983  0.05191  1.0000
  H   H605      1.0  0.86247  0.74359  0.07742  1.0000
  H   H606      1.0  0.68844  0.87901  0.16828  1.0000
  H   H607      1.0  0.85726  0.90120  0.03438  1.0000
  H   H608      1.0  0.43111  0.93652  0.20867  1.0000
  H   H609      1.0  0.46371  0.73355  0.35631  1.0000
  Fe  Fe103     1.0  0.77427  0.86859  0.30813  1.0000
  H   H610      1.0  0.65460  0.86842  0.44202  1.0000
  C   C609      1.0  0.48696  0.92005  0.31202  1.0000
  H   H611      1.0  0.57362  0.88029  0.99529  1.0000
  H   H612      1.0  0.56648  0.92983  0.17061  1.0000
  C   C610      1.0  0.38909  0.86686  0.31989  1.0000
  H   H613      1.0  0.50212  0.88250  0.04512  1.0000
  H   H614      1.0  0.79047  0.93121  0.07168  1.0000
  C   C611      1.0  0.37444  0.80757  0.20892  1.0000
  C   C612      1.0  0.38801  0.72413  0.02170  1.0000
  C   C613      1.0  0.36528  0.92861  0.35246  1.0000
  C   C614      1.0  0.59939  0.83507  0.44385  1.0000
  H   H615      1.0  0.44074  0.79679  0.97423  1.0000
  H   H616      1.0  0.59477  0.91341  0.97132  1.0000
  N   N51       1.0  0.40160  0.76827  0.96006  1.0000
  H   H617      1.0  0.58431  0.81692  0.43186  1.0000
  H   H618      1.0  0.46904  0.69733  0.96238  1.0000
  C   C615      1.0  0.37789  0.71212  0.96738  1.0000
  H   H619      1.0  0.65054  0.93241  0.15864  1.0000
  S   S208      1.0  0.36542  0.87974  0.09810  1.0000
  N   N52       1.0  0.84008  0.94302  0.09739  1.0000
  C   C616      1.0  0.50359  0.71403  0.86678  1.0000
  C   C617      1.0  0.41613  0.88568  0.64651  1.0000
  C   C618      1.0  0.59403  0.84177  0.79377  1.0000
  S   S209      1.0  0.47334  0.78299  0.59646  1.0000
  S   S210      1.0  0.48635  0.77501  0.74651  1.0000
  S   S211      1.0  0.70042  0.87444  0.73297  1.0000
  H   H620      1.0  0.85217  0.87344  0.89722  1.0000
  H   H621      1.0  0.50646  0.87117  0.51400  1.0000
  S   S212      1.0  0.78293  0.83783  0.61189  1.0000
  H   H622      1.0  0.36838  0.86030  0.66004  1.0000
  C   C619      1.0  0.63382  0.83390  0.87191  1.0000
  H   H623      1.0  0.46458  0.88837  0.78728  1.0000
  C   C620      1.0  0.63002  0.87954  0.59815  1.0000
  Fe  Fe104     1.0  0.74801  0.88509  0.63648  1.0000
  S   S213      1.0  0.46070  0.71051  0.50193  1.0000
  C   C621      1.0  0.65064  0.80204  0.60116  1.0000
  H   H624      1.0  0.75009  0.73603  0.79356  1.0000
  H   H625      1.0  0.37089  0.71972  0.86785  1.0000
  C   C622      1.0  0.43690  0.87999  0.81228  1.0000
  H   H626      1.0  0.49734  0.83302  0.82011  1.0000
  Fe  Fe105     1.0  0.68570  0.69656  0.87523  1.0000
  C   C623      1.0  0.54700  0.74863  0.87812  1.0000
  C   C624      1.0  0.67002  0.88221  0.58880  1.0000
  C   C625      1.0  0.39819  0.86320  0.62669  1.0000
  H   H627      1.0  0.60465  0.94123  0.51911  1.0000
  H   H628      1.0  0.55721  0.84592  0.72785  1.0000
  H   H629      1.0  0.44961  0.84450  0.73098  1.0000
  C   C626      1.0  0.42838  0.85524  0.78034  1.0000
  S   S214      1.0  0.55505  0.89990  0.59426  1.0000
  H   H630      1.0  0.84135  0.78882  0.91671  1.0000
  C   C627      1.0  0.52482  0.83408  0.83100  1.0000
  H   H631      1.0  0.58373  0.84356  0.49952  1.0000
  H   H632      1.0  0.75418  0.75570  0.52099  1.0000
  H   H633      1.0  0.74896  0.72096  0.61547  1.0000
  S   S215      1.0  0.78538  0.90103  0.69465  1.0000
  H   H634      1.0  0.39101  0.76994  0.86298  1.0000
  Fe  Fe106     1.0  0.52914  0.93147  0.69006  1.0000
  C   C628      1.0  0.39051  0.75711  0.90759  1.0000
  C   C629      1.0  0.68011  0.80083  0.63251  1.0000
  C   C630      1.0  0.53203  0.73221  0.83651  1.0000
  C   C631      1.0  0.37850  0.72427  0.57159  1.0000
  C   C632      1.0  0.85304  0.89046  0.49073  1.0000
  C   C633      1.0  0.52690  0.82802  0.89662  1.0000
  H   H635      1.0  0.47227  0.83353  0.47833  1.0000
  C   C634      1.0  0.67552  0.78642  0.69367  1.0000
  C   C635      1.0  0.64102  0.77362  0.72421  1.0000
  C   C636      1.0  0.45628  0.84798  0.52578  1.0000
  C   C637      1.0  0.77259  0.73575  0.81873  1.0000
  H   H636      1.0  0.70651  0.81098  0.60906  1.0000
  S   S216      1.0  0.53131  0.92008  0.79534  1.0000
  S   S217      1.0  0.73373  0.91241  0.55485  1.0000
  C   C638      1.0  0.68591  0.90675  0.55668  1.0000
  H   H637      1.0  0.63237  0.85447  0.90424  1.0000
  Fe  Fe107     1.0  0.47076  0.73378  0.59126  1.0000
  S   S218      1.0  0.37898  0.81660  0.76776  1.0000
  C   C639      1.0  0.49026  0.71200  0.93889  1.0000
  H   H638      1.0  0.67404  0.71664  0.67253  1.0000
  H   H639      1.0  0.62568  0.70233  0.78090  1.0000
  S   S219      1.0  0.77450  0.83939  0.77658  1.0000
  S   S220      1.0  0.48385  0.69510  0.81376  1.0000
  C   C640      1.0  0.83823  0.74239  0.60207  1.0000
  C   C641      1.0  0.77860  0.76269  0.84610  1.0000
  C   C642      1.0  0.65110  0.70405  0.66951  1.0000
  C   C643      1.0  0.53267  0.74749  0.95044  1.0000
  C   C644      1.0  0.82865  0.73568  0.88557  1.0000
  C   C645      1.0  0.79444  0.70840  0.82668  1.0000
  H   H640      1.0  0.62022  0.84698  0.75302  1.0000
  S   S221      1.0  0.58023  0.79166  0.58895  1.0000
  H   H641      1.0  0.65405  0.81378  0.55486  1.0000
  H   H642      1.0  0.54317  0.73308  0.78061  1.0000
  C   C646      1.0  0.39155  0.84545  0.81052  1.0000
  N   N53       1.0  0.41833  0.84463  0.56709  1.0000
  C   C647      1.0  0.77474  0.73237  0.59705  1.0000
  C   C648      1.0  0.82257  0.70829  0.86054  1.0000
  N   N54       1.0  0.80692  0.76246  0.87786  1.0000
  H   H643      1.0  0.61697  0.86157  0.62641  1.0000
  C   C649      1.0  0.56297  0.82865  0.90913  1.0000
  Fe  Fe108     1.0  0.73818  0.82810  0.71252  1.0000
  H   H644      1.0  0.68841  0.86546  0.60708  1.0000
  S   S222      1.0  0.42819  0.73534  0.70081  1.0000
  H   H645      1.0  0.74644  0.84500  0.95366  1.0000
  Fe  Fe109     1.0  0.48348  0.72608  0.73010  1.0000
  S   S223      1.0  0.52633  0.72030  0.61975  1.0000
  C   C650      1.0  0.55844  0.84125  0.77926  1.0000
  H   H646      1.0  0.82321  0.94212  0.86381  1.0000
  Fe  Fe110     1.0  0.74069  0.88656  0.78892  1.0000
  Fe  Fe111     1.0  0.52562  0.76997  0.63385  1.0000
  H   H647      1.0  0.38451  0.74164  0.60223  1.0000
  H   H648      1.0  0.81126  0.80914  0.87230  1.0000
  C   C651      1.0  0.62413  0.69576  0.73043  1.0000
  H   H649      1.0  0.84987  0.73529  0.91324  1.0000
  H   H650      1.0  0.63731  0.76280  0.77228  1.0000
  C   C652      1.0  0.40964  0.89373  0.87638  1.0000
  H   H651      1.0  0.80384  0.71145  0.66541  1.0000
  S   S224      1.0  0.71243  0.78550  0.73259  1.0000
  H   H652      1.0  0.66016  0.83224  0.82339  1.0000
  C   C653      1.0  0.37409  0.88258  0.90866  1.0000
  C   C654      1.0  0.47570  0.86944  0.54539  1.0000
  N   N55       1.0  0.59615  0.83473  0.85755  1.0000
  Fe  Fe112     1.0  0.43431  0.78372  0.70819  1.0000
  H   H653      1.0  0.83546  0.86773  0.79001  1.0000
  H   H654      1.0  0.75974  0.78366  0.84324  1.0000
  S   S225      1.0  0.67396  0.74551  0.91276  1.0000
  C   C655      1.0  0.61629  0.78911  0.63063  1.0000
  H   H655      1.0  0.66996  0.70178  0.55722  1.0000
  C   C656      1.0  0.37879  0.72880  0.91022  1.0000
  C   C657      1.0  0.61131  0.77496  0.69255  1.0000
  H   H656      1.0  0.37803  0.83171  0.52015  1.0000
  Fe  Fe113     1.0  0.81651  0.85290  0.67817  1.0000
  C   C658      1.0  0.77754  0.75205  0.54445  1.0000
  C   C659      1.0  0.66250  0.92753  0.52984  1.0000
  C   C660      1.0  0.81206  0.79088  0.90769  1.0000
  H   H657      1.0  0.42107  0.80287  0.51144  1.0000
  H   H658      1.0  0.49574  0.92106  0.47285  1.0000
  H   H659      1.0  0.58459  0.76525  0.71597  1.0000
  H   H660      1.0  0.63939  0.81369  0.90004  1.0000
  H   H661      1.0  0.56969  0.76216  0.85440  1.0000
  C   C661      1.0  0.80548  0.72716  0.62550  1.0000
  H   H662      1.0  0.40021  0.90005  0.69430  1.0000
  C   C662      1.0  0.45534  0.88849  0.60595  1.0000
  N   N56       1.0  0.84013  0.76238  0.55203  1.0000
  H   H663      1.0  0.82666  0.88654  0.53288  1.0000
  C   C663      1.0  0.81082  0.76680  0.52198  1.0000
  H   H664      1.0  0.84095  0.93481  0.73475  1.0000
  C   C664      1.0  0.60640  0.90075  0.57296  1.0000
  H   H665      1.0  0.47016  0.90515  0.62164  1.0000
  H   H666      1.0  0.50127  0.82207  0.93720  1.0000
  C   C665      1.0  0.39867  0.82145  0.54694  1.0000
  S   S226      1.0  0.41871  0.92586  0.91418  1.0000
  C   C666      1.0  0.41033  0.70655  0.51799  1.0000
  S   S227      1.0  0.71777  0.91003  0.89572  1.0000
  C   C667      1.0  0.62274  0.92460  0.53827  1.0000
  H   H667      1.0  0.38092  0.81118  0.59392  1.0000
  C   C668      1.0  0.64923  0.69529  0.60486  1.0000
  H   H668      1.0  0.42363  0.80475  0.90221  1.0000
  H   H669      1.0  0.81296  0.78190  0.48061  1.0000
  H   H670      1.0  0.86234  0.73802  0.62375  1.0000
  H   H671      1.0  0.68356  0.82865  0.95404  1.0000
  C   C669      1.0  0.41437  0.79775  0.95643  1.0000
  H   H672      1.0  0.78736  0.79780  0.95856  1.0000
  S   S228      1.0  0.59117  0.04831  0.32354  1.0000
  H   H673      1.0  0.78333  0.07026  0.43207  1.0000
  C   C670      1.0  0.83470  0.04275  0.13450  1.0000
  S   S229      1.0  0.77200  0.98017  0.28902  1.0000
  C   C671      1.0  0.80453  0.13580  0.05476  1.0000
  H   H674      1.0  0.74580  0.99245  0.02055  1.0000
  C   C672      1.0  0.38724  0.17355  0.17222  1.0000
  C   C673      1.0  0.53254  0.14334  0.32392  1.0000
  H   H675      1.0  0.54286  0.00269  0.32543  1.0000
  C   C674      1.0  0.80671  0.16610  0.30655  1.0000
  H   H676      1.0  0.63398  0.04452  0.08734  1.0000
  H   H677      1.0  0.45905  0.99316  0.28275  1.0000
  H   H678      1.0  0.42569  0.96440  0.03290  1.0000
  C   C675      1.0  0.64408  0.94834  0.12313  1.0000
  H   H679      1.0  0.78302  0.15629  0.07773  1.0000
  H   H680      1.0  0.63975  0.95150  0.95929  1.0000
  H   H681      1.0  0.38402  0.96198  0.24903  1.0000
  S   S230      1.0  0.53201  0.99026  0.16170  1.0000
  H   H682      1.0  0.58141  0.03972  0.11984  1.0000
  C   C676      1.0  0.63377  0.99660  0.34880  1.0000
  H   H683      1.0  0.85967  0.02447  0.38555  1.0000
  C   C677      1.0  0.39138  0.06106  0.96272  1.0000
  S   S231      1.0  0.64832  0.15910  0.15497  1.0000
  S   S232      1.0  0.71793  0.12194  0.41543  1.0000
  C   C678      1.0  0.49869  0.14177  0.30509  1.0000
  H   H684      1.0  0.65598  0.00999  0.35103  1.0000
  H   H685      1.0  0.60261  0.19141  0.07883  1.0000
  C   C679      1.0  0.48779  0.96727  0.01618  1.0000
  S   S233      1.0  0.40610  0.09272  0.13758  1.0000
  C   C680      1.0  0.50555  0.18919  0.25333  1.0000
  H   H686      1.0  0.85853  0.08309  0.25311  1.0000
  H   H687      1.0  0.85317  0.15125  0.07964  1.0000
  H   H688      1.0  0.55109  0.96306  0.99942  1.0000
  C   C681      1.0  0.57687  0.96138  0.34253  1.0000
  S   S234      1.0  0.67720  0.07248  0.17123  1.0000
  S   S235      1.0  0.79275  0.03662  0.11288  1.0000
  C   C682      1.0  0.45488  0.95237  0.03133  1.0000
  C   C683      1.0  0.74270  0.98472  0.97224  1.0000
  H   H689      1.0  0.54400  0.12510  0.34993  1.0000
  N   N57       1.0  0.53874  0.19054  0.27197  1.0000
  C   C684      1.0  0.63318  0.97921  0.14389  1.0000
  N   N58       1.0  0.62441  0.99939  0.09962  1.0000
  C   C685      1.0  0.75172  0.11562  0.02458  1.0000
  C   C686      1.0  0.82936  0.06210  0.19266  1.0000
  H   H690      1.0  0.75090  0.12367  0.97402  1.0000
  C   C687      1.0  0.60763  0.15084  0.13161  1.0000
  C   C688      1.0  0.84865  0.09661  0.39489  1.0000
  C   C689      1.0  0.64022  0.96573  0.35769  1.0000
  Fe  Fe114     1.0  0.40420  0.07047  0.23507  1.0000
  S   S236      1.0  0.70884  0.05447  0.30085  1.0000
  H   H691      1.0  0.48357  0.12244  0.31683  1.0000
  H   H692      1.0  0.78957  0.12290  0.29535  1.0000
  C   C690      1.0  0.56992  0.99246  0.33506  1.0000
  H   H693      1.0  0.45958  0.16329  0.25264  1.0000
  C   C691      1.0  0.80183  0.95140  0.08470  1.0000
  H   H694      1.0  0.79945  0.07288  0.22509  1.0000
  H   H695      1.0  0.61036  0.03646  0.17650  1.0000
  C   C692      1.0  0.47701  0.97082  0.27528  1.0000
  C   C693      1.0  0.73952  0.17638  0.42988  1.0000
  H   H696      1.0  0.61940  0.00559  0.99937  1.0000
  H   H697      1.0  0.57880  0.16899  0.32112  1.0000
  S   S237      1.0  0.46762  0.07445  0.22603  1.0000
  H   H698      1.0  0.43485  0.95434  0.36342  1.0000
  C   C694      1.0  0.55217  0.16814  0.30722  1.0000
  C   C695      1.0  0.53874  0.14062  0.10278  1.0000
  H   H699      1.0  0.83284  0.16198  0.25920  1.0000
  C   C696      1.0  0.85978  0.08366  0.99584  1.0000
  Fe  Fe115     1.0  0.70391  0.10397  0.32464  1.0000
  C   C697      1.0  0.55542  0.16638  0.08160  1.0000
  C   C698      1.0  0.83614  0.98864  0.44487  1.0000
  S   S238      1.0  0.49293  0.04918  0.06265  1.0000
  H   H700      1.0  0.80610  0.96632  0.04120  1.0000
  H   H701      1.0  0.74102  0.09359  0.03131  1.0000
  C   C699      1.0  0.79028  0.96503  0.40566  1.0000
  H   H702      1.0  0.54424  0.09964  0.15383  1.0000
  C   C700      1.0  0.61222  0.94794  0.35326  1.0000
  C   C701      1.0  0.46351  0.94893  0.32135  1.0000
  C   C702      1.0  0.81808  0.00668  0.34655  1.0000
  Fe  Fe116     1.0  0.47065  0.09384  0.12466  1.0000
  H   H703      1.0  0.60999  0.09428  0.96584  1.0000
  Fe  Fe117     1.0  0.48448  0.02933  0.16487  1.0000
  S   S239      1.0  0.42094  0.02346  0.18235  1.0000
  C   C703      1.0  0.73530  0.95555  0.96374  1.0000
  Fe  Fe118     1.0  0.73647  0.06458  0.18922  1.0000
  C   C704      1.0  0.52564  0.95125  0.01125  1.0000
  C   C705      1.0  0.82014  0.08692  0.99611  1.0000
  H   H704      1.0  0.81095  0.06836  0.97407  1.0000
  C   C706      1.0  0.51413  0.96383  0.22055  1.0000
  C   C707      1.0  0.86276  0.06721  0.20983  1.0000
  C   C708      1.0  0.79456  0.98429  0.35174  1.0000
  H   H705      1.0  0.85600  0.07485  0.36573  1.0000
  H   H706      1.0  0.40927  0.18377  0.06498  1.0000
  C   C709      1.0  0.78212  0.14409  0.32678  1.0000
  H   H707      1.0  0.41143  0.18159  0.18449  1.0000
  H   H708      1.0  0.77168  0.94802  0.41074  1.0000
  C   C710      1.0  0.59003  0.17133  0.09524  1.0000
  H   H709      1.0  0.82140  0.02163  0.30495  1.0000
  H   H710      1.0  0.54144  0.18257  0.05471  1.0000
  C   C711      1.0  0.83939  0.00849  0.39245  1.0000
  H   H711      1.0  0.60376  0.10930  0.18199  1.0000
  C   C712      1.0  0.48504  0.16480  0.26956  1.0000
  H   H712      1.0  0.66723  0.95572  0.36729  1.0000
  S   S240      1.0  0.41006  0.02943  0.99756  1.0000
  H   H713      1.0  0.63130  0.98683  0.19586  1.0000
  C   C713      1.0  0.59876  0.00996  0.33706  1.0000
  H   H714      1.0  0.83071  0.98345  0.16128  1.0000
  C   C714      1.0  0.81026  0.96774  0.45352  1.0000
  C   C715      1.0  0.59116  0.12486  0.15226  1.0000
  C   C716      1.0  0.61207  0.03168  0.12180  1.0000
  Fe  Fe119     1.0  0.64895  0.06687  0.28538  1.0000
  C   C717      1.0  0.85095  0.96257  0.13717  1.0000
  C   C718      1.0  0.38595  0.17488  0.10473  1.0000
  C   C719      1.0  0.74861  0.14923  0.38862  1.0000
  H   H715      1.0  0.73002  0.13191  0.06713  1.0000
  C   C720      1.0  0.63719  0.95897  0.01188  1.0000
  S   S241      1.0  0.49442  0.13583  0.08739  1.0000
  H   H716      1.0  0.48417  0.99093  0.00665  1.0000
  S   S242      1.0  0.64192  0.11567  0.31852  1.0000
  N   N59       1.0  0.79294  0.11258  0.02613  1.0000
  C   C721      1.0  0.84405  0.13321  0.05565  1.0000
  H   H717      1.0  0.77810  0.96403  0.13181  1.0000
  C   C722      1.0  0.62637  0.98964  0.03434  1.0000
  Fe  Fe120     1.0  0.67270  0.12078  0.20567  1.0000
  C   C723      1.0  0.55703  0.11956  0.13711  1.0000
  Fe  Fe121     1.0  0.42811  0.04632  0.08412  1.0000
  S   S243      1.0  0.73435  0.11382  0.21412  1.0000
  H   H718      1.0  0.55523  0.94771  0.33878  1.0000
  H   H719      1.0  0.70852  0.00974  0.42905  1.0000
  N   N60       1.0  0.81507  0.10327  0.45357  1.0000
  C   C724      1.0  0.79708  0.19345  0.34752  1.0000
  C   C725      1.0  0.45127  0.96166  0.49279  1.0000
  C   C726      1.0  0.70392  0.01859  0.48177  1.0000
  C   C727      1.0  0.63619  0.02072  0.84379  1.0000
  C   C728      1.0  0.37663  0.05757  0.61951  1.0000
  H   H720      1.0  0.83669  0.01588  0.62817  1.0000
  C   C729      1.0  0.52759  0.12859  0.89257  1.0000
  H   H721      1.0  0.86412  0.18533  0.83743  1.0000
  H   H722      1.0  0.68945  0.04910  0.66825  1.0000
  S   S244      1.0  0.48329  0.98945  0.85003  1.0000
  Fe  Fe122     1.0  0.74451  0.14065  0.84164  1.0000
  H   H723      1.0  0.71364  0.18039  0.47767  1.0000
  C   C730      1.0  0.78944  0.08045  0.47688  1.0000
  Fe  Fe123     1.0  0.48573  0.99558  0.74021  1.0000
  C   C731      1.0  0.41993  0.03918  0.68497  1.0000
  H   H724      1.0  0.60727  0.14676  0.93104  1.0000
  C   C732      1.0  0.70873  0.99901  0.53186  1.0000
  S   S245      1.0  0.74039  0.18231  0.90801  1.0000
  H   H725      1.0  0.74365  0.00893  0.81513  1.0000
  H   H726      1.0  0.50434  0.13840  0.87237  1.0000
  H   H727      1.0  0.41495  0.00611  0.51004  1.0000
  C   C733      1.0  0.40915  0.06012  0.64199  1.0000
  H   H728      1.0  0.53430  0.01411  0.57409  1.0000
  C   C734      1.0  0.58691  0.10406  0.94521  1.0000
  C   C735      1.0  0.83806  0.97334  0.67501  1.0000
  H   H729      1.0  0.78022  0.13553  0.53895  1.0000
  H   H730      1.0  0.83764  0.96049  0.62963  1.0000
  H   H731      1.0  0.82412  0.17368  0.50012  1.0000
  S   S246      1.0  0.73872  0.13735  0.73528  1.0000
  S   S247      1.0  0.75720  0.03972  0.93058  1.0000
  H   H732      1.0  0.40345  0.00196  0.74554  1.0000
  S   S248      1.0  0.74673  0.06411  0.74878  1.0000
  H   H733      1.0  0.83991  0.04453  0.73067  1.0000
  S   S249      1.0  0.69887  0.11107  0.88715  1.0000
  C   C736      1.0  0.80637  0.13047  0.49159  1.0000
  C   C737      1.0  0.44397  0.99293  0.50626  1.0000
  H   H734      1.0  0.54744  0.94668  0.49162  1.0000
  C   C738      1.0  0.69325  0.04034  0.61622  1.0000
  S   S250      1.0  0.59207  0.97570  0.85227  1.0000
  S   S251      1.0  0.46401  0.95239  0.72842  1.0000
  H   H735      1.0  0.83262  0.97555  0.90027  1.0000
  S   S252      1.0  0.46436  0.03951  0.70345  1.0000
  Fe  Fe124     1.0  0.54734  0.96586  0.80297  1.0000
  H   H736      1.0  0.67009  0.05650  0.83817  1.0000
  H   H737      1.0  0.70659  0.00022  0.69893  1.0000
  C   C739      1.0  0.51838  0.95995  0.49662  1.0000
  C   C740      1.0  0.55871  0.08722  0.93725  1.0000
  C   C741      1.0  0.83118  0.15210  0.47007  1.0000
  C   C742      1.0  0.60500  0.01070  0.82741  1.0000
  C   C743      1.0  0.69326  0.04959  0.50010  1.0000
  C   C744      1.0  0.39567  0.09212  0.86570  1.0000
  C   C745      1.0  0.50003  0.08179  0.90295  1.0000
  H   H738      1.0  0.36920  0.07316  0.58424  1.0000
  C   C746      1.0  0.54248  0.00626  0.51819  1.0000
  H   H739      1.0  0.67453  0.94617  0.50338  1.0000
  Fe  Fe125     1.0  0.69744  0.10449  0.77914  1.0000
  H   H740      1.0  0.55931  0.02163  0.78014  1.0000
  S   S253      1.0  0.64061  0.10084  0.75830  1.0000
  S   S254      1.0  0.55123  0.97501  0.69345  1.0000
  H   H741      1.0  0.57260  0.99140  0.50068  1.0000
  H   H742      1.0  0.65247  0.00679  0.87150  1.0000
  N   N61       1.0  0.52981  0.09945  0.91049  1.0000
  S   S255      1.0  0.79741  0.10281  0.81629  1.0000
  H   H743      1.0  0.75970  0.09052  0.51599  1.0000
  C   C747      1.0  0.83966  0.00574  0.79100  1.0000
  H   H744      1.0  0.80732  0.95261  0.49467  1.0000
  C   C748      1.0  0.62637  0.06649  0.78630  1.0000
  H   H745      1.0  0.50998  0.05720  0.90426  1.0000
  Fe  Fe126     1.0  0.78838  0.09713  0.71329  1.0000
  C   C749      1.0  0.40985  0.06606  0.89270  1.0000
  H   H746      1.0  0.43550  0.05011  0.85946  1.0000
  C   C750      1.0  0.68784  0.06061  0.56780  1.0000
  C   C751      1.0  0.74130  0.99414  0.85658  1.0000
  H   H747      1.0  0.85458  0.12608  0.69882  1.0000
  H   H748      1.0  0.57914  0.07026  0.74162  1.0000
  H   H749      1.0  0.71735  0.97499  0.51743  1.0000
  C   C752      1.0  0.83899  0.02061  0.73188  1.0000
  H   H750      1.0  0.67932  0.08470  0.58291  1.0000
  H   H751      1.0  0.72971  0.95731  0.80050  1.0000
  H   H752      1.0  0.73486  0.97180  0.62877  1.0000
  H   H753      1.0  0.49548  0.08486  0.85198  1.0000
  H   H754      1.0  0.54550  0.02606  0.48638  1.0000
  C   C753      1.0  0.70651  0.98868  0.65017  1.0000
  C   C754      1.0  0.58414  0.02880  0.79138  1.0000
  H   H755      1.0  0.46908  0.03150  0.52360  1.0000
  N   N62       1.0  0.51124  0.99068  0.50901  1.0000
  C   C755      1.0  0.73398  0.96479  0.84790  1.0000
  C   C756      1.0  0.59506  0.05653  0.77024  1.0000
  H   H756      1.0  0.41007  0.09594  0.81147  1.0000
  C   C757      1.0  0.39642  0.01706  0.70948  1.0000
  Fe  Fe127     1.0  0.75127  0.07298  0.85380  1.0000
  C   C758      1.0  0.48890  0.94513  0.48681  1.0000
  C   C759      1.0  0.83969  0.95903  0.73451  1.0000
  H   H757      1.0  0.80466  0.06254  0.50065  1.0000
  C   C760      1.0  0.73069  0.94561  0.90185  1.0000
  C   C761      1.0  0.55542  0.14603  0.89955  1.0000
  H   H758      1.0  0.68929  0.06507  0.46194  1.0000
  H   H759      1.0  0.42693  0.07759  0.62384  1.0000
  H   H760      1.0  0.79712  0.18219  0.76698  1.0000
  C   C762      1.0  0.64664  0.04868  0.82374  1.0000
  H   H761      1.0  0.84113  0.01853  0.83557  1.0000
  H   H762      1.0  0.68050  0.97641  0.66408  1.0000
  C   C763      1.0  0.83762  0.00438  0.67398  1.0000
  H   H763      1.0  0.42815  0.95024  0.48558  1.0000
  N   N63       1.0  0.70319  0.00995  0.59813  1.0000
  S   S256      1.0  0.83629  0.08405  0.60907  1.0000
  C   C764      1.0  0.74576  0.00402  0.91879  1.0000
  N   N64       1.0  0.83988  0.97533  0.79184  1.0000
  C   C765      1.0  0.58539  0.13355  0.92561  1.0000
  H   H764      1.0  0.36912  0.99317  0.88637  1.0000
  C   C766      1.0  0.84279  0.95965  0.85266  1.0000
  C   C767      1.0  0.47461  0.00717  0.51394  1.0000
  H   H765      1.0  0.55387  0.16903  0.88475  1.0000
  C   C768      1.0  0.86101  0.18555  0.89357  1.0000
  H   H766      1.0  0.47069  0.08903  0.94592  1.0000
  H   H767      1.0  0.56085  0.06408  0.95085  1.0000
  H   H768      1.0  0.36625  0.96028  0.78944  1.0000
  Fe  Fe128     1.0  0.46730  0.94439  0.83449  1.0000
