data_image0
_chemical_formula_structural       FeCSHS2FeHSFeS2Fe2S3C2HCHC3HC7H6C4HC3H2CH3CSHC2H2CN2CH2CH2C3HC2H2SH2SHCHCFeS2Fe2SC8H3CHCHC2FeS5C5NH2CH4CHCH2CH3C2HNHCHC2H2C2H3CH5SH3SFeS2FeS2FeSFeS3H2CH3C2SHC6H4CHC4HC2HNHNHCHCHFeC2FeHCHC2H2FeHSCHCHC3H3C2HFeS2FeS2FeSHFeSFeS3C2H2Fe2C3HC7H4SCHNSHCHNHC5HCH2CH5CSC2SHCNC2H3CHCHNHCHC5HC2H2CHNHFeS3FeSFeS2C6H5C2H2FeS2C2H2CH3CHC2H2C3HC2HCHC2H2NCHCHCNHSH3C2H3CHCFeSHC2FeS2FeS2FeSFeS3C3H2C2H3C6H4CNH3CHCH4SCH3C3H3CH2CNC3HNHC2H2C2H3C2HFeSFeCSH2NS2FeS2FeS2FeSFeS2C3NHC4HC6H5C3H2CH2NHC2HC3HC4HCHCHC2H5CH6SHFeH2SCH2C2S2HC6H5FeSFeS2FeSFeS2C2H4C4H3C2HCH3CH3C2HC2HCH2NHC2NCHC4HNC2HCH2C3HCH3CHC2HSFeSHFeS2FeSFeS4HCH3CSHC7H6CH3C2H2C2H2CNC6H2CHCH2FeSHNHC6HC2H2NHFeS2CFeSCHSFeS2FeS2FeCFeS3C3HC4H2C6H4NCH2SH2CFeC2H2CNHCH2C2H10SCH5C3FeS2C6H4CHFeS3FeSFeS2C4HCHNH2C2HCHCH2CHC2HCNH2CSC4H3CH4C3H5C2H3CHSHFeSCFeS2FeSFeS3CHCH2C3H2C6H4CH2SNC2HCHC2H5FeCHNC3HCSCH2C2H4CNH2C
_chemical_formula_sum              "Fe64 C384 S128 H384 N32"
_cell_length_a       37.9563
_cell_length_b       37.5698
_cell_length_c       42.8854
_cell_angle_alpha    87.8371
_cell_angle_beta     83.2551
_cell_angle_gamma    90.1161

_space_group_name_H-M_alt    "P 1"
_space_group_IT_number       1

loop_
  _space_group_symop_operation_xyz
  'x, y, z'

loop_
  _atom_site_type_symbol
  _atom_site_label
  _atom_site_symmetry_multiplicity
  _atom_site_fract_x
  _atom_site_fract_y
  _atom_site_fract_z
  _atom_site_occupancy
  Fe  Fe1       1.0  0.34173  0.31623  0.05186  1.0000
  C   C1        1.0  0.31808  0.46829  0.02406  1.0000
  S   S1        1.0  0.33087  0.31054  0.10524  1.0000
  H   H1        1.0  0.39871  0.45108  0.04938  1.0000
  S   S2        1.0  0.38912  0.35075  0.03378  1.0000
  S   S3        1.0  0.30629  0.34238  0.01919  1.0000
  Fe  Fe2       1.0  0.22241  0.12879  0.28852  1.0000
  H   H2        1.0  0.48306  0.22159  0.01762  1.0000
  S   S4        1.0  0.24119  0.07354  0.30209  1.0000
  Fe  Fe3       1.0  0.21910  0.18689  0.23708  1.0000
  S   S5        1.0  0.18883  0.22428  0.27022  1.0000
  S   S6        1.0  0.23211  0.19272  0.18382  1.0000
  Fe  Fe4       1.0  0.22800  0.20772  0.30408  1.0000
  Fe  Fe5       1.0  0.15692  0.17580  0.28921  1.0000
  S   S7        1.0  0.09829  0.16783  0.30732  1.0000
  S   S8        1.0  0.25991  0.17304  0.26947  1.0000
  S   S9        1.0  0.18404  0.13956  0.25362  1.0000
  C   C2        1.0  0.14782  0.04714  0.32885  1.0000
  C   C3        1.0  0.22761  0.03452  0.28494  1.0000
  H   H3        1.0  0.09079  0.03791  0.26081  1.0000
  C   C4        1.0  0.28980  0.04838  0.22691  1.0000
  H   H4        1.0  0.19600  0.06129  0.25289  1.0000
  C   C5        1.0  0.06376  0.18860  0.25581  1.0000
  C   C6        1.0  0.06102  0.17297  0.28613  1.0000
  C   C7        1.0  0.28774  0.08543  0.22718  1.0000
  H   H5        1.0  0.08936  0.19759  0.24444  1.0000
  C   C8        1.0  0.49193  0.22128  0.04148  1.0000
  C   C9        1.0  0.30322  0.27758  0.12662  1.0000
  C   C10       1.0  0.29866  0.27765  0.15966  1.0000
  C   C11       1.0  0.27698  0.25195  0.17755  1.0000
  C   C12       1.0  0.25964  0.22583  0.16252  1.0000
  C   C13       1.0  0.26442  0.22560  0.12948  1.0000
  C   C14       1.0  0.28607  0.25132  0.11159  1.0000
  H   H6        1.0  0.31175  0.29788  0.17152  1.0000
  H   H7        1.0  0.27352  0.25250  0.20293  1.0000
  H   H8        1.0  0.25105  0.20561  0.11760  1.0000
  H   H9        1.0  0.28924  0.25096  0.08620  1.0000
  H   H10       1.0  0.02508  0.14929  0.32396  1.0000
  H   H11       1.0  0.10216  0.09798  0.28023  1.0000
  C   C15       1.0  0.37985  0.50011  0.06987  1.0000
  C   C16       1.0  0.43214  0.23962  0.06218  1.0000
  C   C17       1.0  0.27243  0.02993  0.20550  1.0000
  C   C18       1.0  0.23055  0.10521  0.16349  1.0000
  H   H12       1.0  0.24704  0.12668  0.15039  1.0000
  C   C19       1.0  0.48144  0.26406  0.08351  1.0000
  C   C20       1.0  0.10666  0.04068  0.28003  1.0000
  C   C21       1.0  0.49355  0.32468  0.02794  1.0000
  H   H13       1.0  0.30368  0.03393  0.24411  1.0000
  H   H14       1.0  0.46948  0.30170  0.12011  1.0000
  C   C22       1.0  0.39895  0.47996  0.04705  1.0000
  H   H15       1.0  0.42148  0.22287  0.04541  1.0000
  H   H16       1.0  0.03550  0.20586  0.21712  1.0000
  H   H17       1.0  0.23887  0.03429  0.16868  1.0000
  C   C23       1.0  0.30428  0.50023  0.03662  1.0000
  S   S10       1.0  0.19377  0.16229  0.32561  1.0000
  H   H18       1.0  0.22046  0.08798  0.14598  1.0000
  C   C24       1.0  0.41685  0.49720  0.02028  1.0000
  C   C25       1.0  0.20544  0.03592  0.26110  1.0000
  H   H19       1.0  0.36474  0.48702  0.09015  1.0000
  H   H20       1.0  0.26672  0.13240  0.20634  1.0000
  C   C26       1.0  0.25302  0.04895  0.18467  1.0000
  N   N1        1.0  0.25140  0.08536  0.18493  1.0000
  N   N2        1.0  0.46801  0.24259  0.06260  1.0000
  C   C27       1.0  0.42211  0.28113  0.10384  1.0000
  H   H21       1.0  0.30009  0.09990  0.24451  1.0000
  H   H22       1.0  0.46788  0.33475  0.03708  1.0000
  C   C28       1.0  0.03315  0.19328  0.24040  1.0000
  H   H23       1.0  0.20752  0.11799  0.17711  1.0000
  H   H24       1.0  0.38022  0.25603  0.08281  1.0000
  C   C29       1.0  0.26841  0.10360  0.20583  1.0000
  C   C30       1.0  0.13377  0.07767  0.31540  1.0000
  C   C31       1.0  0.02749  0.16149  0.30053  1.0000
  H   H25       1.0  0.31176  0.44306  0.03651  1.0000
  C   C32       1.0  0.40869  0.25854  0.08298  1.0000
  C   C33       1.0  0.45873  0.28400  0.10415  1.0000
  H   H26       1.0  0.13887  0.10381  0.32392  1.0000
  H   H27       1.0  0.22093  0.40834  0.01454  1.0000
  S   S11       1.0  0.25589  0.25072  0.32917  1.0000
  H   H28       1.0  0.49237  0.19337  0.05084  1.0000
  H   H29       1.0  0.40400  0.29645  0.11959  1.0000
  S   S12       1.0  0.35758  0.27150  0.01990  1.0000
  H   H30       1.0  0.28730  0.49943  0.05875  1.0000
  C   C34       1.0  0.11311  0.07437  0.29084  1.0000
  H   H31       1.0  0.50990  0.26662  0.08375  1.0000
  C   C35       1.0  0.49634  0.30189  0.00276  1.0000
  Fe  Fe6       1.0  0.34322  0.37032  0.50447  1.0000
  S   S13       1.0  0.36841  0.33119  0.47027  1.0000
  S   S14       1.0  0.33173  0.42457  0.48239  1.0000
  Fe  Fe7       1.0  0.40247  0.31537  0.50807  1.0000
  Fe  Fe8       1.0  0.32881  0.29150  0.49327  1.0000
  S   S15       1.0  0.30005  0.24955  0.46831  1.0000
  C   C36       1.0  0.23987  0.33687  0.46607  1.0000
  C   C37       1.0  0.26878  0.24931  0.36766  1.0000
  C   C38       1.0  0.28718  0.27864  0.37755  1.0000
  C   C39       1.0  0.29710  0.27921  0.40823  1.0000
  C   C40       1.0  0.28878  0.25028  0.42931  1.0000
  C   C41       1.0  0.27082  0.22078  0.41929  1.0000
  C   C42       1.0  0.26083  0.22027  0.38866  1.0000
  C   C43       1.0  0.26513  0.38633  0.43332  1.0000
  H   H32       1.0  0.31108  0.30200  0.41556  1.0000
  H   H33       1.0  0.26428  0.19824  0.43542  1.0000
  H   H34       1.0  0.24671  0.19753  0.38138  1.0000
  C   C44       1.0  0.49403  0.30735  0.54207  1.0000
  H   H35       1.0  0.46828  0.30226  0.55523  1.0000
  C   C45       1.0  0.33310  0.46498  0.50235  1.0000
  H   H36       1.0  0.16438  0.05012  0.34758  1.0000
  C   C46       1.0  0.33577  0.46528  0.53459  1.0000
  C   C47       1.0  0.36424  0.22947  0.38509  1.0000
  Fe  Fe9       1.0  0.33886  0.31538  0.55916  1.0000
  S   S16       1.0  0.36431  0.27250  0.52913  1.0000
  S   S17       1.0  0.31909  0.31032  0.61150  1.0000
  S   S18       1.0  0.46005  0.30576  0.48820  1.0000
  S   S19       1.0  0.37996  0.35739  0.54073  1.0000
  S   S20       1.0  0.30065  0.33143  0.52495  1.0000
  C   C48       1.0  0.29468  0.27314  0.62959  1.0000
  C   C49       1.0  0.33120  0.49761  0.48544  1.0000
  C   C50       1.0  0.36960  0.21705  0.41533  1.0000
  C   C51       1.0  0.28023  0.20986  0.63317  1.0000
  C   C52       1.0  0.29687  0.23958  0.61647  1.0000
  N   N3        1.0  0.39099  0.23541  0.43275  1.0000
  H   H37       1.0  0.28234  0.18394  0.62294  1.0000
  H   H38       1.0  0.31196  0.23637  0.59375  1.0000
  C   C53       1.0  0.40229  0.27973  0.39084  1.0000
  H   H39       1.0  0.35566  0.19320  0.42519  1.0000
  H   H40       1.0  0.33782  0.49780  0.57477  1.0000
  H   H41       1.0  0.33706  0.44038  0.54793  1.0000
  H   H42       1.0  0.40964  0.19532  0.46277  1.0000
  C   C54       1.0  0.40746  0.26628  0.42084  1.0000
  H   H43       1.0  0.26749  0.38136  0.48312  1.0000
  C   C55       1.0  0.33612  0.49788  0.54976  1.0000
  H   H44       1.0  0.28006  0.41122  0.43070  1.0000
  H   H45       1.0  0.21949  0.27007  0.46200  1.0000
  C   C56       1.0  0.27500  0.27674  0.65921  1.0000
  H   H46       1.0  0.37002  0.21806  0.47881  1.0000
  H   H47       1.0  0.22445  0.32715  0.39125  1.0000
  H   H48       1.0  0.36773  0.28021  0.65731  1.0000
  C   C57       1.0  0.25276  0.37114  0.40743  1.0000
  C   C58       1.0  0.49698  0.31177  0.50935  1.0000
  H   H49       1.0  0.29360  0.30117  0.36138  1.0000
  N   N4        1.0  0.22823  0.32191  0.44051  1.0000
  H   H50       1.0  0.25787  0.38414  0.38431  1.0000
  C   C59       1.0  0.20832  0.28823  0.44458  1.0000
  H   H51       1.0  0.42430  0.28102  0.43470  1.0000
  C   C60       1.0  0.26133  0.21330  0.66312  1.0000
  C   C61       1.0  0.39616  0.22148  0.46426  1.0000
  H   H52       1.0  0.34637  0.21540  0.37172  1.0000
  H   H53       1.0  0.41252  0.23979  0.47657  1.0000
  C   C62       1.0  0.23384  0.33892  0.41154  1.0000
  C   C63       1.0  0.25830  0.36936  0.46287  1.0000
  H   H54       1.0  0.23521  0.32352  0.48909  1.0000
  H   H55       1.0  0.21003  0.27385  0.42223  1.0000
  H   H56       1.0  0.18002  0.29337  0.45278  1.0000
  C   C64       1.0  0.38052  0.26115  0.37290  1.0000
  H   H57       1.0  0.32905  0.49766  0.46050  1.0000
  H   H58       1.0  0.41479  0.30462  0.38179  1.0000
  H   H59       1.0  0.41039  0.49958  0.50036  1.0000
  H   H60       1.0  0.37565  0.27156  0.34984  1.0000
  H   H61       1.0  0.31218  0.33576  0.92081  1.0000
  S   S21       1.0  0.37163  0.33224  0.96270  1.0000
  H   H62       1.0  0.06043  0.26236  0.75098  1.0000
  H   H63       1.0  0.35383  0.21951  0.67990  1.0000
  H   H64       1.0  0.18517  0.07108  0.71499  1.0000
  S   S22       1.0  0.28268  0.27123  0.96205  1.0000
  Fe  Fe10      1.0  0.19777  0.12005  0.79003  1.0000
  S   S23       1.0  0.18124  0.16376  0.82313  1.0000
  S   S24       1.0  0.18675  0.06319  0.80883  1.0000
  Fe  Fe11      1.0  0.21757  0.17354  0.73490  1.0000
  S   S25       1.0  0.20095  0.22068  0.76366  1.0000
  S   S26       1.0  0.24232  0.17477  0.68381  1.0000
  Fe  Fe12      1.0  0.22983  0.19369  0.80109  1.0000
  S   S27       1.0  0.27356  0.22499  0.82097  1.0000
  Fe  Fe13      1.0  0.15359  0.18666  0.78324  1.0000
  S   S28       1.0  0.09665  0.20496  0.79643  1.0000
  S   S29       1.0  0.24865  0.14771  0.77113  1.0000
  S   S30       1.0  0.16788  0.14168  0.75134  1.0000
  H   H65       1.0  0.13239  0.06076  0.75433  1.0000
  H   H66       1.0  0.29788  0.26277  0.76161  1.0000
  C   C65       1.0  0.34561  0.24235  0.69363  1.0000
  H   H67       1.0  0.24935  0.05049  0.76370  1.0000
  H   H68       1.0  0.31064  0.32386  0.73952  1.0000
  H   H69       1.0  0.23315  0.32426  0.94918  1.0000
  C   C66       1.0  0.06035  0.19019  0.77767  1.0000
  C   C67       1.0  0.06419  0.18332  0.74563  1.0000
  S   S31       1.0  0.45837  0.28651  0.98682  1.0000
  H   H70       1.0  0.09032  0.18402  0.73244  1.0000
  C   C68       1.0  0.27594  0.23646  0.86061  1.0000
  C   C69       1.0  0.30725  0.25223  0.86849  1.0000
  C   C70       1.0  0.31017  0.26234  0.89948  1.0000
  C   C71       1.0  0.28152  0.25721  0.92294  1.0000
  C   C72       1.0  0.25021  0.24150  0.91505  1.0000
  C   C73       1.0  0.24744  0.23105  0.88414  1.0000
  H   H71       1.0  0.32953  0.25641  0.85054  1.0000
  H   H72       1.0  0.33457  0.27402  0.90517  1.0000
  H   H73       1.0  0.22790  0.23728  0.93297  1.0000
  H   H74       1.0  0.22318  0.21898  0.87850  1.0000
  C   C74       1.0  0.28973  0.35133  0.91304  1.0000
  H   H75       1.0  0.24384  0.25011  0.69887  1.0000
  C   C75       1.0  0.35361  0.27658  0.68076  1.0000
  C   C76       1.0  0.03400  0.17748  0.73022  1.0000
  C   C77       1.0  0.02614  0.18972  0.79434  1.0000
  C   C78       1.0  0.24154  0.34996  0.95656  1.0000
  H   H76       1.0  0.27266  0.33288  0.90162  1.0000
  C   C79       1.0  0.28130  0.39928  0.95027  1.0000
  C   C80       1.0  0.14544  0.03840  0.74257  1.0000
  H   H77       1.0  0.03719  0.17339  0.70520  1.0000
  N   N5        1.0  0.32657  0.23773  0.72264  1.0000
  H   H78       1.0  0.06164  0.27297  0.79085  1.0000
  N   N6        1.0  0.26995  0.36755  0.94025  1.0000
  H   H79       1.0  0.02291  0.19511  0.81911  1.0000
  C   C81       1.0  0.23444  0.39702  0.99352  1.0000
  H   H80       1.0  0.43063  0.48123  0.00219  1.0000
  C   C82       1.0  0.26342  0.41473  0.97674  1.0000
  H   H81       1.0  0.05302  0.30789  0.76253  1.0000
  Fe  Fe14      1.0  0.35488  0.37316  0.99856  1.0000
  C   C83       1.0  0.25859  0.24698  0.67600  1.0000
  C   C84       1.0  0.34809  0.50216  0.97965  1.0000
  Fe  Fe15      1.0  0.32541  0.29963  0.98553  1.0000
  H   H82       1.0  0.34026  0.18328  0.72983  1.0000
  C   C85       1.0  0.31765  0.20163  0.73514  1.0000
  H   H83       1.0  0.29451  0.19160  0.72441  1.0000
  C   C86       1.0  0.31397  0.26652  0.73903  1.0000
  C   C87       1.0  0.04801  0.27951  0.76977  1.0000
  H   H84       1.0  0.31092  0.20099  0.76113  1.0000
  H   H85       1.0  0.30459  0.41267  0.93805  1.0000
  Fe  Fe16      1.0  0.40262  0.30782  0.99969  1.0000
  H   H86       1.0  0.30030  0.37188  0.89506  1.0000
  S   S32       1.0  0.35921  0.43035  0.97883  1.0000
  C   C88       1.0  0.34112  0.30612  0.69735  1.0000
  H   H87       1.0  0.20148  0.34983  0.99669  1.0000
  C   C89       1.0  0.32114  0.30114  0.72668  1.0000
  H   H88       1.0  0.27248  0.43995  0.98448  1.0000
  C   C90       1.0  0.17520  0.04420  0.72059  1.0000
  C   C91       1.0  0.22345  0.36433  0.98347  1.0000
  C   C92       1.0  0.34019  0.46922  0.99554  1.0000
  H   H89       1.0  0.34589  0.33270  0.68688  1.0000
  H   H90       1.0  0.21627  0.01939  0.68994  1.0000
  H   H91       1.0  0.36490  0.50309  0.95743  1.0000
  C   C93       1.0  0.23682  0.02521  0.77122  1.0000
  C   C94       1.0  0.20639  0.02430  0.79307  1.0000
  H   H92       1.0  0.27284  0.30264  0.66942  1.0000
  Fe  Fe17      1.0  0.33600  0.70136  0.04784  1.0000
  S   S33       1.0  0.33043  0.74386  0.08498  1.0000
  S   S34       1.0  0.35859  0.64760  0.05786  1.0000
  Fe  Fe18      1.0  0.14710  0.81884  0.29176  1.0000
  S   S35       1.0  0.16256  0.83578  0.24147  1.0000
  S   S36       1.0  0.09028  0.80703  0.31310  1.0000
  Fe  Fe19      1.0  0.22419  0.82080  0.30721  1.0000
  S   S37       1.0  0.24515  0.83877  0.25747  1.0000
  H   H93       1.0  0.11598  0.98449  0.28554  1.0000
  Fe  Fe20      1.0  0.19813  0.87576  0.26063  1.0000
  S   S38       1.0  0.19475  0.93237  0.24011  1.0000
  Fe  Fe21      1.0  0.20800  0.79760  0.24255  1.0000
  S   S39       1.0  0.21699  0.75358  0.20718  1.0000
  S   S40       1.0  0.17985  0.86098  0.31115  1.0000
  S   S41       1.0  0.18998  0.77745  0.29212  1.0000
  C   C95       1.0  0.20773  0.97110  0.25798  1.0000
  C   C96       1.0  0.22977  0.96966  0.28191  1.0000
  H   H94       1.0  0.01555  0.80268  0.33359  1.0000
  H   H95       1.0  0.23927  0.94419  0.29002  1.0000
  Fe  Fe22      1.0  0.39808  0.65839  0.01538  1.0000
  Fe  Fe23      1.0  0.32331  0.62677  0.02413  1.0000
  C   C97       1.0  0.05292  0.81323  0.29237  1.0000
  C   C98       1.0  0.05665  0.82035  0.25991  1.0000
  C   C99       1.0  0.19582  0.00435  0.24750  1.0000
  H   H96       1.0  0.08277  0.82447  0.24725  1.0000
  C   C100      1.0  0.34462  0.76794  0.32174  1.0000
  C   C101      1.0  0.29831  0.74617  0.11862  1.0000
  C   C102      1.0  0.27315  0.71919  0.12704  1.0000
  C   C103      1.0  0.24849  0.72198  0.15416  1.0000
  C   C104      1.0  0.24851  0.75178  0.17309  1.0000
  C   C105      1.0  0.27365  0.77879  0.16469  1.0000
  C   C106      1.0  0.29843  0.77590  0.13766  1.0000
  H   H97       1.0  0.27270  0.69616  0.11268  1.0000
  H   H98       1.0  0.22921  0.70090  0.16040  1.0000
  H   H99       1.0  0.27394  0.80197  0.17887  1.0000
  H   H100      1.0  0.31770  0.79697  0.13132  1.0000
  S   S42       1.0  0.45211  0.63385  0.01995  1.0000
  C   C107      1.0  0.31310  0.53330  0.02114  1.0000
  H   H101      1.0  0.09356  0.73211  0.28218  1.0000
  N   N7        1.0  0.05890  0.73653  0.24644  1.0000
  S   S43       1.0  0.29727  0.57306  0.03864  1.0000
  H   H102      1.0  0.15942  0.96029  0.31686  1.0000
  C   C108      1.0  0.11935  0.75379  0.20541  1.0000
  H   H103      1.0  0.36337  0.55306  0.08281  1.0000
  N   N8        1.0  0.31758  0.75259  0.30436  1.0000
  H   H104      1.0  0.24772  0.71220  0.25692  1.0000
  C   C109      1.0  0.02663  0.82033  0.24350  1.0000
  C   C110      1.0  0.46224  0.76790  0.06106  1.0000
  C   C111      1.0  0.28697  0.75336  0.25837  1.0000
  C   C112      1.0  0.31185  0.76791  0.27596  1.0000
  C   C113      1.0  0.26744  0.72336  0.27026  1.0000
  H   H105      1.0  0.37126  0.76580  0.30822  1.0000
  C   C114      1.0  0.49353  0.65627  0.01524  1.0000
  H   H106      1.0  0.17889  0.00566  0.22888  1.0000
  H   H107      1.0  0.25715  0.00001  0.31353  1.0000
  C   C115      1.0  0.08621  0.75286  0.19439  1.0000
  H   H108      1.0  0.02996  0.82453  0.21822  1.0000
  H   H109      1.0  0.39631  0.58213  0.03566  1.0000
  H   H110      1.0  0.03033  0.74347  0.20667  1.0000
  H   H111      1.0  0.14307  0.76068  0.18954  1.0000
  H   H112      1.0  0.14760  0.74662  0.24579  1.0000
  C   C116      1.0  0.05608  0.74386  0.21532  1.0000
  S   S44       1.0  0.37830  0.71382  0.00716  1.0000
  C   C117      1.0  0.29861  0.72307  0.31619  1.0000
  C   C118      1.0  0.09131  0.73734  0.25742  1.0000
  S   S45       1.0  0.29673  0.68007  0.01723  1.0000
  H   H113      1.0  0.39926  0.70477  0.08314  1.0000
  C   C119      1.0  0.39750  0.55345  0.03888  1.0000
  N   N9        1.0  0.48832  0.71442  0.08046  1.0000
  C   C120      1.0  0.42871  0.75198  0.06642  1.0000
  C   C121      1.0  0.12195  0.74589  0.23708  1.0000
  H   H114      1.0  0.08389  0.75915  0.16982  1.0000
  H   H115      1.0  0.40530  0.76643  0.06087  1.0000
  H   H116      1.0  0.28251  0.76548  0.23579  1.0000
  C   C122      1.0  0.27308  0.70818  0.29945  1.0000
  H   H117      1.0  0.46521  0.79483  0.05105  1.0000
  C   C123      1.0  0.45556  0.69854  0.08555  1.0000
  H   H118      1.0  0.45269  0.67119  0.09453  1.0000
  N   N10       1.0  0.41556  0.53348  0.01631  1.0000
  H   H119      1.0  0.32635  0.79173  0.26689  1.0000
  C   C124      1.0  0.37914  0.53711  0.06584  1.0000
  H   H120      1.0  0.33864  0.79645  0.32595  1.0000
  C   C125      1.0  0.42530  0.71717  0.07885  1.0000
  C   C126      1.0  0.49193  0.74874  0.06856  1.0000
  C   C127      1.0  0.23984  0.00130  0.29518  1.0000
  C   C128      1.0  0.02728  0.72610  0.26787  1.0000
  C   C129      1.0  0.01868  0.80812  0.30844  1.0000
  H   H121      1.0  0.02926  0.73545  0.29191  1.0000
  C   C130      1.0  0.12087  0.01063  0.29419  1.0000
  C   C131      1.0  0.15481  0.98230  0.33351  1.0000
  H   H122      1.0  0.25763  0.68521  0.30917  1.0000
  H   H123      1.0  0.47330  0.70765  0.00271  1.0000
  C   C132      1.0  0.49656  0.69268  0.00740  1.0000
  H   H124      1.0  0.02420  0.69669  0.26895  1.0000
  N   N11       1.0  0.14135  0.01417  0.31813  1.0000
  H   H125      1.0  0.27282  0.00101  0.20589  1.0000
  Fe  Fe24      1.0  0.34229  0.62629  0.52949  1.0000
  S   S46       1.0  0.36187  0.63866  0.47892  1.0000
  S   S47       1.0  0.33713  0.57074  0.55285  1.0000
  S   S48       1.0  0.35865  0.72329  0.49572  1.0000
  Fe  Fe25      1.0  0.32114  0.68249  0.48115  1.0000
  S   S49       1.0  0.28191  0.68952  0.44462  1.0000
  Fe  Fe26      1.0  0.39793  0.67848  0.49757  1.0000
  S   S50       1.0  0.45537  0.67899  0.47485  1.0000
  S   S51       1.0  0.29856  0.66691  0.53094  1.0000
  C   C133      1.0  0.27676  0.72545  0.41735  1.0000
  C   C134      1.0  0.29900  0.75541  0.41449  1.0000
  C   C135      1.0  0.29411  0.78305  0.39223  1.0000
  C   C136      1.0  0.26711  0.78105  0.37246  1.0000
  C   C137      1.0  0.24456  0.75131  0.37562  1.0000
  C   C138      1.0  0.24944  0.72369  0.39790  1.0000
  H   H126      1.0  0.32015  0.75718  0.42925  1.0000
  H   H127      1.0  0.31165  0.80597  0.39005  1.0000
  H   H128      1.0  0.23195  0.70072  0.40004  1.0000
  H   H129      1.0  0.22249  0.70100  0.49384  1.0000
  H   H130      1.0  0.27919  0.81275  0.50274  1.0000
  C   C139      1.0  0.43041  0.54971  0.47916  1.0000
  C   C140      1.0  0.33440  0.53052  0.53284  1.0000
  H   H131      1.0  0.25056  0.77620  0.57984  1.0000
  H   H132      1.0  0.33079  0.55517  0.48722  1.0000
  Fe  Fe27      1.0  0.33848  0.70520  0.54558  1.0000
  S   S52       1.0  0.32661  0.74968  0.58010  1.0000
  S   S53       1.0  0.38077  0.66359  0.54821  1.0000
  C   C141      1.0  0.29978  0.74754  0.61701  1.0000
  C   C142      1.0  0.28201  0.71637  0.62886  1.0000
  H   H133      1.0  0.26381  0.75198  0.48297  1.0000
  H   H134      1.0  0.28464  0.81458  0.54382  1.0000
  C   C143      1.0  0.22791  0.71778  0.51282  1.0000
  H   H135      1.0  0.44873  0.62163  0.51998  1.0000
  H   H136      1.0  0.28523  0.69227  0.61580  1.0000
  H   H137      1.0  0.43652  0.56199  0.58885  1.0000
  C   C144      1.0  0.44121  0.58415  0.48481  1.0000
  H   H138      1.0  0.30857  0.80296  0.62523  1.0000
  C   C145      1.0  0.49290  0.68306  0.49563  1.0000
  C   C146      1.0  0.48961  0.69263  0.52704  1.0000
  H   H139      1.0  0.46364  0.69781  0.53923  1.0000
  H   H140      1.0  0.19542  0.68692  0.54869  1.0000
  C   C147      1.0  0.21281  0.70987  0.54357  1.0000
  C   C148      1.0  0.25133  0.74669  0.50679  1.0000
  C   C149      1.0  0.44098  0.59461  0.51580  1.0000
  H   H141      1.0  0.34529  0.75430  0.34514  1.0000
  C   C150      1.0  0.26011  0.71633  0.65784  1.0000
  C   C151      1.0  0.42820  0.58338  0.57276  1.0000
  H   H142      1.0  0.40033  0.59075  0.58083  1.0000
  C   C152      1.0  0.28486  0.79661  0.52378  1.0000
  H   H143      1.0  0.31201  0.78540  0.51952  1.0000
  C   C153      1.0  0.22090  0.73115  0.56778  1.0000
  C   C154      1.0  0.29506  0.77866  0.63424  1.0000
  H   H144      1.0  0.21001  0.72490  0.59193  1.0000
  H   H145      1.0  0.44902  0.60302  0.46540  1.0000
  N   N12       1.0  0.25900  0.76749  0.53063  1.0000
  C   C155      1.0  0.24399  0.76017  0.56080  1.0000
  H   H146      1.0  0.22362  0.74941  0.36067  1.0000
  C   C156      1.0  0.27303  0.77867  0.66312  1.0000
  H   H147      1.0  0.44546  0.60702  0.57448  1.0000
  C   C157      1.0  0.33208  0.53026  0.50053  1.0000
  N   N13       1.0  0.43047  0.57136  0.54045  1.0000
  H   H148      1.0  0.24667  0.69202  0.66692  1.0000
  S   S54       1.0  0.26435  0.81513  0.34291  1.0000
  H   H149      1.0  0.42953  0.54156  0.45527  1.0000
  H   H150      1.0  0.13549  0.97308  0.35366  1.0000
  H   H151      1.0  0.30262  0.71126  0.33900  1.0000
  C   C158      1.0  0.41996  0.53750  0.53512  1.0000
  C   C159      1.0  0.41992  0.52609  0.50443  1.0000
  H   H152      1.0  0.18071  0.98787  0.34212  1.0000
  H   H153      1.0  0.41009  0.51958  0.55463  1.0000
  H   H154      1.0  0.21918  0.86547  0.87568  1.0000
  C   C160      1.0  0.27012  0.70657  0.77815  1.0000
  H   H155      1.0  0.41985  0.57535  0.98109  1.0000
  C   C161      1.0  0.13888  0.93875  0.74553  1.0000
  Fe  Fe28      1.0  0.34025  0.68942  0.97704  1.0000
  S   S55       1.0  0.33725  0.71193  0.92687  1.0000
  H   H156      1.0  0.25395  0.96793  0.83779  1.0000
  C   C162      1.0  0.02292  0.85791  0.77049  1.0000
  C   C163      1.0  0.29121  0.68719  0.82689  1.0000
  Fe  Fe29      1.0  0.14972  0.83592  0.77211  1.0000
  S   S56       1.0  0.19032  0.84564  0.72995  1.0000
  S   S57       1.0  0.09498  0.86103  0.77280  1.0000
  Fe  Fe30      1.0  0.20669  0.80693  0.81296  1.0000
  S   S58       1.0  0.25106  0.81571  0.77392  1.0000
  S   S59       1.0  0.21061  0.78641  0.86328  1.0000
  Fe  Fe31      1.0  0.22407  0.86795  0.76434  1.0000
  S   S60       1.0  0.25296  0.92065  0.75287  1.0000
  Fe  Fe32      1.0  0.21336  0.79266  0.74296  1.0000
  S   S61       1.0  0.22805  0.74578  0.71175  1.0000
  S   S62       1.0  0.18279  0.86086  0.80574  1.0000
  S   S63       1.0  0.16983  0.78108  0.78288  1.0000
  C   C164      1.0  0.23472  0.96034  0.76852  1.0000
  C   C165      1.0  0.25112  0.99322  0.75920  1.0000
  C   C166      1.0  0.20429  0.95963  0.79030  1.0000
  H   H157      1.0  0.31390  0.87523  0.81074  1.0000
  H   H158      1.0  0.19137  0.93467  0.79767  1.0000
  C   C167      1.0  0.05376  0.80208  0.76300  1.0000
  C   C168      1.0  0.05475  0.83850  0.76849  1.0000
  H   H159      1.0  0.32492  0.69560  0.78310  1.0000
  H   H160      1.0  0.07801  0.78684  0.76136  1.0000
  H   H161      1.0  0.31273  0.67961  0.84035  1.0000
  C   C169      1.0  0.30193  0.73377  0.91021  1.0000
  C   C170      1.0  0.26800  0.73661  0.92655  1.0000
  C   C171      1.0  0.24055  0.75311  0.91188  1.0000
  C   C172      1.0  0.24658  0.76686  0.88072  1.0000
  C   C173      1.0  0.28056  0.76419  0.86439  1.0000
  C   C174      1.0  0.30803  0.74780  0.87911  1.0000
  H   H162      1.0  0.26287  0.72598  0.95047  1.0000
  H   H163      1.0  0.21441  0.75509  0.92481  1.0000
  H   H164      1.0  0.28564  0.77423  0.84031  1.0000
  H   H165      1.0  0.33421  0.74575  0.86627  1.0000
  C   C175      1.0  0.26761  0.86637  0.84438  1.0000
  N   N14       1.0  0.23395  0.91844  0.85907  1.0000
  H   H166      1.0  0.12486  0.93670  0.76981  1.0000
  H   H167      1.0  0.30522  0.94073  0.80690  1.0000
  H   H168      1.0  0.19462  0.95814  0.70473  1.0000
  C   C176      1.0  0.25794  0.93940  0.84030  1.0000
  H   H169      1.0  0.16694  0.99053  0.81971  1.0000
  C   C177      1.0  0.19305  0.70102  0.84130  1.0000
  H   H170      1.0  0.27079  0.83773  0.84595  1.0000
  H   H171      1.0  0.17912  0.67543  0.83901  1.0000
  H   H172      1.0  0.27501  0.71358  0.75319  1.0000
  H   H173      1.0  0.27476  0.99403  0.74241  1.0000
  S   S64       1.0  0.36386  0.63460  0.98215  1.0000
  C   C178      1.0  0.28718  0.92422  0.82286  1.0000
  H   H174      1.0  0.17798  0.72313  0.83127  1.0000
  H   H175      1.0  0.20465  0.96358  0.87681  1.0000
  H   H176      1.0  0.19301  0.70652  0.86663  1.0000
  C   C179      1.0  0.29188  0.88743  0.82482  1.0000
  C   C180      1.0  0.29805  0.69635  0.79490  1.0000
  C   C181      1.0  0.19050  0.99137  0.80281  1.0000
  H   H177      1.0  0.21415  0.71556  0.78041  1.0000
  H   H178      1.0  0.17889  0.92876  0.86237  1.0000
  H   H179      1.0  0.25154  0.68252  0.86684  1.0000
  C   C182      1.0  0.25645  0.68887  0.84179  1.0000
  H   H180      1.0  0.02076  0.75714  0.75519  1.0000
  H   H181      1.0  0.16146  0.91989  0.74501  1.0000
  C   C183      1.0  0.20192  0.93421  0.87531  1.0000
  N   N15       1.0  0.15136  0.97518  0.73696  1.0000
  C   C184      1.0  0.23568  0.70785  0.79377  1.0000
  C   C185      1.0  0.02126  0.78531  0.75950  1.0000
  C   C186      1.0  0.43441  0.55126  0.98817  1.0000
  H   H182      1.0  0.12047  0.92978  0.72905  1.0000
  N   N16       1.0  0.22934  0.69973  0.82533  1.0000
  H   H183      1.0  0.02344  0.88606  0.77479  1.0000
  C   C187      1.0  0.23850  0.88234  0.86130  1.0000
  C   C188      1.0  0.18027  0.98064  0.71503  1.0000
  H   H184      1.0  0.34137  0.55920  0.98008  1.0000
  H   H185      1.0  0.19641  0.92277  0.89969  1.0000
  C   C189      1.0  0.33488  0.53405  0.99248  1.0000
  C   C190      1.0  0.13364  0.00351  0.75036  1.0000
  H   H186      1.0  0.43693  0.53355  0.96788  1.0000
  H   H187      1.0  0.11089  0.99925  0.76792  1.0000
  H   H188      1.0  0.26979  0.80279  0.67614  1.0000
  C   C191      1.0  0.19266  0.01519  0.70656  1.0000
  C   C192      1.0  0.25551  0.74743  0.67515  1.0000
  H   H189      1.0  0.46118  0.55991  0.99308  1.0000
  Fe  Fe33      1.0  0.65263  0.32197  0.03217  1.0000
  S   S65       1.0  0.59452  0.33206  0.04972  1.0000
  Fe  Fe34      1.0  0.72661  0.30975  0.05448  1.0000
  C   C193      1.0  0.76261  0.07523  0.26561  1.0000
  S   S66       1.0  0.75899  0.30695  0.09649  1.0000
  H   H190      1.0  0.77422  0.12018  0.23357  1.0000
  H   H191      1.0  0.85956  0.31012  0.29303  1.0000
  N   N17       1.0  0.93890  0.26856  0.28752  1.0000
  S   S67       1.0  0.69044  0.35721  0.05375  1.0000
  S   S68       1.0  0.68662  0.27320  0.03679  1.0000
  Fe  Fe35      1.0  0.82898  0.17904  0.23216  1.0000
  S   S69       1.0  0.80318  0.16375  0.28102  1.0000
  S   S70       1.0  0.79507  0.17944  0.19125  1.0000
  Fe  Fe36      1.0  0.90385  0.17878  0.25396  1.0000
  S   S71       1.0  0.88333  0.16385  0.30393  1.0000
  S   S72       1.0  0.96164  0.19072  0.23524  1.0000
  Fe  Fe37      1.0  0.84829  0.12505  0.28265  1.0000
  S   S73       1.0  0.83910  0.06917  0.30443  1.0000
  Fe  Fe38      1.0  0.83995  0.20356  0.29830  1.0000
  S   S74       1.0  0.87167  0.13734  0.23296  1.0000
  S   S75       1.0  0.86293  0.22150  0.24916  1.0000
  C   C194      1.0  0.75833  0.03833  0.26857  1.0000
  C   C195      1.0  0.90701  0.28117  0.30069  1.0000
  C   C196      1.0  0.75993  0.40660  0.09122  1.0000
  N   N18       1.0  0.77448  0.07156  0.20955  1.0000
  H   H192      1.0  0.85195  0.05746  0.23712  1.0000
  C   C197      1.0  0.76165  0.50623  0.08321  1.0000
  C   C198      1.0  0.56039  0.29813  0.00515  1.0000
  C   C199      1.0  0.99697  0.16574  0.28496  1.0000
  C   C200      1.0  0.88533  0.30120  0.28256  1.0000
  H   H193      1.0  0.97140  0.15668  0.29633  1.0000
  C   C201      1.0  0.76865  0.27090  0.12243  1.0000
  C   C202      1.0  0.75568  0.23634  0.12001  1.0000
  C   C203      1.0  0.76406  0.20878  0.14122  1.0000
  C   C204      1.0  0.78550  0.21532  0.16511  1.0000
  C   C205      1.0  0.79849  0.24987  0.16752  1.0000
  C   C206      1.0  0.79009  0.27742  0.14632  1.0000
  H   H194      1.0  0.73916  0.23084  0.10183  1.0000
  H   H195      1.0  0.75380  0.18223  0.13909  1.0000
  H   H196      1.0  0.81496  0.25539  0.18572  1.0000
  H   H197      1.0  0.80029  0.30400  0.14847  1.0000
  H   H198      1.0  0.78094  0.36951  0.05681  1.0000
  C   C207      1.0  0.68749  0.49316  0.04890  1.0000
  C   C208      1.0  0.69717  0.46154  0.03362  1.0000
  C   C209      1.0  0.77058  0.09151  0.23574  1.0000
  H   H199      1.0  0.76486  0.11086  0.17468  1.0000
  H   H200      1.0  0.52142  0.35081  0.06182  1.0000
  C   C210      1.0  0.55738  0.32005  0.03095  1.0000
  H   H201      1.0  0.67244  0.49176  0.07198  1.0000
  H   H202      1.0  0.75055  0.38577  0.10852  1.0000
  N   N19       1.0  0.76634  0.46866  0.07556  1.0000
  H   H203      1.0  0.74141  0.44961  0.12028  1.0000
  C   C211      1.0  0.75482  0.44262  0.09763  1.0000
  C   C212      1.0  0.77705  0.39736  0.06211  1.0000
  H   H204      1.0  0.87921  0.32249  0.23617  1.0000
  C   C213      1.0  0.78875  0.42403  0.03980  1.0000
  C   C214      1.0  0.89631  0.30796  0.25068  1.0000
  C   C215      1.0  0.78423  0.08947  0.17877  1.0000
  H   H205      1.0  0.89769  0.27499  0.32521  1.0000
  C   C216      1.0  0.96007  0.24603  0.30674  1.0000
  C   C217      1.0  0.99958  0.18209  0.25492  1.0000
  C   C218      1.0  0.52392  0.33354  0.04205  1.0000
  C   C219      1.0  0.84756  0.03195  0.24951  1.0000
  H   H206      1.0  0.81087  0.10214  0.17799  1.0000
  C   C220      1.0  0.92878  0.29478  0.23738  1.0000
  H   H207      1.0  0.97467  0.26410  0.24556  1.0000
  C   C221      1.0  0.78333  0.45977  0.04699  1.0000
  H   H208      1.0  0.68965  0.43605  0.04497  1.0000
  C   C222      1.0  0.77027  0.03532  0.21220  1.0000
  C   C223      1.0  0.84149  0.03029  0.28234  1.0000
  H   H209      1.0  0.79191  0.48027  0.02921  1.0000
  H   H210      1.0  0.78493  0.07088  0.15919  1.0000
  H   H211      1.0  0.51941  0.23222  0.03852  1.0000
  H   H212      1.0  0.93717  0.29890  0.21244  1.0000
  H   H213      1.0  0.80103  0.41702  0.01671  1.0000
  C   C224      1.0  0.94989  0.27505  0.25628  1.0000
  H   H214      1.0  0.76101  0.09098  0.28644  1.0000
  H   H215      1.0  0.78191  0.51445  0.09821  1.0000
  H   H216      1.0  0.58630  0.42979  0.02616  1.0000
  H   H217      1.0  0.94833  0.21882  0.30947  1.0000
  H   H218      1.0  0.73473  0.51076  0.09569  1.0000
  H   H219      1.0  0.98799  0.24386  0.29574  1.0000
  S   S76       1.0  0.75469  0.32365  0.00606  1.0000
  H   H220      1.0  0.75355  0.02531  0.29171  1.0000
  Fe  Fe39      1.0  0.71555  0.36852  0.00471  1.0000
  H   H221      1.0  0.62869  0.41048  0.03143  1.0000
  H   H222      1.0  0.62607  0.45531  0.01480  1.0000
  S   S77       1.0  0.82625  0.24814  0.33245  1.0000
  C   C225      1.0  0.76195  0.01818  0.24172  1.0000
  H   H223      1.0  0.77417  0.01927  0.19160  1.0000
  H   H224      1.0  0.96065  0.25702  0.33035  1.0000
  C   C226      1.0  0.61441  0.42805  0.01570  1.0000
  C   C227      1.0  0.71722  0.46306  0.00409  1.0000
  S   S78       1.0  0.67214  0.32945  0.48994  1.0000
  S   S79       1.0  0.72812  0.24255  0.46443  1.0000
  H   H225      1.0  0.71504  0.49372  0.57812  1.0000
  C   C228      1.0  0.75543  0.24462  0.42774  1.0000
  C   C229      1.0  0.77178  0.27633  0.41543  1.0000
  C   C230      1.0  0.79330  0.27685  0.38627  1.0000
  C   C231      1.0  0.79873  0.24577  0.36904  1.0000
  C   C232      1.0  0.78240  0.21403  0.38138  1.0000
  C   C233      1.0  0.76089  0.21350  0.41058  1.0000
  H   H226      1.0  0.76779  0.30051  0.42828  1.0000
  H   H227      1.0  0.80573  0.30156  0.37694  1.0000
  H   H228      1.0  0.78638  0.18991  0.36844  1.0000
  H   H229      1.0  0.74844  0.18880  0.41988  1.0000
  H   H230      1.0  0.57813  0.23323  0.56138  1.0000
  Fe  Fe40      1.0  0.65399  0.31738  0.54078  1.0000
  S   S80       1.0  0.59620  0.31167  0.56172  1.0000
  Fe  Fe41      1.0  0.73003  0.31721  0.55920  1.0000
  S   S81       1.0  0.75374  0.33049  0.50932  1.0000
  S   S82       1.0  0.76777  0.31338  0.59690  1.0000
  Fe  Fe42      1.0  0.70868  0.36930  0.50803  1.0000
  S   S83       1.0  0.71263  0.42396  0.48338  1.0000
  Fe  Fe43      1.0  0.71555  0.28981  0.49556  1.0000
  S   S84       1.0  0.68791  0.35947  0.55874  1.0000
  S   S85       1.0  0.69445  0.27423  0.54562  1.0000
  C   C234      1.0  0.77145  0.27864  0.62565  1.0000
  C   C235      1.0  0.75162  0.24712  0.62660  1.0000
  H   H231      1.0  0.62513  0.23503  0.55605  1.0000
  H   H232      1.0  0.76429  0.20330  0.51506  1.0000
  H   H233      1.0  0.73203  0.24414  0.61048  1.0000
  H   H234      1.0  0.60289  0.19314  0.55148  1.0000
  C   C236      1.0  0.56882  0.24318  0.46970  1.0000
  C   C237      1.0  0.71370  0.46356  0.50435  1.0000
  C   C238      1.0  0.71498  0.46270  0.53681  1.0000
  C   C239      1.0  0.82095  0.26704  0.53387  1.0000
  H   H235      1.0  0.71678  0.43744  0.54946  1.0000
  H   H236      1.0  0.81203  0.30639  0.64654  1.0000
  H   H237      1.0  0.52209  0.30397  0.58303  1.0000
  C   C240      1.0  0.55840  0.31391  0.54102  1.0000
  C   C241      1.0  0.56126  0.31960  0.50839  1.0000
  H   H238      1.0  0.58705  0.32403  0.49516  1.0000
  C   C242      1.0  0.63267  0.23294  0.49408  1.0000
  H   H239      1.0  0.84373  0.29999  0.58340  1.0000
  H   H240      1.0  0.79238  0.26005  0.49372  1.0000
  H   H241      1.0  0.83229  0.29242  0.52481  1.0000
  C   C243      1.0  0.71159  0.49665  0.48824  1.0000
  H   H242      1.0  0.53324  0.32185  0.46733  1.0000
  H   H243      1.0  0.60945  0.44953  0.60053  1.0000
  H   H244      1.0  0.71063  0.49753  0.46310  1.0000
  C   C244      1.0  0.60191  0.22242  0.54723  1.0000
  C   C245      1.0  0.85309  0.27225  0.57968  1.0000
  H   H245      1.0  0.61349  0.38110  0.52242  1.0000
  C   C246      1.0  0.61345  0.44617  0.57537  1.0000
  C   C247      1.0  0.62479  0.43669  0.51121  1.0000
  H   H246      1.0  0.65762  0.24300  0.44662  1.0000
  C   C248      1.0  0.60057  0.24619  0.44975  1.0000
  H   H247      1.0  0.74233  0.19470  0.64859  1.0000
  H   H248      1.0  0.65783  0.22862  0.50323  1.0000
  N   N20       1.0  0.82843  0.25313  0.56228  1.0000
  H   H249      1.0  0.85483  0.25961  0.60331  1.0000
  C   C249      1.0  0.63272  0.24086  0.46193  1.0000
  C   C250      1.0  0.62776  0.47041  0.52347  1.0000
  N   N21       1.0  0.62223  0.47477  0.55521  1.0000
  C   C251      1.0  0.78245  0.21707  0.52832  1.0000
  H   H250      1.0  0.54496  0.23412  0.51725  1.0000
  C   C252      1.0  0.79672  0.28203  0.64691  1.0000
  C   C253      1.0  0.53070  0.31825  0.49265  1.0000
  C   C254      1.0  0.61558  0.40746  0.53156  1.0000
  C   C255      1.0  0.60981  0.41214  0.56385  1.0000
  H   H251      1.0  0.64469  0.50977  0.58545  1.0000
  N   N22       1.0  0.60145  0.23098  0.51364  1.0000
  C   C256      1.0  0.78999  0.20320  0.55745  1.0000
  C   C257      1.0  0.56975  0.23541  0.50177  1.0000
  H   H252      1.0  0.54362  0.24778  0.46064  1.0000
  C   C258      1.0  0.81344  0.22152  0.57409  1.0000
  H   H253      1.0  0.60035  0.25278  0.42492  1.0000
  H   H254      1.0  0.81881  0.21074  0.59691  1.0000
  C   C259      1.0  0.52462  0.30823  0.55776  1.0000
  C   C260      1.0  0.75762  0.21908  0.64815  1.0000
  C   C261      1.0  0.71399  0.49465  0.55300  1.0000
  H   H255      1.0  0.63074  0.43309  0.48614  1.0000
  C   C262      1.0  0.79818  0.24906  0.51633  1.0000
  H   H256      1.0  0.88002  0.27292  0.56642  1.0000
  H   H257      1.0  0.77757  0.17859  0.56727  1.0000
  H   H258      1.0  0.60314  0.38931  0.57980  1.0000
  C   C263      1.0  0.62521  0.51019  0.56799  1.0000
  H   H259      1.0  0.63556  0.49283  0.50744  1.0000
  C   C264      1.0  0.78329  0.22226  0.66910  1.0000
  C   C265      1.0  0.80272  0.25400  0.66845  1.0000
  H   H260      1.0  0.82663  0.20739  0.93059  1.0000
  S   S86       1.0  0.71985  0.25015  0.94892  1.0000
  Fe  Fe44      1.0  0.82793  0.17981  0.73298  1.0000
  S   S87       1.0  0.80582  0.16447  0.78311  1.0000
  H   H261      1.0  0.67218  0.41377  0.91635  1.0000
  Fe  Fe45      1.0  0.90503  0.17298  0.74778  1.0000
  S   S88       1.0  0.88864  0.15742  0.79815  1.0000
  S   S89       1.0  0.96250  0.17455  0.72552  1.0000
  Fe  Fe46      1.0  0.84800  0.12226  0.78027  1.0000
  S   S90       1.0  0.83952  0.06753  0.80455  1.0000
  Fe  Fe47      1.0  0.84792  0.20076  0.79715  1.0000
  S   S91       1.0  0.84565  0.23885  0.83757  1.0000
  S   S92       1.0  0.86726  0.13466  0.72963  1.0000
  S   S93       1.0  0.86727  0.21923  0.74723  1.0000
  S   S94       1.0  0.73128  0.42392  0.98465  1.0000
  H   H262      1.0  0.93952  0.25380  0.73755  1.0000
  C   C266      1.0  0.99081  0.26596  0.75159  1.0000
  H   H263      1.0  0.82241  0.25690  0.68450  1.0000
  H   H264      1.0  0.84122  0.05567  0.73750  1.0000
  H   H265      1.0  0.93045  0.02970  0.68957  1.0000
  C   C267      1.0  0.62555  0.38044  0.92692  1.0000
  S   S95       1.0  0.67582  0.33625  0.98281  1.0000
  H   H266      1.0  0.96980  0.18349  0.79206  1.0000
  C   C268      1.0  0.95628  0.26834  0.81215  1.0000
  C   C269      1.0  0.75299  0.25155  0.91599  1.0000
  C   C270      1.0  0.78428  0.27140  0.91559  1.0000
  C   C271      1.0  0.81196  0.26801  0.89089  1.0000
  C   C272      1.0  0.80869  0.24485  0.86634  1.0000
  C   C273      1.0  0.77691  0.22599  0.86616  1.0000
  C   C274      1.0  0.74925  0.22937  0.89086  1.0000
  H   H267      1.0  0.78759  0.28853  0.93477  1.0000
  H   H268      1.0  0.83634  0.28292  0.89115  1.0000
  H   H269      1.0  0.77386  0.20833  0.84729  1.0000
  H   H270      1.0  0.72504  0.21415  0.89079  1.0000
  H   H271      1.0  0.83950  0.12607  0.84859  1.0000
  H   H272      1.0  0.82094  0.16885  0.95743  1.0000
  C   C275      1.0  0.64952  0.40667  0.93333  1.0000
  H   H273      1.0  0.57854  0.35030  0.94498  1.0000
  H   H274      1.0  0.77893  0.10204  0.84806  1.0000
  H   H275      1.0  0.74258  0.49789  0.96697  1.0000
  C   C276      1.0  0.78465  0.11911  0.86679  1.0000
  C   C277      1.0  0.92879  0.04637  0.73724  1.0000
  H   H276      1.0  0.00415  0.26398  0.72792  1.0000
  H   H277      1.0  0.90843  0.25668  0.79198  1.0000
  C   C278      1.0  0.64483  0.42289  0.96234  1.0000
  C   C279      1.0  0.93683  0.26141  0.78740  1.0000
  H   H278      1.0  0.53234  0.27137  0.97170  1.0000
  H   H279      1.0  0.66387  0.44282  0.96729  1.0000
  C   C280      1.0  0.52994  0.28901  0.99121  1.0000
  N   N23       1.0  0.79980  0.16320  0.91425  1.0000
  C   C281      1.0  0.82592  0.15508  0.89086  1.0000
  C   C282      1.0  0.76628  0.14957  0.91453  1.0000
  C   C283      1.0  0.81878  0.13276  0.86697  1.0000
  C   C284      1.0  0.75810  0.12763  0.89064  1.0000
  C   C285      1.0  0.59712  0.37102  0.94942  1.0000
  C   C286      1.0  0.80834  0.18530  0.93984  1.0000
  H   H280      1.0  0.85238  0.16626  0.89032  1.0000
  H   H281      1.0  0.74543  0.15643  0.93284  1.0000
  C   C287      1.0  0.95415  0.26018  0.75691  1.0000
  H   H282      1.0  0.73135  0.11746  0.89053  1.0000
  C   C288      1.0  0.99598  0.18318  0.77905  1.0000
  H   H283      1.0  0.78418  0.19794  0.95182  1.0000
  H   H284      1.0  0.62934  0.36705  0.90480  1.0000
  Fe  Fe48      1.0  0.71276  0.29016  0.98809  1.0000
  S   S96       1.0  0.79073  0.18539  0.69469  1.0000
  H   H285      1.0  0.92491  0.05444  0.78698  1.0000
  N   N24       1.0  0.61712  0.41321  0.98439  1.0000
  H   H286      1.0  0.94293  0.26897  0.83594  1.0000
  C   C289      1.0  0.59333  0.38779  0.97818  1.0000
  C   C290      1.0  0.72707  0.49646  0.98984  1.0000
  C   C291      1.0  0.84071  0.03009  0.74998  1.0000
  C   C292      1.0  0.99296  0.27405  0.80600  1.0000
  C   C293      1.0  0.93008  0.02116  0.71405  1.0000
  C   C294      1.0  0.83879  0.02845  0.78276  1.0000
  H   H287      1.0  0.92827  0.07464  0.73093  1.0000
  C   C295      1.0  0.92721  0.03504  0.76872  1.0000
  C   C296      1.0  0.99974  0.17785  0.74671  1.0000
  H   H288      1.0  0.58607  0.28779  0.99624  1.0000
  H   H289      1.0  0.57155  0.38000  0.99573  1.0000
  N   N25       1.0  0.00975  0.27256  0.77602  1.0000
  H   H290      1.0  0.00800  0.27910  0.82539  1.0000
  Fe  Fe49      1.0  0.69530  0.62190  0.03567  1.0000
  S   S97       1.0  0.67211  0.66715  0.06487  1.0000
  S   S98       1.0  0.68852  0.56521  0.05667  1.0000
  C   C297      1.0  0.56002  0.69095  0.01293  1.0000
  Fe  Fe50      1.0  0.72331  0.69631  0.04841  1.0000
  S   S99       1.0  0.75816  0.73511  0.07154  1.0000
  C   C298      1.0  0.84699  0.00056  0.23266  1.0000
  H   H291      1.0  0.91748  0.97187  0.21606  1.0000
  S   S100      1.0  0.74784  0.64969  0.02245  1.0000
  Fe  Fe51      1.0  0.82384  0.79394  0.23552  1.0000
  S   S101      1.0  0.79676  0.83593  0.26590  1.0000
  S   S102      1.0  0.78975  0.75335  0.21376  1.0000
  Fe  Fe52      1.0  0.89767  0.81452  0.25337  1.0000
  S   S103      1.0  0.87549  0.85709  0.28531  1.0000
  S   S104      1.0  0.95676  0.80858  0.23699  1.0000
  Fe  Fe53      1.0  0.83195  0.81719  0.30189  1.0000
  C   C299      1.0  0.71426  0.71810  0.33193  1.0000
  Fe  Fe54      1.0  0.84222  0.87224  0.24710  1.0000
  S   S105      1.0  0.83993  0.92874  0.22614  1.0000
  S   S106      1.0  0.85684  0.77316  0.27287  1.0000
  S   S107      1.0  0.86651  0.83167  0.21385  1.0000
  C   C300      1.0  0.99260  0.81374  0.25939  1.0000
  C   C301      1.0  0.98856  0.80861  0.29207  1.0000
  C   C302      1.0  0.92678  0.95849  0.23639  1.0000
  H   H292      1.0  0.96249  0.80340  0.30457  1.0000
  C   C303      1.0  0.83583  0.99693  0.29812  1.0000
  C   C304      1.0  0.83571  0.96548  0.28127  1.0000
  C   C305      1.0  0.84087  0.96725  0.24845  1.0000
  C   C306      1.0  0.94896  0.90680  0.26073  1.0000
  H   H293      1.0  0.83111  0.93996  0.29368  1.0000
  H   H294      1.0  0.74195  0.77238  0.27163  1.0000
  C   C307      1.0  0.76629  0.73963  0.11134  1.0000
  C   C308      1.0  0.75101  0.71684  0.13581  1.0000
  C   C309      1.0  0.75852  0.72147  0.16691  1.0000
  C   C310      1.0  0.78130  0.74892  0.17402  1.0000
  C   C311      1.0  0.79653  0.77175  0.14956  1.0000
  C   C312      1.0  0.78906  0.76707  0.11846  1.0000
  H   H295      1.0  0.73348  0.69561  0.13078  1.0000
  H   H296      1.0  0.74660  0.70361  0.18558  1.0000
  H   H297      1.0  0.81408  0.79296  0.15457  1.0000
  H   H298      1.0  0.80105  0.78488  0.09977  1.0000
  N   N26       1.0  0.93714  0.92369  0.23514  1.0000
  C   C313      1.0  0.51939  0.69498  0.08920  1.0000
  H   H299      1.0  0.74227  0.72492  0.27337  1.0000
  H   H300      1.0  0.93803  0.87564  0.20968  1.0000
  S   S108      1.0  0.59975  0.71463  0.01586  1.0000
  H   H301      1.0  0.91115  0.91026  0.19581  1.0000
  H   H302      1.0  0.58030  0.63946  0.02503  1.0000
  C   C314      1.0  0.69783  0.52658  0.03490  1.0000
  Fe  Fe55      1.0  0.65272  0.68721  0.01976  1.0000
  C   C315      1.0  0.93741  0.95946  0.29073  1.0000
  C   C316      1.0  0.94895  0.92426  0.28898  1.0000
  H   H303      1.0  0.83114  0.99543  0.32352  1.0000
  H   H304      1.0  0.85115  0.00211  0.20724  1.0000
  C   C317      1.0  0.93648  0.90499  0.20581  1.0000
  N   N27       1.0  0.72771  0.74920  0.31756  1.0000
  H   H305      1.0  0.76386  0.52399  0.06169  1.0000
  C   C318      1.0  0.55717  0.65432  0.01978  1.0000
  H   H306      1.0  0.75993  0.98933  0.24385  1.0000
  H   H307      1.0  0.52044  0.69592  0.11490  1.0000
  C   C319      1.0  0.52404  0.63708  0.02092  1.0000
  C   C320      1.0  0.74819  0.74881  0.28643  1.0000
  H   H308      1.0  0.95739  0.91032  0.30943  1.0000
  H   H309      1.0  0.95766  0.87941  0.25967  1.0000
  H   H310      1.0  0.54456  0.70641  0.07682  1.0000
  H   H311      1.0  0.77704  0.74914  0.28867  1.0000
  H   H312      1.0  0.73641  0.80479  0.32215  1.0000
  H   H313      1.0  0.95913  0.91381  0.18850  1.0000
  H   H314      1.0  0.79168  0.72066  0.00968  1.0000
  H   H315      1.0  0.51835  0.66675  0.08246  1.0000
  H   H316      1.0  0.52196  0.60886  0.02688  1.0000
  H   H317      1.0  0.00292  0.73829  0.26007  1.0000
  S   S109      1.0  0.70207  0.72014  0.00536  1.0000
  C   C321      1.0  0.92664  0.97688  0.26419  1.0000
  H   H318      1.0  0.71836  0.69306  0.32030  1.0000
  H   H319      1.0  0.51798  0.76116  0.06414  1.0000
  H   H320      1.0  0.77146  0.78261  0.01545  1.0000
  H   H321      1.0  0.93655  0.97319  0.31262  1.0000
  H   H322      1.0  0.91734  0.00417  0.26536  1.0000
  C   C322      1.0  0.52972  0.70992  0.00625  1.0000
  C   C323      1.0  0.71742  0.52812  0.00516  1.0000
  C   C324      1.0  0.72408  0.78050  0.33288  1.0000
  Fe  Fe56      1.0  0.71447  0.67682  0.48262  1.0000
  S   S110      1.0  0.73895  0.67947  0.43138  1.0000
  S   S111      1.0  0.66910  0.63881  0.49927  1.0000
  C   C325      1.0  0.76063  0.71686  0.41120  1.0000
  C   C326      1.0  0.75914  0.75063  0.42391  1.0000
  C   C327      1.0  0.77501  0.78006  0.40624  1.0000
  C   C328      1.0  0.79226  0.77608  0.37571  1.0000
  C   C329      1.0  0.79451  0.74214  0.36334  1.0000
  C   C330      1.0  0.77881  0.71269  0.38106  1.0000
  H   H323      1.0  0.74516  0.75420  0.44704  1.0000
  H   H324      1.0  0.77320  0.80624  0.41599  1.0000
  H   H325      1.0  0.68339  0.80028  0.56743  1.0000
  H   H326      1.0  0.78023  0.68660  0.37113  1.0000
  C   C331      1.0  0.55744  0.68029  0.49564  1.0000
  H   H327      1.0  0.58346  0.67566  0.48332  1.0000
  Fe  Fe57      1.0  0.70184  0.62264  0.53774  1.0000
  S   S112      1.0  0.67905  0.66421  0.57077  1.0000
  S   S113      1.0  0.70681  0.56674  0.55898  1.0000
  S   S114      1.0  0.69166  0.72201  0.51123  1.0000
  Fe  Fe58      1.0  0.72315  0.70009  0.54902  1.0000
  S   S115      1.0  0.75753  0.73988  0.57132  1.0000
  Fe  Fe59      1.0  0.64897  0.68263  0.53088  1.0000
  S   S116      1.0  0.59177  0.69773  0.54700  1.0000
  S   S117      1.0  0.74854  0.65714  0.51904  1.0000
  C   C332      1.0  0.76701  0.74156  0.61088  1.0000
  C   C333      1.0  0.79101  0.76752  0.61859  1.0000
  C   C334      1.0  0.83432  0.65816  0.47755  1.0000
  C   C335      1.0  0.82302  0.72032  0.51004  1.0000
  H   H328      1.0  0.73439  0.81414  0.59781  1.0000
  C   C336      1.0  0.74998  0.71928  0.63488  1.0000
  H   H329      1.0  0.59905  0.51888  0.57940  1.0000
  N   N28       1.0  0.68732  0.78572  0.61546  1.0000
  H   H330      1.0  0.81761  0.74457  0.52268  1.0000
  H   H331      1.0  0.73156  0.69909  0.62933  1.0000
  C   C337      1.0  0.63500  0.73527  0.60968  1.0000
  C   C338      1.0  0.83768  0.65889  0.50970  1.0000
  H   H332      1.0  0.80842  0.67798  0.57192  1.0000
  C   C339      1.0  0.69163  0.74988  0.37783  1.0000
  H   H333      1.0  0.70796  0.55389  0.49194  1.0000
  C   C340      1.0  0.55420  0.69068  0.52683  1.0000
  H   H334      1.0  0.81209  0.74475  0.46577  1.0000
  H   H335      1.0  0.63489  0.53062  0.54947  1.0000
  C   C341      1.0  0.52013  0.69667  0.54244  1.0000
  H   H336      1.0  0.80439  0.78493  0.60024  1.0000
  C   C342      1.0  0.83361  0.68924  0.55952  1.0000
  C   C343      1.0  0.81965  0.72058  0.47789  1.0000
  H   H337      1.0  0.85621  0.67298  0.56608  1.0000
  C   C344      1.0  0.64718  0.75801  0.58424  1.0000
  N   N29       1.0  0.83215  0.68976  0.52548  1.0000
  H   H338      1.0  0.70091  0.83979  0.62068  1.0000
  H   H339      1.0  0.80800  0.73867  0.34001  1.0000
  C   C345      1.0  0.79731  0.77181  0.65001  1.0000
  S   S118      1.0  0.80876  0.81450  0.35345  1.0000
  C   C346      1.0  0.67534  0.76369  0.64065  1.0000
  C   C347      1.0  0.64925  0.73793  0.63806  1.0000
  C   C348      1.0  0.71385  0.81338  0.61860  1.0000
  C   C349      1.0  0.67363  0.78312  0.58750  1.0000
  H   H340      1.0  0.81553  0.79217  0.65563  1.0000
  H   H341      1.0  0.51733  0.70486  0.56651  1.0000
  H   H342      1.0  0.83692  0.71650  0.56808  1.0000
  C   C350      1.0  0.71012  0.52861  0.50451  1.0000
  H   H343      1.0  0.82176  0.68885  0.43686  1.0000
  H   H344      1.0  0.84368  0.63437  0.52214  1.0000
  H   H345      1.0  0.52975  0.66930  0.45580  1.0000
  H   H346      1.0  0.83775  0.63347  0.46524  1.0000
  C   C351      1.0  0.82522  0.68924  0.46163  1.0000
  C   C352      1.0  0.69594  0.71799  0.36223  1.0000
  C   C353      1.0  0.52693  0.67673  0.48009  1.0000
  H   H347      1.0  0.63630  0.75594  0.56206  1.0000
  H   H348      1.0  0.68641  0.69315  0.37410  1.0000
  H   H349      1.0  0.67860  0.74986  0.40176  1.0000
  H   H350      1.0  0.70394  0.80606  0.37553  1.0000
  H   H351      1.0  0.61476  0.71540  0.60721  1.0000
  C   C354      1.0  0.71123  0.52770  0.53701  1.0000
  C   C355      1.0  0.70577  0.78138  0.36312  1.0000
  H   H352      1.0  0.72799  0.80810  0.63959  1.0000
  H   H353      1.0  0.64023  0.72006  0.65785  1.0000
  H   H354      1.0  0.68638  0.76556  0.66276  1.0000
  C   C356      1.0  0.75623  0.72363  0.66632  1.0000
  H   H355      1.0  0.90999  0.92974  0.78387  1.0000
  S   S119      1.0  0.75590  0.67296  0.93249  1.0000
  H   H356      1.0  0.72567  0.55370  0.99420  1.0000
  Fe  Fe60      1.0  0.82147  0.79411  0.73612  1.0000
  S   S120      1.0  0.79692  0.83935  0.76391  1.0000
  C   C357      1.0  0.92711  0.99852  0.77657  1.0000
  Fe  Fe61      1.0  0.89437  0.80695  0.75956  1.0000
  S   S121      1.0  0.87478  0.85257  0.78925  1.0000
  S   S122      1.0  0.94930  0.78220  0.75683  1.0000
  Fe  Fe62      1.0  0.82617  0.81830  0.80334  1.0000
  S   S123      1.0  0.79661  0.81629  0.85273  1.0000
  Fe  Fe63      1.0  0.84717  0.86987  0.74765  1.0000
  S   S124      1.0  0.84837  0.92644  0.72652  1.0000
  S   S125      1.0  0.84769  0.77134  0.77695  1.0000
  S   S126      1.0  0.86987  0.82610  0.71661  1.0000
  C   C358      1.0  0.98944  0.80468  0.76150  1.0000
  H   H357      1.0  0.69259  0.77383  0.86527  1.0000
  C   C359      1.0  0.99040  0.84111  0.76705  1.0000
  H   H358      1.0  0.69768  0.70839  0.87455  1.0000
  H   H359      1.0  0.96610  0.85622  0.76871  1.0000
  C   C360      1.0  0.83942  0.96332  0.78181  1.0000
  C   C361      1.0  0.84222  0.96504  0.74896  1.0000
  C   C362      1.0  0.70811  0.75800  0.84807  1.0000
  H   H360      1.0  0.83899  0.93769  0.79423  1.0000
  H   H361      1.0  0.79076  0.82848  0.97334  1.0000
  C   C363      1.0  0.76673  0.71301  0.91053  1.0000
  C   C364      1.0  0.75152  0.74545  0.91951  1.0000
  C   C365      1.0  0.76092  0.77685  0.90149  1.0000
  C   C366      1.0  0.78552  0.77608  0.87436  1.0000
  C   C367      1.0  0.80067  0.74361  0.86530  1.0000
  C   C368      1.0  0.79131  0.71221  0.88337  1.0000
  H   H362      1.0  0.73250  0.74641  0.94030  1.0000
  H   H363      1.0  0.74905  0.80187  0.90861  1.0000
  H   H364      1.0  0.81976  0.74274  0.84454  1.0000
  H   H365      1.0  0.80322  0.68719  0.87628  1.0000
  C   C369      1.0  0.74759  0.75389  0.80000  1.0000
  H   H366      1.0  0.84435  0.00009  0.70781  1.0000
  H   H367      1.0  0.95603  0.92786  0.76699  1.0000
  S   S127      1.0  0.67256  0.64040  0.99173  1.0000
  N   N30       1.0  0.75063  0.71798  0.80544  1.0000
  C   C370      1.0  0.92980  0.98483  0.72274  1.0000
  C   C371      1.0  0.72652  0.77447  0.82128  1.0000
  H   H368      1.0  0.79786  0.71127  0.77422  1.0000
  C   C372      1.0  0.78890  0.77556  0.99468  1.0000
  H   H369      1.0  0.75831  0.69312  0.76162  1.0000
  C   C373      1.0  0.83324  0.75617  0.94210  1.0000
  C   C374      1.0  0.77973  0.75004  0.67414  1.0000
  H   H370      1.0  0.85007  0.74875  0.92116  1.0000
  H   H371      1.0  0.74264  0.70649  0.68476  1.0000
  H   H372      1.0  0.92517  0.98994  0.80114  1.0000
  H   H373      1.0  0.72552  0.80318  0.81754  1.0000
  H   H374      1.0  0.77959  0.67074  0.79257  1.0000
  Fe  Fe64      1.0  0.72331  0.67203  0.98062  1.0000
  C   C375      1.0  0.73244  0.70154  0.83153  1.0000
  H   H375      1.0  0.73503  0.67314  0.83614  1.0000
  N   N31       1.0  0.82174  0.73102  0.96497  1.0000
  C   C376      1.0  0.83372  0.69411  0.96192  1.0000
  C   C377      1.0  0.77255  0.69706  0.78245  1.0000
  C   C378      1.0  0.84239  0.99853  0.73320  1.0000
  H   H376      1.0  0.83599  0.99340  0.82399  1.0000
  C   C379      1.0  0.82241  0.79162  0.94479  1.0000
  S   S128      1.0  0.78518  0.75535  0.71435  1.0000
  C   C380      1.0  0.79989  0.80124  0.97119  1.0000
  H   H377      1.0  0.76197  0.76690  0.77933  1.0000
  H   H378      1.0  0.53181  0.73823  0.00068  1.0000
  C   C381      1.0  0.71098  0.72129  0.85326  1.0000
  C   C382      1.0  0.83772  0.99493  0.79861  1.0000
  H   H379      1.0  0.92979  0.96537  0.70468  1.0000
  H   H380      1.0  0.83052  0.81119  0.92599  1.0000
  H   H381      1.0  0.92043  0.91921  0.74377  1.0000
  H   H382      1.0  0.85950  0.69071  0.97144  1.0000
  C   C383      1.0  0.92888  0.93588  0.76252  1.0000
  N   N32       1.0  0.92821  0.97397  0.75370  1.0000
  H   H383      1.0  0.81394  0.67524  0.97469  1.0000
  H   H384      1.0  0.83643  0.68656  0.93693  1.0000
  C   C384      1.0  0.80033  0.74041  0.99126  1.0000
