data_image0
_chemical_formula_structural       H2CNSH2FeH2SH2CHCSCSHCSFeS2FeS2FeSFeS3FeSFeHFeSFeNC5H2C5HCNH2C3HSH2C6H4SCHC2H2C2H2NCSH3CHFeC6H4CSH2CHCH2CH2C2SHC5HC2HCH2SHCNHCHC2H7CH2C5H3CH4SCHFeH2CH2C2HFeC2H2SCHCNH3C2HC2H3SCFeC2HCHCS2H4CH2C2HSHCFe2CHFeCSH2CS2H5S3CH3FeHC2HFeCNSH2SCHCSC2HC4HCH2SH3C7H3Fe2HNCS2CH4SC5HNCSCHCHC2NC3NHCFeSH3CHFeHSFeHNC3FeC2HC3HSH2CHCHCSC2SCHC2FeC4HS2CSCSH3C2H2CHC3H2C4FeCH3CSHS2C2HSHFe2HNCH4SHCHCHCH3CSH2SCH2FeCH2CSFeH2NC2H2CH4CH2C2SCFeSH3SFeH4CFeHSHCNCHCSHC7FeH3CSH2C2HC2SHCH2SH3FeC2S2CHSC2NC4H2FeC3HC5HCHCSCFeSNHC3H6FeC2HSC2H3SFeCFeCSH2SH3S2CH2SHCH2C2HC2HSC6H2SFeCSH2SHC3HFeC2H4CFeCHC4SH3CHSN2HFeCFeCSNCH3CHFeCH2C3HSCSH3C2HSNCFeS2NCFeHCH2CSCHC2SH2SH2SFeSFeSFeSFeS3HC3H2CNHC7H5C2H5CHC2H2SHC8H6C2SCNHC3H4CHNCHSH2CH2NH6CHSC2NCFeH2SC5HC9H2CFeSHSCHFeH2C2H2CFeSHCH2C3FeHSHCHFeSCS2FeS2FeS2FeHFeS2FeS2FeS2FeSFeS3FeH2FeS2Fe2S4C5HCH2C4HCH2NC8H3C6H5C6H4C6H4C6H3SH5C2HNH2SC2NC4HC3FeH4C2H7CHC4HC2HC2H3SHCNCNH2CNC6H3C2HC3H4C2HSHCSH3C2HSCHNFeNC2H2S2CH2NHSCH2CHCH5CH4CHC2H4CFeH3CH3CSC4HC4SHC3SCH3SCH3FeSNSH2CHC2H3SCHCH3NCHC3H2CH2C3H3FeS2FeS2FeSFeS3H2FeS2FeHFeSCSFeS2CHCSHFeSHSFeS2FeS2FeSFeS3C6H4C6H4CSHCHC7H4C6H4CHCFeHC2SHSNSCH7CH5C3H2C2HC4H3C3NH2NC3HC2HCHCH4CHCH2CHC2H3CSH2C2HCH2C2HNHCSH2C2H2FeCH2SH2CSHSC5HCFeHCHCH3CFeNHC2HC2H3C5NHNHCHCHSC2FeHS2CH2NH2NHC3HCHCHCH2CHCFeCH3FeH2SCHC2H3FeS2FeNFeHS2FeS2FeS2FeSFeCS2C3HC2H2C2H5CSCHCH3S2HC6H4CFeHCHCHNC6H3SC3HC2H3CH2C4H3CNH2C2HFeS2FeS2FeSFeS3FeS2FeS2FeSFeS3FeS2FeSFeSFeS3C6H3CH2C2HCHC6H4CNC5H2C6H4C6H4SCHC2H5C3H3CHCNCNC3H4CH3SNC2H4NC6H4CSCHNC6H5NC2H4NH3C2H2SHFeCFeCNC2H2CH3CHCHCH3C2H3CSH4S2C2SCHSH2C3HC4HCHC3NSCH4CHC5HC2HCH2CH2CHCHS2CHC2Fe2C4H3FeHCH2CH3SC2H3CH2C2S2C2FeCHC2HFeHSHC3FeCHCFeHSH3SCSFeSC8H7C2HNSHCFeHS3CS3CHCHCHSCHC2H2NC4HCH2CSCH3C2Fe2HSC2SC3HSCFeCH2CHCHCH4CHCH4C2HNCHCH3N
_chemical_formula_sum              "H768 C768 N64 S256 Fe128"
_cell_length_a       68.8094
_cell_length_b       69.0096
_cell_length_c       32.4751
_cell_angle_alpha    78.8742
_cell_angle_beta     77.9594
_cell_angle_gamma    76.6181

_space_group_name_H-M_alt    "P 1"
_space_group_IT_number       1

loop_
  _space_group_symop_operation_xyz
  'x, y, z'

loop_
  _atom_site_type_symbol
  _atom_site_label
  _atom_site_symmetry_multiplicity
  _atom_site_fract_x
  _atom_site_fract_y
  _atom_site_fract_z
  _atom_site_occupancy
  H   H1        1.0  0.25343  0.05760  0.46139  1.0000
  H   H2        1.0  0.15287  0.12954  0.24226  1.0000
  C   C1        1.0  0.28026  0.04707  0.49056  1.0000
  N   N1        1.0  0.29703  0.08474  0.22998  1.0000
  S   S1        1.0  0.29694  0.14088  0.25442  1.0000
  H   H3        1.0  0.27096  0.07875  0.27557  1.0000
  H   H4        1.0  0.18703  0.05873  0.20394  1.0000
  Fe  Fe1       1.0  0.31497  0.15433  0.19471  1.0000
  H   H5        1.0  0.29492  0.06344  0.28629  1.0000
  H   H6        1.0  0.28970  0.16021  0.43612  1.0000
  S   S2        1.0  0.31012  0.16068  0.12682  1.0000
  H   H7        1.0  0.27716  0.00533  0.36207  1.0000
  H   H8        1.0  0.28930  0.09140  0.12824  1.0000
  C   C2        1.0  0.31581  0.08945  0.22287  1.0000
  H   H9        1.0  0.24224  0.14929  0.42978  1.0000
  C   C3        1.0  0.08226  0.08156  0.47560  1.0000
  S   S3        1.0  0.06436  0.99174  0.36085  1.0000
  C   C4        1.0  0.14159  0.09095  0.26774  1.0000
  S   S4        1.0  0.30610  0.03320  0.21747  1.0000
  H   H10       1.0  0.27870  0.17849  0.29261  1.0000
  C   C5        1.0  0.11381  0.06925  0.36785  1.0000
  S   S5        1.0  0.30046  0.08727  0.50177  1.0000
  Fe  Fe2       1.0  0.21207  0.09443  0.30244  1.0000
  S   S6        1.0  0.18983  0.11252  0.34806  1.0000
  S   S7        1.0  0.22195  0.10840  0.23542  1.0000
  Fe  Fe3       1.0  0.21646  0.05673  0.36731  1.0000
  S   S8        1.0  0.19473  0.07145  0.41947  1.0000
  S   S9        1.0  0.23540  0.02570  0.37406  1.0000
  Fe  Fe4       1.0  0.17608  0.08507  0.36812  1.0000
  S   S10       1.0  0.14222  0.08907  0.37725  1.0000
  Fe  Fe5       1.0  0.21060  0.09750  0.39455  1.0000
  S   S11       1.0  0.21719  0.11691  0.43598  1.0000
  S   S12       1.0  0.19655  0.06825  0.31779  1.0000
  S   S13       1.0  0.23410  0.08135  0.34737  1.0000
  Fe  Fe6       1.0  0.04659  0.03631  0.42506  1.0000
  S   S14       1.0  0.05538  0.04105  0.35393  1.0000
  Fe  Fe7       1.0  0.32062  0.18940  0.12430  1.0000
  H   H11       1.0  0.28020  0.00710  0.18745  1.0000
  Fe  Fe8       1.0  0.08108  0.01520  0.36578  1.0000
  S   S15       1.0  0.11359  0.01541  0.33637  1.0000
  Fe  Fe9       1.0  0.03769  0.01721  0.35630  1.0000
  N   N2        1.0  0.15942  0.09760  0.25372  1.0000
  C   C6        1.0  0.25068  0.03751  0.29055  1.0000
  C   C7        1.0  0.12143  0.03557  0.34924  1.0000
  C   C8        1.0  0.13440  0.06823  0.36728  1.0000
  C   C9        1.0  0.14847  0.05073  0.35839  1.0000
  C   C10       1.0  0.14203  0.03454  0.34872  1.0000
  H   H12       1.0  0.16429  0.04953  0.35919  1.0000
  H   H13       1.0  0.15297  0.02110  0.34135  1.0000
  C   C11       1.0  0.28627  0.02918  0.25986  1.0000
  C   C12       1.0  0.29007  0.01695  0.29818  1.0000
  C   C13       1.0  0.27415  0.01474  0.33243  1.0000
  C   C14       1.0  0.25453  0.02549  0.32905  1.0000
  C   C15       1.0  0.10730  0.05284  0.35943  1.0000
  H   H14       1.0  0.31722  0.11856  0.32346  1.0000
  C   C16       1.0  0.01862  0.98695  0.23615  1.0000
  N   N3        1.0  0.09991  0.06492  0.47349  1.0000
  H   H15       1.0  0.23554  0.04570  0.28754  1.0000
  H   H16       1.0  0.10286  0.08276  0.37470  1.0000
  C   C17       1.0  0.26644  0.03902  0.25574  1.0000
  C   C18       1.0  0.28102  0.14919  0.43194  1.0000
  C   C19       1.0  0.13336  0.03348  0.46488  1.0000
  H   H17       1.0  0.15487  0.04601  0.23095  1.0000
  S   S16       1.0  0.07338  0.01174  0.43677  1.0000
  H   H18       1.0  0.27053  0.14614  0.46239  1.0000
  H   H19       1.0  0.09138  0.05374  0.35999  1.0000
  C   C20       1.0  0.27827  0.09777  0.48070  1.0000
  C   C21       1.0  0.27696  0.09522  0.43965  1.0000
  C   C22       1.0  0.25817  0.10085  0.42560  1.0000
  C   C23       1.0  0.24082  0.10920  0.45251  1.0000
  C   C24       1.0  0.24239  0.11243  0.49280  1.0000
  C   C25       1.0  0.26100  0.10643  0.50712  1.0000
  H   H20       1.0  0.29028  0.08823  0.41941  1.0000
  H   H21       1.0  0.25711  0.09880  0.39404  1.0000
  H   H22       1.0  0.22903  0.11906  0.51350  1.0000
  H   H23       1.0  0.26192  0.10813  0.53907  1.0000
  S   S17       1.0  0.01574  0.01554  0.31561  1.0000
  C   C26       1.0  0.99733  0.07311  0.22623  1.0000
  H   H24       1.0  0.27424  0.05612  0.51596  1.0000
  C   C27       1.0  0.00986  0.03713  0.27886  1.0000
  C   C28       1.0  0.17409  0.06776  0.22156  1.0000
  H   H25       1.0  0.07684  0.08546  0.44450  1.0000
  H   H26       1.0  0.32336  0.08890  0.24927  1.0000
  C   C29       1.0  0.16103  0.11704  0.26322  1.0000
  C   C30       1.0  0.28726  0.07882  0.27380  1.0000
  H   H27       1.0  0.02414  0.08178  0.23512  1.0000
  H   H28       1.0  0.12893  0.09970  0.28671  1.0000
  N   N4        1.0  0.29930  0.03526  0.48825  1.0000
  C   C31       1.0  0.01542  0.06999  0.24203  1.0000
  S   S18       1.0  0.04140  0.06374  0.45684  1.0000
  H   H29       1.0  0.15441  0.11843  0.29711  1.0000
  H   H30       1.0  0.28938  0.99049  0.14718  1.0000
  H   H31       1.0  0.15090  0.05537  0.46675  1.0000
  C   C32       1.0  0.31586  0.09609  0.14719  1.0000
  H   H32       1.0  0.17710  0.11866  0.25841  1.0000
  Fe  Fe10      1.0  0.05398  0.99082  0.43098  1.0000
  C   C33       1.0  0.27493  0.13446  0.24715  1.0000
  C   C34       1.0  0.26089  0.12942  0.28309  1.0000
  C   C35       1.0  0.24362  0.12322  0.27868  1.0000
  C   C36       1.0  0.24093  0.12081  0.23865  1.0000
  C   C37       1.0  0.25457  0.12653  0.20235  1.0000
  C   C38       1.0  0.27158  0.13349  0.20662  1.0000
  H   H33       1.0  0.26345  0.13004  0.31452  1.0000
  H   H34       1.0  0.23252  0.12007  0.30650  1.0000
  H   H35       1.0  0.25242  0.12487  0.17124  1.0000
  H   H36       1.0  0.28245  0.13726  0.17876  1.0000
  C   C39       1.0  0.01558  0.07355  0.47235  1.0000
  S   S19       1.0  0.32216  0.18431  0.19371  1.0000
  H   H37       1.0  0.30520  0.00932  0.30187  1.0000
  H   H38       1.0  0.12561  0.06697  0.27131  1.0000
  C   C40       1.0  0.11400  0.03029  0.46556  1.0000
  H   H39       1.0  0.03526  0.04980  0.28188  1.0000
  C   C41       1.0  0.11886  0.06819  0.47282  1.0000
  H   H40       1.0  0.18954  0.09185  0.21855  1.0000
  H   H41       1.0  0.29173  0.13487  0.42610  1.0000
  C   C42       1.0  0.13963  0.07243  0.25925  1.0000
  H   H42       1.0  0.24267  0.17606  0.29907  1.0000
  H   H43       1.0  0.26331  0.04830  0.22608  1.0000
  C   C43       1.0  0.13584  0.05250  0.46881  1.0000
  C   C44       1.0  0.17543  0.08650  0.23005  1.0000
  S   S20       1.0  0.02618  0.01492  0.42647  1.0000
  H   H44       1.0  0.06963  0.07703  0.50041  1.0000
  C   C45       1.0  0.25024  0.17109  0.32654  1.0000
  C   C46       1.0  0.24009  0.16260  0.36522  1.0000
  C   C47       1.0  0.00137  0.06121  0.47970  1.0000
  C   C48       1.0  0.25031  0.15579  0.39988  1.0000
  C   C49       1.0  0.29688  0.09088  0.15464  1.0000
  H   H45       1.0  0.12111  0.08315  0.47367  1.0000
  C   C50       1.0  0.02160  0.05201  0.26880  1.0000
  C   C51       1.0  0.15608  0.06067  0.23654  1.0000
  H   H46       1.0  0.30237  0.01691  0.39722  1.0000
  C   C52       1.0  0.28768  0.08507  0.19649  1.0000
  H   H47       1.0  0.22452  0.16092  0.36830  1.0000
  H   H48       1.0  0.29621  0.16582  0.35453  1.0000
  S   S21       1.0  0.30475  0.22011  0.09883  1.0000
  H   H49       1.0  0.32313  0.10079  0.11493  1.0000
  C   C53       1.0  0.09733  0.04627  0.47008  1.0000
  N   N5        1.0  0.27018  0.15712  0.39597  1.0000
  H   H50       1.0  0.27286  0.08120  0.20206  1.0000
  C   C54       1.0  0.28033  0.16515  0.35799  1.0000
  H   H51       1.0  0.32047  0.01955  0.52880  1.0000
  C   C55       1.0  0.27047  0.17245  0.32289  1.0000
  C   C56       1.0  0.31193  0.03502  0.51963  1.0000
  H   H52       1.0  0.00624  0.04543  0.47681  1.0000
  H   H53       1.0  0.08233  0.04387  0.46986  1.0000
  H   H54       1.0  0.32009  0.98799  0.22652  1.0000
  H   H55       1.0  0.28799  0.08965  0.29440  1.0000
  H   H56       1.0  0.26745  0.03807  0.40149  1.0000
  H   H57       1.0  0.02497  0.00082  0.23080  1.0000
  H   H58       1.0  0.02012  0.10347  0.47180  1.0000
  C   C57       1.0  0.29586  0.02528  0.42359  1.0000
  H   H59       1.0  0.08577  0.09524  0.48324  1.0000
  H   H60       1.0  0.00387  0.98935  0.25825  1.0000
  C   C58       1.0  0.26847  0.04809  0.45963  1.0000
  C   C59       1.0  0.00914  0.09388  0.47744  1.0000
  C   C60       1.0  0.27638  0.03718  0.42588  1.0000
  C   C61       1.0  0.30710  0.02439  0.45540  1.0000
  C   C62       1.0  0.32550  0.09517  0.18147  1.0000
  H   H61       1.0  0.14646  0.02137  0.46016  1.0000
  H   H62       1.0  0.32228  0.01518  0.45330  1.0000
  H   H63       1.0  0.11197  0.01568  0.46147  1.0000
  C   C63       1.0  0.29284  0.99529  0.17518  1.0000
  H   H64       1.0  0.30657  0.00203  0.16364  1.0000
  H   H65       1.0  0.30269  0.04053  0.54904  1.0000
  H   H66       1.0  0.04700  0.98645  0.28173  1.0000
  H   H67       1.0  0.32290  0.04513  0.50599  1.0000
  S   S22       1.0  0.32066  0.13738  0.49979  1.0000
  C   C64       1.0  0.31807  0.22987  0.05031  1.0000
  H   H68       1.0  0.32276  0.20011  0.31454  1.0000
  Fe  Fe11      1.0  0.32408  0.10640  0.48419  1.0000
  H   H69       1.0  0.99773  0.06896  0.34478  1.0000
  H   H70       1.0  0.30411  0.26067  0.05712  1.0000
  C   C65       1.0  0.31521  0.25074  0.03775  1.0000
  H   H71       1.0  0.32534  0.27500  0.99197  1.0000
  H   H72       1.0  0.28863  0.71812  0.26951  1.0000
  C   C66       1.0  0.02403  0.73558  0.32017  1.0000
  C   C67       1.0  0.01753  0.67289  0.12881  1.0000
  H   H73       1.0  0.03385  0.69511  0.09079  1.0000
  Fe  Fe12      1.0  0.00433  0.67406  0.36365  1.0000
  C   C68       1.0  0.02312  0.71508  0.32744  1.0000
  C   C69       1.0  0.01507  0.65997  0.16743  1.0000
  H   H74       1.0  0.31855  0.67733  0.16327  1.0000
  H   H75       1.0  0.06529  0.69965  0.10652  1.0000
  S   S23       1.0  0.00281  0.62321  0.49498  1.0000
  C   C70       1.0  0.02812  0.70412  0.29337  1.0000
  H   H76       1.0  0.29494  0.69303  0.22068  1.0000
  C   C71       1.0  0.04179  0.67126  0.18818  1.0000
  N   N6        1.0  0.04437  0.68364  0.14987  1.0000
  H   H77       1.0  0.05186  0.71154  0.15159  1.0000
  H   H78       1.0  0.02492  0.64977  0.22832  1.0000
  H   H79       1.0  0.00417  0.58422  0.54686  1.0000
  C   C72       1.0  0.25740  0.71659  0.15517  1.0000
  C   C73       1.0  0.24047  0.70773  0.17083  1.0000
  H   H80       1.0  0.01864  0.70779  0.35947  1.0000
  C   C74       1.0  0.32041  0.71705  0.26696  1.0000
  C   C75       1.0  0.03406  0.71369  0.25215  1.0000
  H   H81       1.0  0.24220  0.69151  0.17538  1.0000
  H   H82       1.0  0.00355  0.65082  0.17427  1.0000
  H   H83       1.0  0.20808  0.71288  0.19109  1.0000
  S   S24       1.0  0.02543  0.67898  0.30148  1.0000
  C   C76       1.0  0.02712  0.65928  0.19754  1.0000
  Fe  Fe13      1.0  0.30413  0.71973  0.10846  1.0000
  C   C77       1.0  0.30406  0.71155  0.25620  1.0000
  C   C78       1.0  0.05921  0.69674  0.14120  1.0000
  H   H84       1.0  0.05086  0.67078  0.21217  1.0000
  C   C79       1.0  0.22118  0.71983  0.17975  1.0000
  H   H85       1.0  0.03783  0.70537  0.22584  1.0000
  C   C80       1.0  0.03231  0.68474  0.12055  1.0000
  S   S25       1.0  0.00950  0.67515  0.42912  1.0000
  S   S26       1.0  0.28131  0.70121  0.14252  1.0000
  H   H86       1.0  0.00321  0.70058  0.22528  1.0000
  H   H87       1.0  0.99901  0.72441  0.18971  1.0000
  H   H88       1.0  0.07226  0.68989  0.15797  1.0000
  H   H89       1.0  0.99889  0.71534  0.11193  1.0000
  C   C81       1.0  0.30774  0.69748  0.22832  1.0000
  H   H90       1.0  0.31780  0.72797  0.28843  1.0000
  H   H91       1.0  0.00773  0.67397  0.10584  1.0000
  C   C82       1.0  0.03428  0.73428  0.24466  1.0000
  C   C83       1.0  0.24466  0.77285  0.28794  1.0000
  H   H92       1.0  0.01698  0.94793  0.36674  1.0000
  S   S27       1.0  0.24811  0.91273  0.07449  1.0000
  H   H93       1.0  0.10380  0.76456  0.18165  1.0000
  C   C84       1.0  0.30569  0.80297  0.21517  1.0000
  Fe  Fe14      1.0  0.26990  0.90606  0.12019  1.0000
  Fe  Fe15      1.0  0.19099  0.78832  0.18423  1.0000
  C   C85       1.0  0.30198  0.80940  0.09078  1.0000
  H   H94       1.0  0.21371  0.79096  0.38834  1.0000
  Fe  Fe16      1.0  0.19074  0.83009  0.13381  1.0000
  C   C86       1.0  0.20185  0.88363  0.21040  1.0000
  S   S28       1.0  0.19828  0.84767  0.06941  1.0000
  H   H95       1.0  0.25174  0.81400  0.18918  1.0000
  H   H96       1.0  0.19411  0.77457  0.08459  1.0000
  C   C87       1.0  0.13575  0.77585  0.19620  1.0000
  S   S29       1.0  0.21421  0.80791  0.16628  1.0000
  S   S30       1.0  0.16908  0.80917  0.14577  1.0000
  H   H97       1.0  0.13278  0.78731  0.16788  1.0000
  H   H98       1.0  0.18391  0.88709  0.16167  1.0000
  H   H99       1.0  0.20347  0.92890  0.09009  1.0000
  H   H100      1.0  0.17808  0.93157  0.12105  1.0000
  H   H101      1.0  0.23162  0.91580  0.21488  1.0000
  S   S31       1.0  0.25792  0.90098  0.27855  1.0000
  S   S32       1.0  0.02890  0.79976  0.07824  1.0000
  S   S33       1.0  0.02936  0.90472  0.36416  1.0000
  C   C88       1.0  0.21547  0.89161  0.22525  1.0000
  H   H102      1.0  0.03415  0.85821  0.08543  1.0000
  H   H103      1.0  0.01718  0.94963  0.53468  1.0000
  H   H104      1.0  0.29503  0.85838  0.10334  1.0000
  Fe  Fe17      1.0  0.03064  0.78117  0.19854  1.0000
  H   H105      1.0  0.27543  0.76079  0.20891  1.0000
  C   C89       1.0  0.31422  0.96036  0.26558  1.0000
  C   C90       1.0  0.03311  0.95376  0.41173  1.0000
  H   H106      1.0  0.25060  0.83845  0.41927  1.0000
  Fe  Fe18      1.0  0.30193  0.92391  0.14262  1.0000
  C   C91       1.0  0.22393  0.75718  0.06590  1.0000
  N   N7        1.0  0.29630  0.97808  0.20900  1.0000
  S   S34       1.0  0.30312  0.90368  0.09565  1.0000
  H   H107      1.0  0.20530  0.82727  0.36036  1.0000
  H   H108      1.0  0.08435  0.81784  0.23685  1.0000
  S   S35       1.0  0.19415  0.75541  0.18264  1.0000
  C   C92       1.0  0.03943  0.86098  0.14692  1.0000
  H   H109      1.0  0.27444  0.77419  0.15525  1.0000
  C   C93       1.0  0.27437  0.82627  0.20580  1.0000
  S   S36       1.0  0.12289  0.82827  0.23105  1.0000
  C   C94       1.0  0.08919  0.82215  0.12915  1.0000
  C   C95       1.0  0.03529  0.92060  0.39394  1.0000
  H   H110      1.0  0.20773  0.86146  0.36292  1.0000
  C   C96       1.0  0.30248  0.94561  0.27370  1.0000
  C   C97       1.0  0.22366  0.85616  0.36825  1.0000
  C   C98       1.0  0.05425  0.92459  0.44601  1.0000
  C   C99       1.0  0.04887  0.91230  0.42232  1.0000
  H   H111      1.0  0.30505  0.93279  0.29857  1.0000
  C   C100      1.0  0.02726  0.94134  0.38893  1.0000
  H   H112      1.0  0.06464  0.91806  0.46814  1.0000
  H   H113      1.0  0.05518  0.89630  0.42617  1.0000
  S   S37       1.0  0.05629  0.77010  0.14816  1.0000
  H   H114      1.0  0.21769  0.78858  0.26328  1.0000
  H   H115      1.0  0.11349  0.83295  0.08391  1.0000
  H   H116      1.0  0.25313  0.77848  0.19732  1.0000
  C   C101      1.0  0.23666  0.89294  0.07159  1.0000
  C   C102      1.0  0.23522  0.87689  0.10508  1.0000
  C   C103      1.0  0.22363  0.86270  0.10442  1.0000
  C   C104      1.0  0.21382  0.86440  0.06983  1.0000
  C   C105      1.0  0.21586  0.88001  0.03574  1.0000
  C   C106      1.0  0.22709  0.89437  0.03682  1.0000
  C   C107      1.0  0.23025  0.79003  0.27681  1.0000
  H   H117      1.0  0.22210  0.85065  0.13087  1.0000
  H   H118      1.0  0.20831  0.88133  0.00894  1.0000
  H   H119      1.0  0.22812  0.90678  0.01091  1.0000
  Fe  Fe19      1.0  0.19761  0.82196  0.22391  1.0000
  Fe  Fe20      1.0  0.30248  0.76246  0.34457  1.0000
  H   H120      1.0  0.22158  0.88406  0.25375  1.0000
  N   N8        1.0  0.11671  0.77464  0.22595  1.0000
  C   C108      1.0  0.26686  0.81071  0.19680  1.0000
  S   S38       1.0  0.02801  0.81367  0.17083  1.0000
  S   S39       1.0  0.17583  0.84571  0.18992  1.0000
  C   C109      1.0  0.02723  0.86112  0.11748  1.0000
  H   H121      1.0  0.18947  0.90961  0.09512  1.0000
  H   H122      1.0  0.24228  0.87583  0.13228  1.0000
  H   H123      1.0  0.00433  0.77534  0.05194  1.0000
  H   H124      1.0  0.06586  0.92228  0.30833  1.0000
  S   S40       1.0  0.28984  0.79323  0.07477  1.0000
  C   C110      1.0  0.21367  0.91870  0.16591  1.0000
  C   C111      1.0  0.08328  0.76725  0.24088  1.0000
  C   C112      1.0  0.32039  0.80195  0.10562  1.0000
  C   C113      1.0  0.27602  0.86457  0.38217  1.0000
  C   C114      1.0  0.31080  0.97667  0.23309  1.0000
  H   H125      1.0  0.09307  0.78421  0.32442  1.0000
  N   N9        1.0  0.20057  0.91058  0.15119  1.0000
  C   C115      1.0  0.22124  0.90938  0.20320  1.0000
  S   S41       1.0  0.26824  0.92868  0.16236  1.0000
  C   C116      1.0  0.08015  0.77285  0.28113  1.0000
  H   H126      1.0  0.30661  0.77253  0.20787  1.0000
  C   C117      1.0  0.26119  0.77463  0.30461  1.0000
  H   H127      1.0  0.24320  0.75825  0.28276  1.0000
  C   C118      1.0  0.25034  0.77650  0.04083  1.0000
  C   C119      1.0  0.21678  0.82198  0.38059  1.0000
  N   N10       1.0  0.23642  0.79396  0.04602  1.0000
  C   C120      1.0  0.02929  0.74525  0.27865  1.0000
  C   C121      1.0  0.19240  0.92073  0.11260  1.0000
  C   C122      1.0  0.19437  0.89346  0.17329  1.0000
  N   N11       1.0  0.03234  0.96927  0.25431  1.0000
  H   H128      1.0  0.05583  0.85812  0.13765  1.0000
  C   C123      1.0  0.30205  0.84264  0.10450  1.0000
  Fe  Fe21      1.0  0.05135  0.80246  0.11717  1.0000
  S   S42       1.0  0.27356  0.87945  0.17166  1.0000
  H   H129      1.0  0.19720  0.86986  0.22745  1.0000
  H   H130      1.0  0.24122  0.77824  0.43171  1.0000
  H   H131      1.0  0.27293  0.96509  0.19818  1.0000
  C   C124      1.0  0.24294  0.81336  0.03719  1.0000
  H   H132      1.0  0.21869  0.93222  0.14828  1.0000
  Fe  Fe22      1.0  0.27482  0.90173  0.21187  1.0000
  H   H133      1.0  0.25893  0.89465  0.36756  1.0000
  S   S43       1.0  0.21514  0.83056  0.26610  1.0000
  Fe  Fe23      1.0  0.15619  0.82270  0.20540  1.0000
  H   H134      1.0  0.06574  0.77235  0.30235  1.0000
  N   N12       1.0  0.22726  0.83505  0.38862  1.0000
  C   C125      1.0  0.32011  0.83510  0.12063  1.0000
  C   C126      1.0  0.24222  0.82820  0.41285  1.0000
  C   C127      1.0  0.26708  0.88102  0.35508  1.0000
  Fe  Fe24      1.0  0.30682  0.87898  0.15094  1.0000
  C   C128      1.0  0.11380  0.78017  0.26542  1.0000
  C   C129      1.0  0.26909  0.88005  0.31181  1.0000
  H   H135      1.0  0.27469  0.86556  0.41554  1.0000
  C   C130      1.0  0.24728  0.80777  0.42913  1.0000
  C   C131      1.0  0.23236  0.80897  0.28249  1.0000
  C   C132      1.0  0.05835  0.95474  0.29683  1.0000
  H   H136      1.0  0.26802  0.74449  0.13620  1.0000
  S   S44       1.0  0.17650  0.80027  0.24518  1.0000
  H   H137      1.0  0.25052  0.82533  0.30404  1.0000
  H   H138      1.0  0.25951  0.80249  0.44751  1.0000
  C   C133      1.0  0.27975  0.86240  0.29576  1.0000
  H   H139      1.0  0.28128  0.86162  0.26232  1.0000
  C   C134      1.0  0.24866  0.81070  0.30004  1.0000
  H   H140      1.0  0.21915  0.74279  0.07493  1.0000
  C   C135      1.0  0.04654  0.94534  0.44047  1.0000
  S   S45       1.0  0.02900  0.77112  0.26883  1.0000
  C   C136      1.0  0.05684  0.93550  0.29227  1.0000
  C   C137      1.0  0.10925  0.82752  0.19170  1.0000
  S   S46       1.0  0.31176  0.74207  0.14091  1.0000
  C   C138      1.0  0.23697  0.79425  0.42041  1.0000
  H   H141      1.0  0.99540  0.96737  0.55530  1.0000
  C   C139      1.0  0.09078  0.82106  0.20352  1.0000
  C   C140      1.0  0.29290  0.82977  0.08986  1.0000
  Fe  Fe25      1.0  0.00587  0.80831  0.13491  1.0000
  C   C141      1.0  0.28647  0.84680  0.36650  1.0000
  C   C142      1.0  0.28821  0.84563  0.32326  1.0000
  C   C143      1.0  0.22149  0.80138  0.39628  1.0000
  C   C144      1.0  0.10169  0.76839  0.21337  1.0000
  H   H142      1.0  0.27877  0.83561  0.07800  1.0000
  S   S47       1.0  0.29320  0.77147  0.40937  1.0000
  S   S48       1.0  0.07700  0.81852  0.08977  1.0000
  C   C145      1.0  0.10721  0.82946  0.11729  1.0000
  S   S49       1.0  0.28025  0.75352  0.31424  1.0000
  C   C146      1.0  0.24428  0.75788  0.05037  1.0000
  S   S50       1.0  0.30847  0.89892  0.19630  1.0000
  H   H143      1.0  0.27533  0.79497  0.32542  1.0000
  H   H144      1.0  0.20540  0.80713  0.06545  1.0000
  H   H145      1.0  0.25870  0.81226  0.01925  1.0000
  C   C147      1.0  0.11733  0.83199  0.14856  1.0000
  C   C148      1.0  0.21642  0.79337  0.06108  1.0000
  H   H146      1.0  0.06724  0.81213  0.18187  1.0000
  H   H147      1.0  0.23285  0.82485  0.01794  1.0000
  C   C149      1.0  0.29745  0.78759  0.20737  1.0000
  H   H148      1.0  0.04127  0.91832  0.26622  1.0000
  C   C150      1.0  0.08100  0.81793  0.17233  1.0000
  C   C151      1.0  0.26291  0.79349  0.31163  1.0000
  C   C152      1.0  0.28744  0.94738  0.24953  1.0000
  H   H149      1.0  0.13128  0.83759  0.13921  1.0000
  H   H150      1.0  0.24242  0.81874  0.06759  1.0000
  C   C153      1.0  0.03067  0.95042  0.24997  1.0000
  C   C154      1.0  0.09547  0.77940  0.29355  1.0000
  C   C155      1.0  0.23574  0.74973  0.15903  1.0000
  C   C156      1.0  0.00614  0.86428  0.13011  1.0000
  Fe  Fe26      1.0  0.03175  0.76816  0.11406  1.0000
  C   C157      1.0  0.26993  0.77542  0.18956  1.0000
  H   H151      1.0  0.26625  0.77691  0.02957  1.0000
  H   H152      1.0  0.03983  0.86351  0.21187  1.0000
  H   H153      1.0  0.00240  0.86914  0.23259  1.0000
  C   C158      1.0  0.20989  0.77501  0.07146  1.0000
  S   S51       1.0  0.29908  0.74057  0.04821  1.0000
  H   H154      1.0  0.14696  0.78026  0.21092  1.0000
  S   S52       1.0  0.00660  0.77641  0.16710  1.0000
  S   S53       1.0  0.02891  0.74009  0.09274  1.0000
  C   C159      1.0  0.03046  0.86393  0.18854  1.0000
  C   C160      1.0  0.04295  0.93328  0.26868  1.0000
  H   H155      1.0  0.23390  0.76593  0.15354  1.0000
  S   S54       1.0  0.29616  0.82627  0.40277  1.0000
  H   H156      1.0  0.23395  0.85777  0.33699  1.0000
  Fe  Fe27      1.0  0.31014  0.79633  0.38117  1.0000
  Fe  Fe28      1.0  0.30898  0.76226  0.07849  1.0000
  H   H157      1.0  0.22664  0.86620  0.38822  1.0000
  N   N13       1.0  0.27816  0.79156  0.19879  1.0000
  C   C161      1.0  0.00235  0.95898  0.52815  1.0000
  H   H158      1.0  0.27819  0.93600  0.25572  1.0000
  H   H159      1.0  0.14284  0.76100  0.18584  1.0000
  H   H160      1.0  0.26497  0.84117  0.20566  1.0000
  H   H161      1.0  0.12544  0.78576  0.27492  1.0000
  S   S55       1.0  0.31636  0.95093  0.12094  1.0000
  H   H162      1.0  0.25534  0.74401  0.04686  1.0000
  C   C162      1.0  0.29396  0.82237  0.21489  1.0000
  H   H163      1.0  0.29621  0.83195  0.31099  1.0000
  C   C163      1.0  0.00401  0.74483  0.08284  1.0000
  H   H164      1.0  0.02702  0.96981  0.40747  1.0000
  C   C164      1.0  0.28449  0.96386  0.21717  1.0000
  H   H165      1.0  0.06870  0.95656  0.31618  1.0000
  H   H166      1.0  0.01963  0.94855  0.23239  1.0000
  H   H167      1.0  0.01298  0.92895  0.48263  1.0000
  C   C165      1.0  0.99697  0.93192  0.49562  1.0000
  S   S56       1.0  0.05343  0.96050  0.47030  1.0000
  H   H168      1.0  0.30031  0.83444  0.22052  1.0000
  H   H169      1.0  0.00525  0.97028  0.49928  1.0000
  S   S57       1.0  0.99798  0.90993  0.27358  1.0000
  C   C166      1.0  0.00932  0.86706  0.20007  1.0000
  H   H170      1.0  0.07136  0.76230  0.23095  1.0000
  H   H171      1.0  0.01573  0.98489  0.20499  1.0000
  Fe  Fe29      1.0  0.00043  0.91564  0.33779  1.0000
  C   C167      1.0  0.04589  0.97157  0.27755  1.0000
  H   H172      1.0  0.03822  0.74165  0.21250  1.0000
  H   H173      1.0  0.02039  0.74393  0.34668  1.0000
  C   C168      1.0  0.25504  0.73760  0.14914  1.0000
  S   S58       1.0  0.31720  0.78879  0.31487  1.0000
  Fe  Fe30      1.0  0.32330  0.75297  0.42132  1.0000
  H   H174      1.0  0.32122  0.80003  0.22048  1.0000
  H   H175      1.0  0.99679  0.86389  0.10730  1.0000
  N   N14       1.0  0.99746  0.86730  0.17092  1.0000
  C   C169      1.0  0.21876  0.74082  0.17388  1.0000
  C   C170      1.0  0.99532  0.76386  0.06337  1.0000
  H   H176      1.0  0.32614  0.95903  0.28381  1.0000
  H   H177      1.0  0.42521  0.14258  0.49342  1.0000
  C   C171      1.0  0.34293  0.17450  0.34233  1.0000
  H   H178      1.0  0.50005  0.20068  0.71937  1.0000
  H   H179      1.0  0.40366  0.21459  0.71019  1.0000
  H   H180      1.0  0.32938  0.08163  0.34404  1.0000
  H   H181      1.0  0.39180  0.14531  0.72261  1.0000
  C   C172      1.0  0.37410  0.14794  0.95053  1.0000
  H   H182      1.0  0.39430  0.13756  0.67170  1.0000
  H   H183      1.0  0.42475  0.13906  0.61959  1.0000
  C   C173      1.0  0.61015  0.19081  0.86958  1.0000
  C   C174      1.0  0.39763  0.14890  0.68800  1.0000
  S   S59       1.0  0.39024  0.00586  0.26911  1.0000
  C   C175      1.0  0.33674  0.18920  0.30895  1.0000
  Fe  Fe31      1.0  0.37840  0.03363  0.22550  1.0000
  S   S60       1.0  0.39708  0.05736  0.19970  1.0000
  H   H184      1.0  0.48709  0.22455  0.77633  1.0000
  H   H185      1.0  0.33370  0.19874  0.53795  1.0000
  H   H186      1.0  0.36444  0.13976  0.97678  1.0000
  S   S61       1.0  0.38462  0.17255  0.84497  1.0000
  Fe  Fe32      1.0  0.33691  0.02324  0.23636  1.0000
  H   H187      1.0  0.45366  0.16443  0.72098  1.0000
  H   H188      1.0  0.63048  0.20021  0.76224  1.0000
  H   H189      1.0  0.64001  0.20732  0.66524  1.0000
  H   H190      1.0  0.46125  0.22535  0.88331  1.0000
  C   C176      1.0  0.34739  0.19664  0.51428  1.0000
  Fe  Fe33      1.0  0.35985  0.01328  0.31010  1.0000
  H   H191      1.0  0.47501  0.15606  0.65273  1.0000
  S   S62       1.0  0.34732  0.13906  0.18028  1.0000
  H   H192      1.0  0.34041  0.09880  0.17601  1.0000
  C   C177      1.0  0.37016  0.10482  0.09785  1.0000
  N   N15       1.0  0.38300  0.18942  0.45574  1.0000
  C   C178      1.0  0.51700  0.22362  0.68808  1.0000
  H   H193      1.0  0.36564  0.17891  0.42042  1.0000
  C   C179      1.0  0.38264  0.19837  0.49004  1.0000
  S   S63       1.0  0.44929  0.19474  0.95216  1.0000
  H   H194      1.0  0.40313  0.17043  0.41404  1.0000
  C   C180      1.0  0.38190  0.18352  0.79252  1.0000
  C   C181      1.0  0.38007  0.14575  0.56158  1.0000
  C   C182      1.0  0.38193  0.16054  0.58371  1.0000
  C   C183      1.0  0.39910  0.16932  0.57238  1.0000
  C   C184      1.0  0.41467  0.16295  0.53962  1.0000
  C   C185      1.0  0.41312  0.14766  0.51853  1.0000
  C   C186      1.0  0.39578  0.13913  0.52937  1.0000
  Fe  Fe34      1.0  0.37445  0.99028  0.23509  1.0000
  H   H195      1.0  0.39996  0.18135  0.58834  1.0000
  H   H196      1.0  0.34146  0.13952  0.28102  1.0000
  H   H197      1.0  0.33408  0.18438  0.47300  1.0000
  C   C187      1.0  0.38241  0.06334  0.39962  1.0000
  S   S64       1.0  0.46879  0.20409  0.67147  1.0000
  H   H198      1.0  0.38515  0.12465  0.11794  1.0000
  H   H199      1.0  0.35437  0.17337  0.79419  1.0000
  C   C188      1.0  0.40194  0.18488  0.42567  1.0000
  C   C189      1.0  0.39357  0.04888  0.37429  1.0000
  H   H200      1.0  0.44187  0.15162  0.92288  1.0000
  C   C190      1.0  0.51156  0.20632  0.88393  1.0000
  C   C191      1.0  0.42810  0.15124  0.94624  1.0000
  S   S65       1.0  0.42528  0.19547  0.62949  1.0000
  H   H201      1.0  0.60861  0.19813  0.65460  1.0000
  C   C192      1.0  0.47315  0.19955  0.92616  1.0000
  H   H202      1.0  0.34890  0.19243  0.72283  1.0000
  H   H203      1.0  0.38922  0.16404  0.67583  1.0000
  S   S66       1.0  0.33749  0.11445  0.41587  1.0000
  H   H204      1.0  0.36547  0.16335  0.94112  1.0000
  H   H205      1.0  0.36608  0.14915  0.36061  1.0000
  H   H206      1.0  0.40195  0.09158  0.24799  1.0000
  Fe  Fe35      1.0  0.39715  0.19499  0.86744  1.0000
  C   C193      1.0  0.34659  0.12342  0.28999  1.0000
  C   C194      1.0  0.34407  0.22513  0.98803  1.0000
  S   S67       1.0  0.36832  0.13528  0.45052  1.0000
  S   S68       1.0  0.36511  0.01754  0.18790  1.0000
  C   C195      1.0  0.39296  0.20545  0.72805  1.0000
  H   H207      1.0  0.48217  0.23442  0.60303  1.0000
  S   S69       1.0  0.39185  0.08460  0.40148  1.0000
  C   C196      1.0  0.45962  0.15342  0.66095  1.0000
  C   C197      1.0  0.50983  0.19041  0.91760  1.0000
  N   N16       1.0  0.41939  0.14898  0.68009  1.0000
  C   C198      1.0  0.43116  0.14406  0.64258  1.0000
  C   C199      1.0  0.42740  0.15578  0.70850  1.0000
  C   C200      1.0  0.45141  0.14623  0.63239  1.0000
  C   C201      1.0  0.44761  0.15809  0.69940  1.0000
  H   H208      1.0  0.40873  0.05009  0.35783  1.0000
  H   H209      1.0  0.44155  0.15508  0.99761  1.0000
  Fe  Fe36      1.0  0.35435  0.16954  0.17385  1.0000
  C   C202      1.0  0.49402  0.21907  0.87173  1.0000
  C   C203      1.0  0.39065  0.20843  0.10467  1.0000
  C   C204      1.0  0.36737  0.08502  0.10234  1.0000
  H   H210      1.0  0.35769  0.08140  0.08383  1.0000
  C   C205      1.0  0.38791  0.07498  0.15817  1.0000
  C   C206      1.0  0.36211  0.19299  0.73542  1.0000
  C   C207      1.0  0.50202  0.21234  0.69219  1.0000
  C   C208      1.0  0.42788  0.15330  0.98824  1.0000
  C   C209      1.0  0.36694  0.11436  0.27835  1.0000
  H   H211      1.0  0.60085  0.22814  0.77041  1.0000
  C   C210      1.0  0.39239  0.15174  0.00468  1.0000
  H   H212      1.0  0.40953  0.15529  0.05041  1.0000
  C   C211      1.0  0.40993  0.15356  0.01773  1.0000
  S   S70       1.0  0.43561  0.17465  0.52355  1.0000
  C   C212      1.0  0.40676  0.20685  0.07029  1.0000
  Fe  Fe37      1.0  0.36712  0.10456  0.43947  1.0000
  S   S71       1.0  0.35379  0.17707  0.10378  1.0000
  N   N17       1.0  0.39284  0.14921  0.96371  1.0000
  H   H213      1.0  0.61430  0.17465  0.86973  1.0000
  C   C213      1.0  0.37297  0.16110  0.29412  1.0000
  C   C214      1.0  0.38481  0.03322  0.36907  1.0000
  C   C215      1.0  0.36615  0.17508  0.26024  1.0000
  H   H214      1.0  0.52334  0.18057  0.92723  1.0000
  H   H215      1.0  0.46581  0.22267  0.75345  1.0000
  H   H216      1.0  0.41539  0.18296  0.44123  1.0000
  H   H217      1.0  0.40136  0.09813  0.17019  1.0000
  H   H218      1.0  0.33400  0.20090  0.03395  1.0000
  H   H219      1.0  0.34123  0.22468  0.12622  1.0000
  Fe  Fe38      1.0  0.43165  0.20056  0.55875  1.0000
  C   C216      1.0  0.37592  0.20476  0.71181  1.0000
  C   C217      1.0  0.34827  0.18940  0.26792  1.0000
  H   H220      1.0  0.39468  0.12725  0.51314  1.0000
  S   S72       1.0  0.37828  0.17293  0.20769  1.0000
  C   C218      1.0  0.49067  0.18715  0.93893  1.0000
  C   C219      1.0  0.39580  0.19504  0.76845  1.0000
  H   H221      1.0  0.36973  0.16575  0.60848  1.0000
  H   H222      1.0  0.40878  0.19613  0.78097  1.0000
  H   H223      1.0  0.39326  0.02233  0.34868  1.0000
  S   S73       1.0  0.34910  0.04224  0.26926  1.0000
  Fe  Fe39      1.0  0.35183  0.12626  0.51621  1.0000
  C   C220      1.0  0.36288  0.06162  0.42100  1.0000
  Fe  Fe40      1.0  0.42584  0.20755  0.91062  1.0000
  C   C221      1.0  0.35602  0.22345  0.13632  1.0000
  S   S74       1.0  0.35301  0.01391  0.38016  1.0000
  H   H224      1.0  0.37736  0.13969  0.92286  1.0000
  H   H225      1.0  0.42099  0.19645  0.07400  1.0000
  S   S75       1.0  0.39459  0.20104  0.93397  1.0000
  H   H226      1.0  0.37313  0.05509  0.13774  1.0000
  H   H227      1.0  0.48948  0.17480  0.96491  1.0000
  H   H228      1.0  0.46036  0.14319  0.60173  1.0000
  S   S76       1.0  0.35771  0.13634  0.57335  1.0000
  S   S77       1.0  0.42932  0.19865  0.84623  1.0000
  C   C222      1.0  0.34763  0.18845  0.47806  1.0000
  H   H229      1.0  0.57787  0.22496  0.64598  1.0000
  H   H230      1.0  0.41057  0.14772  0.90165  1.0000
  S   S78       1.0  0.38388  0.22672  0.84342  1.0000
  H   H231      1.0  0.40303  0.08801  0.30449  1.0000
  C   C223      1.0  0.41034  0.14913  0.93446  1.0000
  H   H232      1.0  0.35479  0.21518  0.96848  1.0000
  H   H233      1.0  0.41797  0.16015  0.73773  1.0000
  C   C224      1.0  0.36508  0.03184  0.38993  1.0000
  C   C225      1.0  0.37594  0.07017  0.13314  1.0000
  H   H234      1.0  0.38691  0.15014  0.28845  1.0000
  C   C226      1.0  0.39189  0.09443  0.15134  1.0000
  C   C227      1.0  0.60893  0.21372  0.65526  1.0000
  H   H235      1.0  0.37752  0.12363  0.26024  1.0000
  S   S79       1.0  0.53585  0.20971  0.85756  1.0000
  C   C228      1.0  0.33969  0.09097  0.32498  1.0000
  C   C229      1.0  0.58974  0.20030  0.87155  1.0000
  C   C230      1.0  0.39508  0.08521  0.28036  1.0000
  C   C231      1.0  0.47479  0.21556  0.89261  1.0000
  C   C232      1.0  0.36488  0.20201  0.51998  1.0000
  C   C233      1.0  0.35426  0.04592  0.41622  1.0000
  H   H236      1.0  0.33891  0.04526  0.43156  1.0000
  H   H237      1.0  0.35416  0.07258  0.44070  1.0000
  S   S80       1.0  0.35375  0.09445  0.50719  1.0000
  Fe  Fe41      1.0  0.41566  0.23110  0.82698  1.0000
  C   C234      1.0  0.36117  0.16057  0.33504  1.0000
  S   S81       1.0  0.40619  0.22709  0.55265  1.0000
  H   H238      1.0  0.36491  0.20836  0.54809  1.0000
  H   H239      1.0  0.64932  0.18654  0.89880  1.0000
  S   S82       1.0  0.34528  0.99489  0.28091  1.0000
  H   H240      1.0  0.37840  0.15243  0.02748  1.0000
  C   C235      1.0  0.59171  0.22872  0.65049  1.0000
  C   C236      1.0  0.48914  0.21653  0.66210  1.0000
  C   C237      1.0  0.36524  0.18215  0.77560  1.0000
  H   H241      1.0  0.40257  0.19723  0.39820  1.0000
  Fe  Fe42      1.0  0.44673  0.21570  0.62596  1.0000
  C   C238      1.0  0.33294  0.11163  0.31364  1.0000
  C   C239      1.0  0.38282  0.10940  0.12157  1.0000
  H   H242      1.0  0.39762  0.06864  0.28105  1.0000
  H   H243      1.0  0.39264  0.19914  0.13510  1.0000
  H   H244      1.0  0.39634  0.20212  0.49519  1.0000
  H   H245      1.0  0.65629  0.20162  0.84829  1.0000
  C   C240      1.0  0.36008  0.08243  0.31245  1.0000
  Fe  Fe43      1.0  0.34340  0.14783  0.11200  1.0000
  C   C241      1.0  0.58425  0.22106  0.87150  1.0000
  H   H246      1.0  0.52656  0.22062  0.71207  1.0000
  C   C242      1.0  0.33227  0.21704  0.02511  1.0000
  C   C243      1.0  0.36561  0.18520  0.44861  1.0000
  C   C244      1.0  0.47062  0.23001  0.77628  1.0000
  C   C245      1.0  0.65216  0.21895  0.75718  1.0000
  S   S83       1.0  0.37145  0.21948  0.66313  1.0000
  H   H247      1.0  0.36520  0.06641  0.32135  1.0000
  H   H248      1.0  0.32893  0.22962  0.82321  1.0000
  H   H249      1.0  0.64957  0.17829  0.84873  1.0000
  C   C246      1.0  0.62654  0.21886  0.66101  1.0000
  H   H250      1.0  0.35774  0.21010  0.16161  1.0000
  S   S84       1.0  0.35513  0.12445  0.06887  1.0000
  N   N18       1.0  0.37345  0.09412  0.28981  1.0000
  N   N19       1.0  0.62470  0.20175  0.86722  1.0000
  H   H251      1.0  0.34320  0.20058  0.24215  1.0000
  Fe  Fe44      1.0  0.33732  0.14420  0.43348  1.0000
  C   C247      1.0  0.63263  0.21533  0.76140  1.0000
  Fe  Fe45      1.0  0.40157  0.22337  0.62376  1.0000
  C   C248      1.0  0.64595  0.19148  0.86593  1.0000
  S   S85       1.0  0.45533  0.21853  0.55499  1.0000
  N   N20       1.0  0.37268  0.22150  0.09997  1.0000
  C   C249      1.0  0.40447  0.21893  0.03119  1.0000
  H   H252      1.0  0.57816  0.19170  0.87299  1.0000
  H   H253      1.0  0.41687  0.21796  0.00433  1.0000
  H   H254      1.0  0.46203  0.22513  0.80801  1.0000
  C   C250      1.0  0.49197  0.23134  0.62653  1.0000
  H   H255      1.0  0.56846  0.22852  0.87290  1.0000
  Fe  Fe46      1.0  0.38436  0.23348  0.90726  1.0000
  C   C251      1.0  0.61942  0.22210  0.86771  1.0000
  H   H256      1.0  0.34771  0.23453  0.74944  1.0000
  H   H257      1.0  0.49530  0.23154  0.84628  1.0000
  C   C252      1.0  0.38622  0.23241  0.02691  1.0000
  C   C253      1.0  0.37041  0.23355  0.06186  1.0000
  C   C254      1.0  0.61582  0.23119  0.76579  1.0000
  H   H258      1.0  0.63096  0.23079  0.86567  1.0000
  S   S86       1.0  0.56281  0.23528  0.75337  1.0000
  C   C255      1.0  0.59914  0.23209  0.86951  1.0000
  S   S87       1.0  0.32736  0.17331  0.39249  1.0000
  H   H259      1.0  0.33101  0.41242  0.70444  1.0000
  H   H260      1.0  0.38689  0.41688  0.73721  1.0000
  H   H261      1.0  0.47593  0.27927  0.59278  1.0000
  C   C256      1.0  0.35799  0.38224  0.77754  1.0000
  C   C257      1.0  0.40128  0.30552  0.71573  1.0000
  H   H262      1.0  0.46249  0.32060  0.43745  1.0000
  S   S88       1.0  0.43313  0.27136  0.50408  1.0000
  N   N21       1.0  0.42397  0.48319  0.57647  1.0000
  C   C258      1.0  0.34761  0.27068  0.82645  1.0000
  Fe  Fe47      1.0  0.52285  0.28205  0.78328  1.0000
  S   S89       1.0  0.51410  0.25506  0.76914  1.0000
  S   S90       1.0  0.49899  0.30941  0.79576  1.0000
  N   N22       1.0  0.60947  0.25354  0.65869  1.0000
  C   C259      1.0  0.63810  0.25430  0.76080  1.0000
  Fe  Fe48      1.0  0.56771  0.26362  0.77000  1.0000
  H   H263      1.0  0.46374  0.43688  0.54295  1.0000
  C   C260      1.0  0.41183  0.27329  0.75820  1.0000
  H   H264      1.0  0.38431  0.24196  0.99670  1.0000
  H   H265      1.0  0.46226  0.25718  0.82912  1.0000
  C   C261      1.0  0.34286  0.40684  0.72369  1.0000
  S   S91       1.0  0.54772  0.28404  0.72682  1.0000
  C   C262      1.0  0.34235  0.38943  0.75367  1.0000
  H   H266      1.0  0.53211  0.37123  0.61310  1.0000
  C   C263      1.0  0.33679  0.24210  0.81244  1.0000
  C   C264      1.0  0.46219  0.31953  0.47132  1.0000
  S   S92       1.0  0.54360  0.26451  0.82808  1.0000
  H   H267      1.0  0.40177  0.46707  0.57126  1.0000
  H   H268      1.0  0.45850  0.31484  0.59283  1.0000
  S   S93       1.0  0.40075  0.43078  0.64868  1.0000
  H   H269      1.0  0.36265  0.25790  0.69132  1.0000
  H   H270      1.0  0.32920  0.25278  0.87327  1.0000
  S   S94       1.0  0.42217  0.24757  0.76105  1.0000
  Fe  Fe49      1.0  0.40508  0.39833  0.64153  1.0000
  S   S95       1.0  0.42473  0.38667  0.58380  1.0000
  Fe  Fe50      1.0  0.39923  0.35694  0.68690  1.0000
  S   S96       1.0  0.41914  0.34166  0.63391  1.0000
  Fe  Fe51      1.0  0.43941  0.36290  0.63111  1.0000
  S   S97       1.0  0.47272  0.35054  0.62015  1.0000
  Fe  Fe52      1.0  0.40240  0.36663  0.59186  1.0000
  S   S98       1.0  0.39364  0.36047  0.53386  1.0000
  S   S99       1.0  0.42131  0.37576  0.68875  1.0000
  S   S100      1.0  0.38091  0.38080  0.64509  1.0000
  H   H271      1.0  0.44579  0.46861  0.68272  1.0000
  C   C265      1.0  0.46849  0.27918  0.56560  1.0000
  C   C266      1.0  0.46035  0.42196  0.65388  1.0000
  C   C267      1.0  0.44155  0.41931  0.64853  1.0000
  H   H272      1.0  0.47361  0.41035  0.64750  1.0000
  H   H273      1.0  0.44073  0.40584  0.63746  1.0000
  C   C268      1.0  0.39532  0.31463  0.75248  1.0000
  N   N23       1.0  0.37397  0.39180  0.77089  1.0000
  H   H274      1.0  0.34828  0.28047  0.84839  1.0000
  C   C269      1.0  0.40987  0.28495  0.71849  1.0000
  C   C270      1.0  0.49061  0.32030  0.74773  1.0000
  C   C271      1.0  0.47723  0.33895  0.74481  1.0000
  C   C272      1.0  0.47167  0.34830  0.70550  1.0000
  C   C273      1.0  0.47942  0.33895  0.66928  1.0000
  C   C274      1.0  0.49263  0.32024  0.67228  1.0000
  C   C275      1.0  0.49801  0.31082  0.71159  1.0000
  H   H275      1.0  0.47154  0.34636  0.77267  1.0000
  H   H276      1.0  0.46191  0.36303  0.70302  1.0000
  H   H277      1.0  0.49849  0.31285  0.64440  1.0000
  H   H278      1.0  0.50770  0.29609  0.71382  1.0000
  H   H279      1.0  0.59507  0.24833  0.86840  1.0000
  C   C276      1.0  0.45612  0.29364  0.74388  1.0000
  C   C277      1.0  0.45690  0.28489  0.78611  1.0000
  H   H280      1.0  0.35627  0.24411  0.05831  1.0000
  H   H281      1.0  0.41238  0.46361  0.67468  1.0000
  H   H282      1.0  0.47827  0.26757  0.54675  1.0000
  H   H283      1.0  0.57876  0.26023  0.64857  1.0000
  H   H284      1.0  0.47039  0.28725  0.48121  1.0000
  C   C278      1.0  0.35815  0.27302  0.78459  1.0000
  H   H285      1.0  0.35552  0.23706  0.15024  1.0000
  C   C279      1.0  0.44470  0.45482  0.67335  1.0000
  C   C280      1.0  0.46670  0.30068  0.49629  1.0000
  H   H286      1.0  0.39779  0.32297  0.59356  1.0000
  H   H287      1.0  0.50481  0.37419  0.61908  1.0000
  S   S101      1.0  0.59781  0.27087  0.76986  1.0000
  H   H288      1.0  0.39392  0.36704  0.80012  1.0000
  C   C281      1.0  0.40525  0.28223  0.79515  1.0000
  C   C282      1.0  0.42574  0.45199  0.66878  1.0000
  C   C283      1.0  0.41927  0.29525  0.51370  1.0000
  C   C284      1.0  0.41700  0.31060  0.47892  1.0000
  C   C285      1.0  0.40828  0.33045  0.48541  1.0000
  C   C286      1.0  0.40205  0.33511  0.52675  1.0000
  C   C287      1.0  0.40351  0.31962  0.56163  1.0000
  C   C288      1.0  0.41212  0.29965  0.55514  1.0000
  H   H289      1.0  0.42240  0.30720  0.44684  1.0000
  H   H290      1.0  0.40694  0.34232  0.45838  1.0000
  H   H291      1.0  0.35765  0.36852  0.80037  1.0000
  H   H292      1.0  0.41359  0.28782  0.58212  1.0000
  H   H293      1.0  0.64030  0.26937  0.76046  1.0000
  H   H294      1.0  0.42694  0.43767  0.54858  1.0000
  C   C289      1.0  0.44417  0.48294  0.57311  1.0000
  C   C290      1.0  0.60976  0.27460  0.65985  1.0000
  S   S102      1.0  0.35830  0.25639  0.93365  1.0000
  C   C291      1.0  0.33688  0.25510  0.84042  1.0000
  N   N24       1.0  0.35801  0.26020  0.75740  1.0000
  H   H295      1.0  0.46941  0.25108  0.69869  1.0000
  C   C292      1.0  0.50730  0.39209  0.72819  1.0000
  C   C293      1.0  0.51840  0.35648  0.75040  1.0000
  C   C294      1.0  0.51137  0.37594  0.76049  1.0000
  H   H296      1.0  0.50189  0.40737  0.73540  1.0000
  H   H297      1.0  0.52141  0.34372  0.77529  1.0000
  H   H298      1.0  0.50905  0.37845  0.79328  1.0000
  H   H299      1.0  0.50705  0.40116  0.66131  1.0000
  C   C295      1.0  0.46110  0.28145  0.71211  1.0000
  H   H300      1.0  0.40656  0.27331  0.82590  1.0000
  N   N25       1.0  0.46604  0.25200  0.76501  1.0000
  C   C296      1.0  0.51852  0.36595  0.63272  1.0000
  H   H301      1.0  0.39227  0.30987  0.82089  1.0000
  S   S103      1.0  0.38576  0.34059  0.74900  1.0000
  H   H302      1.0  0.39875  0.31415  0.68528  1.0000
  H   H303      1.0  0.45043  0.34842  0.55002  1.0000
  C   C297      1.0  0.45974  0.31601  0.55863  1.0000
  H   H304      1.0  0.45362  0.27460  0.57792  1.0000
  H   H305      1.0  0.45190  0.35147  0.47212  1.0000
  N   N26       1.0  0.46536  0.29911  0.53940  1.0000
  H   H306      1.0  0.64026  0.24279  0.66752  1.0000
  H   H307      1.0  0.46068  0.28814  0.67922  1.0000
  H   H308      1.0  0.59496  0.28224  0.67641  1.0000
  H   H309      1.0  0.52610  0.33818  0.70076  1.0000
  H   H310      1.0  0.45185  0.30987  0.73575  1.0000
  H   H311      1.0  0.51991  0.34977  0.63062  1.0000
  C   C298      1.0  0.52095  0.35342  0.70809  1.0000
  H   H312      1.0  0.37242  0.27774  0.70285  1.0000
  S   S104      1.0  0.48592  0.44289  0.67159  1.0000
  C   C299      1.0  0.42417  0.43420  0.65631  1.0000
  C   C300      1.0  0.51007  0.38848  0.68624  1.0000
  N   N27       1.0  0.51635  0.36928  0.67683  1.0000
  C   C301      1.0  0.46189  0.26390  0.79620  1.0000
  Fe  Fe53      1.0  0.48676  0.47549  0.66888  1.0000
  H   H313      1.0  0.38528  0.25187  0.71495  1.0000
  H   H314      1.0  0.41462  0.27798  0.68991  1.0000
  S   S105      1.0  0.53763  0.25347  0.64928  1.0000
  C   C302      1.0  0.45878  0.46636  0.56079  1.0000
  C   C303      1.0  0.37017  0.26206  0.71455  1.0000
  C   C304      1.0  0.46202  0.43974  0.66620  1.0000
  C   C305      1.0  0.45619  0.33681  0.49076  1.0000
  C   C306      1.0  0.39032  0.38381  0.79591  1.0000
  H   H315      1.0  0.61307  0.28269  0.62697  1.0000
  C   C307      1.0  0.39708  0.30293  0.79229  1.0000
  C   C308      1.0  0.45260  0.45006  0.55143  1.0000
  C   C309      1.0  0.41777  0.46729  0.56723  1.0000
  C   C310      1.0  0.43198  0.45055  0.55435  1.0000
  C   C311      1.0  0.50747  0.24219  0.62163  1.0000
  C   C312      1.0  0.46619  0.26053  0.72328  1.0000
  C   C313      1.0  0.45515  0.33509  0.53460  1.0000
  C   C314      1.0  0.61853  0.25070  0.76535  1.0000
  C   C315      1.0  0.37436  0.40912  0.74223  1.0000
  H   H316      1.0  0.36665  0.28499  0.77415  1.0000
  H   H317      1.0  0.50974  0.25361  0.59418  1.0000
  C   C316      1.0  0.35885  0.41687  0.71815  1.0000
  Fe  Fe54      1.0  0.54044  0.25576  0.71553  1.0000
  S   S106      1.0  0.41549  0.24057  0.88941  1.0000
  H   H318      1.0  0.45366  0.29431  0.81082  1.0000
  S   S107      1.0  0.51262  0.48542  0.68525  1.0000
  C   C317      1.0  0.34756  0.24486  0.77083  1.0000
  H   H319      1.0  0.38572  0.38876  0.82769  1.0000
  Fe  Fe55      1.0  0.42917  0.24497  0.55525  1.0000
  H   H320      1.0  0.33015  0.38132  0.75794  1.0000
  H   H321      1.0  0.47475  0.46598  0.55954  1.0000
  C   C318      1.0  0.59227  0.24869  0.65212  1.0000
  C   C319      1.0  0.34188  0.24602  0.97653  1.0000
  H   H322      1.0  0.40455  0.38892  0.77954  1.0000
  H   H323      1.0  0.35953  0.43034  0.69466  1.0000
  C   C320      1.0  0.62659  0.23900  0.66232  1.0000
  Fe  Fe56      1.0  0.53721  0.23742  0.80883  1.0000
  S   S108      1.0  0.42234  0.24377  0.62657  1.0000
  H   H324      1.0  0.62135  0.27569  0.67819  1.0000
  C   C321      1.0  0.65491  0.23842  0.75676  1.0000
  H   H325      1.0  0.55115  0.48550  0.70225  1.0000
  H   H326      1.0  0.58143  0.48535  0.64616  1.0000
  C   C322      1.0  0.51968  0.23861  0.65291  1.0000
  C   C323      1.0  0.32717  0.25882  0.00093  1.0000
  C   C324      1.0  0.38812  0.62929  0.75168  1.0000
  Fe  Fe57      1.0  0.48859  0.50915  0.71427  1.0000
  H   H327      1.0  0.63120  0.60633  0.59589  1.0000
  S   S109      1.0  0.49014  0.51725  0.77666  1.0000
  H   H328      1.0  0.65196  0.54561  0.72437  1.0000
  C   C325      1.0  0.63940  0.56998  0.67888  1.0000
  H   H329      1.0  0.54479  0.61355  0.67806  1.0000
  Fe  Fe58      1.0  0.46508  0.51807  0.64202  1.0000
  S   S110      1.0  0.43656  0.53208  0.61537  1.0000
  C   C326      1.0  0.39095  0.73217  0.19479  1.0000
  S   S111      1.0  0.48886  0.53233  0.65531  1.0000
  S   S112      1.0  0.62209  0.58249  0.80866  1.0000
  Fe  Fe59      1.0  0.58122  0.56713  0.71346  1.0000
  S   S113      1.0  0.58409  0.59727  0.72505  1.0000
  S   S114      1.0  0.59396  0.55677  0.65021  1.0000
  Fe  Fe60      1.0  0.56259  0.55452  0.80457  1.0000
  S   S115      1.0  0.56355  0.58335  0.82529  1.0000
  S   S116      1.0  0.55060  0.52929  0.84926  1.0000
  Fe  Fe61      1.0  0.55292  0.59800  0.76381  1.0000
  H   H330      1.0  0.34797  0.71988  0.55496  1.0000
  Fe  Fe62      1.0  0.59450  0.58014  0.78521  1.0000
  S   S117      1.0  0.54905  0.56938  0.74672  1.0000
  S   S118      1.0  0.59457  0.54989  0.77000  1.0000
  Fe  Fe63      1.0  0.42402  0.67698  0.55832  1.0000
  S   S119      1.0  0.44669  0.68303  0.59224  1.0000
  S   S120      1.0  0.41851  0.69414  0.49391  1.0000
  Fe  Fe64      1.0  0.41389  0.64206  0.62571  1.0000
  S   S121      1.0  0.43535  0.64477  0.66621  1.0000
  S   S122      1.0  0.39233  0.62084  0.64242  1.0000
  Fe  Fe65      1.0  0.42381  0.67812  0.65133  1.0000
  S   S123      1.0  0.41581  0.70097  0.69595  1.0000
  Fe  Fe66      1.0  0.45666  0.64950  0.60422  1.0000
  S   S124      1.0  0.48992  0.63600  0.59473  1.0000
  S   S125      1.0  0.40013  0.67491  0.61663  1.0000
  S   S126      1.0  0.43613  0.64364  0.56465  1.0000
  Fe  Fe67      1.0  0.44475  0.64289  0.88442  1.0000
  H   H331      1.0  0.40434  0.72238  0.18068  1.0000
  H   H332      1.0  0.49696  0.68759  0.61682  1.0000
  Fe  Fe68      1.0  0.43311  0.61089  0.84771  1.0000
  S   S127      1.0  0.42439  0.59351  0.91179  1.0000
  S   S128      1.0  0.42918  0.60002  0.79023  1.0000
  Fe  Fe69      1.0  0.41004  0.62352  0.93169  1.0000
  Fe  Fe70      1.0  0.45315  0.59914  0.92496  1.0000
  S   S129      1.0  0.47170  0.57234  0.96063  1.0000
  S   S130      1.0  0.41601  0.64030  0.86585  1.0000
  S   S131      1.0  0.46278  0.61504  0.85892  1.0000
  S   S132      1.0  0.33642  0.70684  0.08326  1.0000
  C   C327      1.0  0.65523  0.55697  0.69717  1.0000
  C   C328      1.0  0.34014  0.70845  0.24995  1.0000
  C   C329      1.0  0.38088  0.66962  0.94073  1.0000
  C   C330      1.0  0.34408  0.68442  0.99046  1.0000
  C   C331      1.0  0.34328  0.69478  0.22142  1.0000
  H   H333      1.0  0.41380  0.55096  0.90615  1.0000
  C   C332      1.0  0.35150  0.66356  0.99321  1.0000
  H   H334      1.0  0.39549  0.66422  0.92294  1.0000
  H   H335      1.0  0.61407  0.59128  0.62820  1.0000
  C   C333      1.0  0.42677  0.69372  0.74201  1.0000
  C   C334      1.0  0.43694  0.67392  0.75244  1.0000
  C   C335      1.0  0.44484  0.66807  0.79027  1.0000
  C   C336      1.0  0.44280  0.68205  0.81763  1.0000
  H   H336      1.0  0.34300  0.65320  0.01471  1.0000
  C   C337      1.0  0.42489  0.70781  0.76914  1.0000
  H   H337      1.0  0.43852  0.66297  0.73189  1.0000
  H   H338      1.0  0.45250  0.65265  0.79829  1.0000
  N   N28       1.0  0.32716  0.68953  0.21079  1.0000
  C   C338      1.0  0.63311  0.60942  0.73818  1.0000
  C   C339      1.0  0.51710  0.62757  0.71498  1.0000
  C   C340      1.0  0.52905  0.62075  0.67814  1.0000
  C   C341      1.0  0.52068  0.62356  0.64105  1.0000
  C   C342      1.0  0.50033  0.63295  0.64096  1.0000
  C   C343      1.0  0.48843  0.63963  0.67794  1.0000
  C   C344      1.0  0.49673  0.63678  0.71501  1.0000
  C   C345      1.0  0.36999  0.65614  0.96846  1.0000
  H   H339      1.0  0.52993  0.61837  0.61246  1.0000
  H   H340      1.0  0.47294  0.64733  0.67795  1.0000
  H   H341      1.0  0.48738  0.64183  0.74363  1.0000
  C   C346      1.0  0.52857  0.54088  0.88017  1.0000
  C   C347      1.0  0.51762  0.55933  0.86325  1.0000
  C   C348      1.0  0.50023  0.56901  0.88788  1.0000
  C   C349      1.0  0.49386  0.56056  0.92979  1.0000
  C   C350      1.0  0.50500  0.54215  0.94698  1.0000
  C   C351      1.0  0.52217  0.53214  0.92196  1.0000
  H   H342      1.0  0.52250  0.56625  0.83111  1.0000
  H   H343      1.0  0.49210  0.58321  0.87447  1.0000
  H   H344      1.0  0.50035  0.53566  0.97967  1.0000
  H   H345      1.0  0.53084  0.51802  0.93536  1.0000
  H   H346      1.0  0.52924  0.67108  0.64286  1.0000
  C   C352      1.0  0.42453  0.55655  0.62502  1.0000
  C   C353      1.0  0.40514  0.56426  0.61489  1.0000
  C   C354      1.0  0.39518  0.58385  0.62127  1.0000
  C   C355      1.0  0.40475  0.59601  0.63683  1.0000
  C   C356      1.0  0.42408  0.58834  0.64733  1.0000
  C   C357      1.0  0.43393  0.56848  0.64182  1.0000
  H   H347      1.0  0.39779  0.55507  0.60210  1.0000
  H   H348      1.0  0.38019  0.58970  0.61338  1.0000
  H   H349      1.0  0.43119  0.59760  0.66050  1.0000
  H   H350      1.0  0.44876  0.56245  0.65032  1.0000
  C   C358      1.0  0.47253  0.53977  0.78178  1.0000
  C   C359      1.0  0.47255  0.55091  0.81341  1.0000
  C   C360      1.0  0.45864  0.56907  0.81704  1.0000
  C   C361      1.0  0.44512  0.57642  0.78828  1.0000
  C   C362      1.0  0.44492  0.56519  0.75698  1.0000
  C   C363      1.0  0.45852  0.54678  0.75395  1.0000
  H   H351      1.0  0.48353  0.54580  0.83457  1.0000
  H   H352      1.0  0.45882  0.57756  0.84152  1.0000
  H   H353      1.0  0.43429  0.57073  0.73505  1.0000
  H   H354      1.0  0.45808  0.53808  0.73002  1.0000
  C   C364      1.0  0.55379  0.52584  0.59968  1.0000
  C   C365      1.0  0.54793  0.53105  0.64066  1.0000
  C   C366      1.0  0.56017  0.54061  0.65637  1.0000
  C   C367      1.0  0.57807  0.54530  0.63095  1.0000
  C   C368      1.0  0.58382  0.54015  0.58994  1.0000
  C   C369      1.0  0.57173  0.53041  0.57437  1.0000
  H   H355      1.0  0.53419  0.52734  0.66054  1.0000
  H   H356      1.0  0.55602  0.54375  0.68853  1.0000
  H   H357      1.0  0.59769  0.54362  0.57016  1.0000
  S   S133      1.0  0.52746  0.62489  0.76101  1.0000
  H   H358      1.0  0.48046  0.59324  0.74801  1.0000
  H   H359      1.0  0.36130  0.65052  0.88214  1.0000
  H   H360      1.0  0.42613  0.52778  0.85204  1.0000
  H   H361      1.0  0.48943  0.49107  0.88324  1.0000
  H   H362      1.0  0.35296  0.71266  0.25814  1.0000
  C   C370      1.0  0.49489  0.58443  0.73264  1.0000
  C   C371      1.0  0.51674  0.67482  0.70830  1.0000
  H   H363      1.0  0.61713  0.61564  0.73900  1.0000
  N   N29       1.0  0.49982  0.68144  0.73647  1.0000
  H   H364      1.0  0.37732  0.63288  0.72893  1.0000
  H   H365      1.0  0.53293  0.49245  0.76935  1.0000
  S   S134      1.0  0.43780  0.62767  0.95178  1.0000
  C   C372      1.0  0.49585  0.58334  0.60202  1.0000
  C   C373      1.0  0.41648  0.70117  0.95733  1.0000
  N   N30       1.0  0.37912  0.66048  0.50371  1.0000
  C   C374      1.0  0.36240  0.67255  0.48911  1.0000
  C   C375      1.0  0.39327  0.70609  0.49138  1.0000
  C   C376      1.0  0.48789  0.50507  0.89674  1.0000
  C   C377      1.0  0.37312  0.69036  0.93674  1.0000
  H   H366      1.0  0.36767  0.68509  0.85445  1.0000
  C   C378      1.0  0.38721  0.71288  0.45161  1.0000
  C   C379      1.0  0.40910  0.50038  0.59159  1.0000
  C   C380      1.0  0.40970  0.67278  0.01054  1.0000
  Fe  Fe71      1.0  0.33218  0.73018  0.02591  1.0000
  H   H367      1.0  0.41142  0.65294  0.48948  1.0000
  H   H368      1.0  0.43366  0.67085  0.95589  1.0000
  H   H369      1.0  0.53056  0.66662  0.71973  1.0000
  H   H370      1.0  0.43134  0.71282  0.82811  1.0000
  C   C381      1.0  0.39370  0.68558  0.03204  1.0000
  C   C382      1.0  0.47756  0.59090  0.67089  1.0000
  H   H371      1.0  0.46344  0.59671  0.69072  1.0000
  H   H372      1.0  0.46409  0.59652  0.61411  1.0000
  H   H373      1.0  0.50723  0.59139  0.73653  1.0000
  H   H374      1.0  0.36234  0.72725  0.41834  1.0000
  H   H375      1.0  0.57631  0.52638  0.54266  1.0000
  H   H376      1.0  0.62394  0.56830  0.69183  1.0000
  H   H377      1.0  0.40374  0.62892  0.73342  1.0000
  C   C383      1.0  0.54359  0.50121  0.77479  1.0000
  H   H378      1.0  0.46655  0.70045  0.66830  1.0000
  C   C384      1.0  0.36701  0.72223  0.44910  1.0000
  C   C385      1.0  0.37918  0.70905  0.52849  1.0000
  C   C386      1.0  0.36024  0.65716  0.57497  1.0000
  C   C387      1.0  0.51285  0.57703  0.66247  1.0000
  H   H379      1.0  0.37121  0.62464  0.83430  1.0000
  C   C388      1.0  0.37385  0.63974  0.82187  1.0000
  C   C389      1.0  0.43306  0.70201  0.80685  1.0000
  H   H380      1.0  0.38791  0.61381  0.76919  1.0000
  C   C390      1.0  0.51607  0.67723  0.66476  1.0000
  C   C391      1.0  0.37184  0.67369  0.83364  1.0000
  H   H381      1.0  0.49621  0.58332  0.56848  1.0000
  H   H382      1.0  0.33123  0.65913  0.20192  1.0000
  H   H383      1.0  0.35871  0.68861  0.20746  1.0000
  S   S135      1.0  0.48748  0.49548  0.60588  1.0000
  H   H384      1.0  0.52773  0.57080  0.59954  1.0000
  C   C392      1.0  0.39797  0.65534  0.47374  1.0000
  N   N31       1.0  0.64331  0.58496  0.64585  1.0000
  C   C393      1.0  0.38671  0.66329  0.76522  1.0000
  N   N32       1.0  0.49506  0.58431  0.68752  1.0000
  H   H385      1.0  0.39814  0.64143  0.46118  1.0000
  H   H386      1.0  0.39404  0.66694  0.73251  1.0000
  C   C394      1.0  0.48087  0.69353  0.67902  1.0000
  N   N33       1.0  0.46688  0.51634  0.90166  1.0000
  C   C395      1.0  0.46013  0.52893  0.93165  1.0000
  C   C396      1.0  0.45466  0.51547  0.87405  1.0000
  C   C397      1.0  0.44087  0.54130  0.93417  1.0000
  C   C398      1.0  0.43535  0.52781  0.87533  1.0000
  C   C399      1.0  0.42849  0.54088  0.90550  1.0000
  C   C400      1.0  0.34427  0.67751  0.51730  1.0000
  H   H387      1.0  0.46974  0.52982  0.95342  1.0000
  H   H388      1.0  0.42517  0.70693  0.92739  1.0000
  H   H389      1.0  0.43594  0.55159  0.95745  1.0000
  C   C401      1.0  0.38123  0.67822  0.79151  1.0000
  C   C402      1.0  0.37810  0.65247  0.54588  1.0000
  H   H390      1.0  0.60749  0.51414  0.72127  1.0000
  C   C403      1.0  0.33076  0.67434  0.18268  1.0000
  C   C404      1.0  0.35892  0.71798  0.52607  1.0000
  C   C405      1.0  0.50003  0.67657  0.78241  1.0000
  H   H391      1.0  0.46019  0.50593  0.84943  1.0000
  H   H392      1.0  0.48899  0.68788  0.80020  1.0000
  H   H393      1.0  0.49589  0.66158  0.79472  1.0000
  H   H394      1.0  0.51530  0.67589  0.78956  1.0000
  C   C406      1.0  0.59674  0.49929  0.68049  1.0000
  C   C407      1.0  0.36812  0.65433  0.84905  1.0000
  H   H395      1.0  0.38435  0.67963  0.06073  1.0000
  S   S136      1.0  0.37934  0.63010  0.97203  1.0000
  H   H396      1.0  0.41285  0.65674  0.02230  1.0000
  C   C408      1.0  0.51354  0.57642  0.61939  1.0000
  S   S137      1.0  0.37192  0.72213  0.13874  1.0000
  H   H397      1.0  0.38160  0.70067  0.91507  1.0000
  H   H398      1.0  0.36316  0.67893  0.45571  1.0000
  H   H399      1.0  0.38438  0.69317  0.77924  1.0000
  C   C409      1.0  0.49793  0.68644  0.65019  1.0000
  C   C410      1.0  0.48217  0.69101  0.72221  1.0000
  H   H400      1.0  0.43837  0.73307  0.37420  1.0000
  S   S138      1.0  0.34678  0.72380  0.96052  1.0000
  C   C411      1.0  0.64755  0.61817  0.70755  1.0000
  H   H401      1.0  0.52668  0.57198  0.67562  1.0000
  N   N34       1.0  0.56223  0.49966  0.74297  1.0000
  Fe  Fe72      1.0  0.51109  0.50762  0.62533  1.0000
  N   N35       1.0  0.40084  0.71365  0.97875  1.0000
  C   C412      1.0  0.63948  0.59310  0.76861  1.0000
  C   C413      1.0  0.35492  0.69778  0.96215  1.0000
  H   H402      1.0  0.32945  0.67399  0.58285  1.0000
  H   H403      1.0  0.38383  0.70477  0.55910  1.0000
  S   S139      1.0  0.45139  0.67396  0.86621  1.0000
  S   S140      1.0  0.46270  0.49717  0.70412  1.0000
  C   C414      1.0  0.47774  0.59063  0.62781  1.0000
  H   H404      1.0  0.49730  0.56877  0.74966  1.0000
  H   H405      1.0  0.46884  0.69639  0.74439  1.0000
  N   N36       1.0  0.38301  0.64435  0.78053  1.0000
  H   H406      1.0  0.39973  0.66786  0.44687  1.0000
  S   S141      1.0  0.53933  0.51300  0.58011  1.0000
  C   C415      1.0  0.42129  0.68064  0.97316  1.0000
  H   H407      1.0  0.39119  0.64251  0.55734  1.0000
  H   H408      1.0  0.41697  0.72316  0.76116  1.0000
  C   C416      1.0  0.34329  0.66990  0.56055  1.0000
  H   H409      1.0  0.39807  0.71077  0.42270  1.0000
  C   C417      1.0  0.38949  0.70611  0.01566  1.0000
  H   H410      1.0  0.64272  0.63092  0.68424  1.0000
  H   H411      1.0  0.37682  0.71589  0.03215  1.0000
  H   H412      1.0  0.41212  0.51467  0.57128  1.0000
  H   H413      1.0  0.57675  0.51399  0.77695  1.0000
  H   H414      1.0  0.32984  0.69012  0.00979  1.0000
  C   C418      1.0  0.57790  0.50742  0.74855  1.0000
  H   H415      1.0  0.54717  0.49561  0.80737  1.0000
  H   H416      1.0  0.35967  0.65102  0.60850  1.0000
  H   H417      1.0  0.65437  0.57612  0.87239  1.0000
  H   H418      1.0  0.53561  0.51724  0.77371  1.0000
  C   C419      1.0  0.35278  0.72436  0.48642  1.0000
  H   H419      1.0  0.49792  0.51456  0.87476  1.0000
  C   C420      1.0  0.59537  0.50738  0.71741  1.0000
  C   C421      1.0  0.62637  0.59915  0.62900  1.0000
  H   H420      1.0  0.62016  0.61108  0.64953  1.0000
  H   H421      1.0  0.33130  0.68777  0.50583  1.0000
  H   H422      1.0  0.41037  0.50122  0.62478  1.0000
  H   H423      1.0  0.34526  0.67448  0.15992  1.0000
  C   C422      1.0  0.56360  0.49139  0.70714  1.0000
  Fe  Fe73      1.0  0.34375  0.73136  0.10980  1.0000
  H   H424      1.0  0.64102  0.61154  0.84367  1.0000
  H   H425      1.0  0.60983  0.49993  0.65534  1.0000
  H   H426      1.0  0.49332  0.50081  0.92780  1.0000
  C   C423      1.0  0.65632  0.60722  0.85082  1.0000
  H   H427      1.0  0.39329  0.49929  0.59123  1.0000
  H   H428      1.0  0.43168  0.73186  0.45240  1.0000
  H   H429      1.0  0.44900  0.49548  0.58083  1.0000
  C   C424      1.0  0.58083  0.49109  0.67537  1.0000
  S   S142      1.0  0.32711  0.73374  0.48410  1.0000
  C   C425      1.0  0.37285  0.73545  0.17898  1.0000
  C   C426      1.0  0.39541  0.73492  0.96044  1.0000
  C   C427      1.0  0.66013  0.58539  0.76808  1.0000
  C   C428      1.0  0.35558  0.74818  0.19728  1.0000
  H   H430      1.0  0.33851  0.98182  0.11319  1.0000
  C   C429      1.0  0.36532  0.95629  0.19075  1.0000
  C   C430      1.0  0.37737  0.93917  0.07512  1.0000
  C   C431      1.0  0.34173  0.93720  0.18019  1.0000
  C   C432      1.0  0.32952  0.81484  0.12037  1.0000
  S   S143      1.0  0.32984  0.85051  0.14476  1.0000
  H   H431      1.0  0.40919  0.74123  0.94628  1.0000
  C   C433      1.0  0.35651  0.89197  0.10819  1.0000
  C   C434      1.0  0.39979  0.75260  0.49934  1.0000
  C   C435      1.0  0.35697  0.93896  0.20119  1.0000
  S   S144      1.0  0.34188  0.75393  0.05040  1.0000
  C   C436      1.0  0.37441  0.75354  0.24836  1.0000
  H   H432      1.0  0.37691  0.77536  0.44437  1.0000
  H   H433      1.0  0.38635  0.74417  0.98500  1.0000
  H   H434      1.0  0.36551  0.98475  0.14978  1.0000
  S   S145      1.0  0.33098  0.74125  0.35911  1.0000
  C   C437      1.0  0.34350  0.96989  0.13798  1.0000
  H   H435      1.0  0.41389  0.75584  0.33051  1.0000
  H   H436      1.0  0.40371  0.76588  0.50785  1.0000
  H   H437      1.0  0.36208  0.92706  0.22589  1.0000
  Fe  Fe74      1.0  0.34505  0.76836  0.33500  1.0000
  S   S146      1.0  0.37548  0.76371  0.29323  1.0000
  N   N37       1.0  0.40385  0.75344  0.45293  1.0000
  S   S147      1.0  0.33972  0.77849  0.39873  1.0000
  H   H438      1.0  0.38902  0.93666  0.04633  1.0000
  H   H439      1.0  0.34350  0.80899  0.13281  1.0000
  C   C438      1.0  0.35863  0.97167  0.15901  1.0000
  H   H440      1.0  0.34279  0.76625  0.24741  1.0000
  C   C439      1.0  0.35999  0.91084  0.08703  1.0000
  C   C440      1.0  0.35625  0.75688  0.23258  1.0000
  H   H441      1.0  0.36329  0.94895  0.06530  1.0000
  H   H442      1.0  0.38283  0.94759  0.09494  1.0000
  H   H443      1.0  0.34616  0.88476  0.09837  1.0000
  S   S148      1.0  0.38363  0.95905  0.21806  1.0000
  C   C441      1.0  0.36641  0.88243  0.14219  1.0000
  H   H444      1.0  0.38353  0.77741  0.36581  1.0000
  C   C442      1.0  0.42110  0.74199  0.43356  1.0000
  H   H445      1.0  0.32744  0.78620  0.10647  1.0000
  H   H446      1.0  0.33540  0.92383  0.18835  1.0000
  H   H447      1.0  0.38350  0.75240  0.51208  1.0000
  N   N38       1.0  0.37328  0.91981  0.09899  1.0000
  C   C443      1.0  0.38341  0.91038  0.13177  1.0000
  H   H448      1.0  0.34161  0.75082  0.18507  1.0000
  C   C444      1.0  0.37994  0.89167  0.15421  1.0000
  C   C445      1.0  0.39054  0.76619  0.42911  1.0000
  C   C446      1.0  0.41131  0.75532  0.36485  1.0000
  H   H449      1.0  0.36353  0.86789  0.15914  1.0000
  H   H450      1.0  0.39384  0.91755  0.14151  1.0000
  C   C447      1.0  0.39412  0.76737  0.38476  1.0000
  H   H451      1.0  0.38762  0.88445  0.18082  1.0000
  H   H452      1.0  0.35184  0.91836  0.06125  1.0000
  C   C448      1.0  0.42498  0.74258  0.38931  1.0000
  C   C449      1.0  0.33499  0.95268  0.14859  1.0000
  C   C450      1.0  0.39180  0.74143  0.22897  1.0000
  H   H453      1.0  0.40586  0.73881  0.24102  1.0000
  H   H454      1.0  0.38609  0.73637  0.93543  1.0000
  H   H455      1.0  0.40865  0.73863  0.51539  1.0000
  Fe  Fe75      1.0  0.95370  0.09720  0.21002  1.0000
  S   S149      1.0  0.93888  0.08499  0.27510  1.0000
  S   S150      1.0  0.98694  0.09684  0.20091  1.0000
  Fe  Fe76      1.0  0.91483  0.10819  0.17513  1.0000
  S   S151      1.0  0.89650  0.09730  0.23696  1.0000
  S   S152      1.0  0.89957  0.11869  0.11809  1.0000
  Fe  Fe77      1.0  0.91455  0.11234  0.26615  1.0000
  S   S153      1.0  0.90263  0.12804  0.32307  1.0000
  Fe  Fe78      1.0  0.92235  0.07091  0.24030  1.0000
  S   S154      1.0  0.91408  0.04071  0.26510  1.0000
  S   S155      1.0  0.93065  0.12599  0.20379  1.0000
  S   S156      1.0  0.93936  0.08049  0.17560  1.0000
  H   H456      1.0  0.74030  0.17974  0.00180  1.0000
  H   H457      1.0  0.86857  0.09127  0.14257  1.0000
  Fe  Fe79      1.0  0.89913  0.05570  0.51199  1.0000
  S   S157      1.0  0.89979  0.07573  0.55807  1.0000
  S   S158      1.0  0.87521  0.06148  0.47191  1.0000
  Fe  Fe80      1.0  0.93250  0.07326  0.52828  1.0000
  H   H458      1.0  0.85774  0.20385  0.04034  1.0000
  Fe  Fe81      1.0  0.91077  0.04662  0.59862  1.0000
  S   S159      1.0  0.89972  0.03969  0.66850  1.0000
  C   C451      1.0  0.82024  0.22669  0.82114  1.0000
  S   S160      1.0  0.90722  0.02669  0.55504  1.0000
  Fe  Fe82      1.0  0.79883  0.18148  0.10639  1.0000
  S   S161      1.0  0.78778  0.15698  0.08733  1.0000
  S   S162      1.0  0.81465  0.17548  0.16250  1.0000
  C   C452      1.0  0.90611  0.00724  0.37256  1.0000
  H   H459      1.0  0.90310  0.06178  0.17531  1.0000
  C   C453      1.0  0.99257  0.03976  0.26071  1.0000
  S   S163      1.0  0.67293  0.19890  0.75468  1.0000
  H   H460      1.0  0.90390  0.14347  0.99028  1.0000
  Fe  Fe83      1.0  0.80296  0.16804  0.02197  1.0000
  S   S164      1.0  0.82168  0.14675  0.97854  1.0000
  H   H461      1.0  0.97467  0.06049  0.66928  1.0000
  S   S165      1.0  0.81621  0.19064  0.04203  1.0000
  Fe  Fe84      1.0  0.87936  0.17660  0.76803  1.0000
  S   S166      1.0  0.86694  0.14949  0.76710  1.0000
  S   S167      1.0  0.86972  0.19505  0.82116  1.0000
  Fe  Fe85      1.0  0.90476  0.17478  0.68066  1.0000
  S   S168      1.0  0.89473  0.14759  0.67114  1.0000
  S   S169      1.0  0.92625  0.19036  0.63117  1.0000
  Fe  Fe86      1.0  0.86380  0.16282  0.69982  1.0000
  S   S170      1.0  0.83579  0.16574  0.67219  1.0000
  Fe  Fe87      1.0  0.89880  0.13655  0.73913  1.0000
  S   S171      1.0  0.91254  0.10517  0.76552  1.0000
  S   S172      1.0  0.87334  0.19119  0.70302  1.0000
  S   S173      1.0  0.91167  0.16250  0.74615  1.0000
  C   C454      1.0  0.83495  0.16021  0.93485  1.0000
  C   C455      1.0  0.84968  0.14984  0.90583  1.0000
  C   C456      1.0  0.86067  0.16054  0.87127  1.0000
  C   C457      1.0  0.85693  0.18159  0.86568  1.0000
  C   C458      1.0  0.84250  0.19193  0.89521  1.0000
  C   C459      1.0  0.83125  0.18127  0.92936  1.0000
  H   H462      1.0  0.85271  0.13354  0.91023  1.0000
  H   H463      1.0  0.87234  0.15242  0.84948  1.0000
  H   H464      1.0  0.83986  0.20819  0.89149  1.0000
  H   H465      1.0  0.81977  0.18941  0.95141  1.0000
  C   C460      1.0  0.90336  0.05791  0.69518  1.0000
  C   C461      1.0  0.90348  0.05356  0.73899  1.0000
  C   C462      1.0  0.90636  0.06814  0.76054  1.0000
  C   C463      1.0  0.90839  0.08728  0.73856  1.0000
  C   C464      1.0  0.90792  0.09171  0.69488  1.0000
  C   C465      1.0  0.90579  0.07693  0.67304  1.0000
  H   H466      1.0  0.90164  0.03883  0.75615  1.0000
  H   H467      1.0  0.90680  0.06464  0.79434  1.0000
  H   H468      1.0  0.90997  0.10626  0.67751  1.0000
  H   H469      1.0  0.90580  0.08037  0.63922  1.0000
  C   C466      1.0  0.97424  0.08950  0.49626  1.0000
  S   S174      1.0  0.72819  0.20965  0.86867  1.0000
  H   H470      1.0  0.97000  0.05939  0.49742  1.0000
  C   C467      1.0  0.84950  0.07807  0.26301  1.0000
  H   H471      1.0  0.89648  0.00974  0.40384  1.0000
  C   C468      1.0  0.91173  0.21850  0.68401  1.0000
  C   C469      1.0  0.87582  0.13393  0.13153  1.0000
  C   C470      1.0  0.86190  0.13816  0.10366  1.0000
  C   C471      1.0  0.84297  0.15066  0.11356  1.0000
  C   C472      1.0  0.83794  0.15908  0.15123  1.0000
  C   C473      1.0  0.85177  0.15460  0.17944  1.0000
  C   C474      1.0  0.87073  0.14201  0.16961  1.0000
  H   H472      1.0  0.86570  0.13175  0.07439  1.0000
  H   H473      1.0  0.83224  0.15364  0.09207  1.0000
  H   H474      1.0  0.84791  0.16107  0.20865  1.0000
  H   H475      1.0  0.88149  0.13887  0.19119  1.0000
  C   C475      1.0  0.89330  0.11062  0.36500  1.0000
  C   C476      1.0  0.88453  0.09569  0.35675  1.0000
  C   C477      1.0  0.87809  0.08109  0.38998  1.0000
  C   C478      1.0  0.88103  0.08102  0.43130  1.0000
  C   C479      1.0  0.88981  0.09593  0.43961  1.0000
  C   C480      1.0  0.89557  0.11096  0.40664  1.0000
  H   H476      1.0  0.88248  0.09549  0.32485  1.0000
  H   H477      1.0  0.87137  0.06954  0.38346  1.0000
  H   H478      1.0  0.89208  0.09597  0.47151  1.0000
  H   H479      1.0  0.90219  0.12254  0.41330  1.0000
  C   C481      1.0  0.79397  0.20795  0.83766  1.0000
  H   H480      1.0  0.98366  0.02814  0.26766  1.0000
  C   C482      1.0  0.98621  0.05782  0.23485  1.0000
  Fe  Fe88      1.0  0.69689  0.20305  0.88376  1.0000
  H   H481      1.0  0.97247  0.06005  0.22212  1.0000
  C   C483      1.0  0.93255  0.02026  0.24842  1.0000
  C   C484      1.0  0.95072  0.02305  0.22143  1.0000
  S   S175      1.0  0.96388  0.00418  0.50066  1.0000
  H   H482      1.0  0.95349  0.03805  0.20973  1.0000
  S   S176      1.0  0.67677  0.19893  0.94734  1.0000
  N   N39       1.0  0.95556  0.08929  0.65977  1.0000
  S   S177      1.0  0.72613  0.21040  0.76732  1.0000
  C   C485      1.0  0.85341  0.06275  0.61067  1.0000
  H   H483      1.0  0.93993  0.22664  0.58548  1.0000
  H   H484      1.0  0.94903  0.13271  0.69938  1.0000
  H   H485      1.0  0.91480  0.99847  0.28297  1.0000
  H   H486      1.0  0.79428  0.18765  0.68132  1.0000
  H   H487      1.0  0.87485  0.19565  0.55230  1.0000
  H   H488      1.0  0.89182  0.17225  0.11382  1.0000
  H   H489      1.0  0.91037  0.20074  0.81337  1.0000
  C   C486      1.0  0.78286  0.16424  0.78328  1.0000
  H   H490      1.0  0.87236  0.05110  0.25930  1.0000
  H   H491      1.0  0.95131  0.06388  0.70762  1.0000
  H   H492      1.0  0.89763  0.01523  0.34661  1.0000
  H   H493      1.0  0.94296  0.09349  0.42506  1.0000
  H   H494      1.0  0.89097  0.04053  0.19404  1.0000
  C   C487      1.0  0.80145  0.15101  0.78616  1.0000
  C   C488      1.0  0.81745  0.15105  0.75156  1.0000
  C   C489      1.0  0.81503  0.16438  0.71385  1.0000
  H   H495      1.0  0.80356  0.14070  0.81525  1.0000
  H   H496      1.0  0.83156  0.14052  0.75403  1.0000
  C   C490      1.0  0.92361  0.03375  0.37616  1.0000
  C   C491      1.0  0.72407  0.18318  0.01008  1.0000
  H   H497      1.0  0.83139  0.18458  0.79773  1.0000
  C   C492      1.0  0.74994  0.13985  0.94264  1.0000
  C   C493      1.0  0.73248  0.13856  0.97332  1.0000
  C   C494      1.0  0.75242  0.13480  0.02834  1.0000
  C   C495      1.0  0.73380  0.13593  0.01644  1.0000
  H   H498      1.0  0.74871  0.14231  0.90915  1.0000
  H   H499      1.0  0.71793  0.14019  0.96369  1.0000
  H   H500      1.0  0.72027  0.13563  0.04057  1.0000
  C   C496      1.0  0.98077  0.06913  0.49194  1.0000
  C   C497      1.0  0.84705  0.10060  0.19676  1.0000
  C   C498      1.0  0.84043  0.09605  0.24045  1.0000
  N   N40       1.0  0.76825  0.13822  0.95464  1.0000
  H   H501      1.0  0.84021  0.11464  0.17907  1.0000
  H   H502      1.0  0.82848  0.10661  0.25682  1.0000
  N   N41       1.0  0.96305  0.11172  0.32480  1.0000
  C   C499      1.0  0.94987  0.11055  0.36265  1.0000
  C   C500      1.0  0.98023  0.09722  0.31857  1.0000
  C   C501      1.0  0.95342  0.09422  0.39500  1.0000
  H   H503      1.0  0.76892  0.21711  0.88689  1.0000
  C   C502      1.0  0.97063  0.07906  0.38843  1.0000
  C   C503      1.0  0.95942  0.12921  0.29165  1.0000
  H   H504      1.0  0.93649  0.12229  0.36799  1.0000
  C   C504      1.0  0.69357  0.18555  0.06311  1.0000
  H   H505      1.0  0.72380  0.22129  0.05618  1.0000
  C   C505      1.0  0.96107  0.01040  0.34927  1.0000
  H   H506      1.0  0.89173  0.18745  0.59102  1.0000
  H   H507      1.0  0.96541  0.12496  0.25936  1.0000
  H   H508      1.0  0.94292  0.13540  0.29287  1.0000
  H   H509      1.0  0.96690  0.14114  0.29582  1.0000
  C   C506      1.0  0.76960  0.13595  0.99683  1.0000
  H   H510      1.0  0.88706  0.05585  0.14391  1.0000
  C   C507      1.0  0.86295  0.08722  0.17625  1.0000
  H   H511      1.0  0.75341  0.13360  0.06173  1.0000
  H   H512      1.0  0.87876  0.16442  0.94614  1.0000
  C   C508      1.0  0.79628  0.17731  0.71044  1.0000
  H   H513      1.0  0.83474  0.22938  0.80291  1.0000
  C   C509      1.0  0.95491  0.99055  0.47100  1.0000
  C   C510      1.0  0.94320  0.00328  0.35364  1.0000
  H   H514      1.0  0.85609  0.19503  0.97106  1.0000
  H   H515      1.0  0.79993  0.12935  0.93233  1.0000
  H   H516      1.0  0.68629  0.18465  0.09618  1.0000
  C   C511      1.0  0.82297  0.19887  0.78206  1.0000
  S   S178      1.0  0.76352  0.16425  0.82816  1.0000
  H   H517      1.0  0.97383  0.03519  0.35510  1.0000
  H   H518      1.0  0.90931  0.99076  0.37143  1.0000
  C   C512      1.0  0.88899  0.05626  0.17682  1.0000
  C   C513      1.0  0.96001  0.02958  0.35841  1.0000
  H   H519      1.0  0.95061  0.06045  0.65505  1.0000
  C   C514      1.0  0.78023  0.17735  0.74528  1.0000
  H   H520      1.0  0.97355  0.06624  0.41313  1.0000
  H   H521      1.0  0.95183  0.12373  0.57068  1.0000
  C   C515      1.0  0.94116  0.04146  0.37148  1.0000
  C   C516      1.0  0.91488  0.21522  0.80315  1.0000
  H   H522      1.0  0.84474  0.07454  0.29715  1.0000
  N   N42       1.0  0.87165  0.06953  0.19851  1.0000
  H   H523      1.0  0.78913  0.15556  0.91694  1.0000
  C   C517      1.0  0.86514  0.06487  0.24137  1.0000
  S   S179      1.0  0.70447  0.17882  0.84312  1.0000
  H   H524      1.0  0.90899  0.04299  0.38663  1.0000
  H   H525      1.0  0.86706  0.18141  0.60367  1.0000
  C   C518      1.0  0.95238  0.11775  0.60399  1.0000
  C   C519      1.0  0.68179  0.19039  0.03073  1.0000
  H   H526      1.0  0.92337  0.00112  0.49498  1.0000
  H   H527      1.0  0.86682  0.18710  0.11374  1.0000
  Fe  Fe89      1.0  0.93931  0.02876  0.52529  1.0000
  C   C520      1.0  0.95520  0.09693  0.61776  1.0000
  H   H528      1.0  0.94003  0.05653  0.37798  1.0000
  H   H529      1.0  0.83851  0.05807  0.61977  1.0000
  S   S180      1.0  0.94836  0.09928  0.51106  1.0000
  H   H530      1.0  0.74684  0.22868  0.02872  1.0000
  H   H531      1.0  0.98345  0.11766  0.49243  1.0000
  C   C521      1.0  0.96543  0.00630  0.20958  1.0000
  S   S181      1.0  0.93084  0.05601  0.47808  1.0000
  H   H532      1.0  0.94064  0.20421  0.75736  1.0000
  S   S182      1.0  0.94369  0.04599  0.57334  1.0000
  C   C522      1.0  0.88236  0.18447  0.09457  1.0000
  C   C523      1.0  0.89393  0.15694  0.00066  1.0000
  C   C524      1.0  0.95828  0.06746  0.67361  1.0000
  C   C525      1.0  0.69124  0.19151  0.98805  1.0000
  C   C526      1.0  0.84740  0.21685  0.62140  1.0000
  H   H533      1.0  0.88862  0.19837  0.08946  1.0000
  C   C527      1.0  0.93192  0.21715  0.77187  1.0000
  Fe  Fe90      1.0  0.73490  0.18750  0.82310  1.0000
  H   H534      1.0  0.78757  0.19587  0.83222  1.0000
  C   C528      1.0  0.71475  0.18219  0.05270  1.0000
  H   H535      1.0  0.81226  0.19547  0.76451  1.0000
  C   C529      1.0  0.95398  0.10188  0.68864  1.0000
  H   H536      1.0  0.84880  0.10222  0.58030  1.0000
  H   H537      1.0  0.95433  0.09585  0.72198  1.0000
  H   H538      1.0  0.84825  0.12993  0.61953  1.0000
  C   C530      1.0  0.98418  0.08055  0.35004  1.0000
  Fe  Fe91      1.0  0.76135  0.18132  0.07198  1.0000
  N   N43       1.0  0.88174  0.17899  0.05351  1.0000
  H   H539      1.0  0.97567  0.00109  0.33893  1.0000
  C   C531      1.0  0.86809  0.19072  0.02922  1.0000
  C   C532      1.0  0.87983  0.16864  0.97600  1.0000
  H   H540      1.0  0.94763  0.14695  0.62328  1.0000
  C   C533      1.0  0.85044  0.11439  0.63531  1.0000
  C   C534      1.0  0.85070  0.09868  0.61345  1.0000
  H   H541      1.0  0.86552  0.04950  0.61847  1.0000
  H   H542      1.0  0.78399  0.13517  0.00635  1.0000
  H   H543      1.0  0.85640  0.06729  0.57547  1.0000
  C   C535      1.0  0.89489  0.16254  0.03926  1.0000
  C   C536      1.0  0.86701  0.18578  0.99006  1.0000
  C   C537      1.0  0.92324  0.21436  0.64480  1.0000
  C   C538      1.0  0.93413  0.99114  0.47556  1.0000
  C   C539      1.0  0.85302  0.10998  0.67783  1.0000
  N   N44       1.0  0.85347  0.07912  0.63351  1.0000
  H   H544      1.0  0.85308  0.12200  0.69496  1.0000
  N   N45       1.0  0.92481  0.01481  0.36766  1.0000
  H   H545      1.0  0.83386  0.20660  0.75807  1.0000
  C   C540      1.0  0.87567  0.19327  0.58674  1.0000
  H   H546      1.0  0.85786  0.08642  0.73106  1.0000
  C   C541      1.0  0.85553  0.09006  0.69817  1.0000
  H   H547      1.0  0.95689  0.08692  0.59471  1.0000
  S   S183      1.0  0.72936  0.17649  0.09313  1.0000
  C   C542      1.0  0.85552  0.07475  0.67550  1.0000
  C   C543      1.0  0.95097  0.12278  0.67605  1.0000
  Fe  Fe92      1.0  0.69495  0.20386  0.79181  1.0000
  H   H548      1.0  0.90655  0.20659  0.70739  1.0000
  S   S184      1.0  0.77097  0.20509  0.09697  1.0000
  S   S185      1.0  0.77559  0.19009  0.00424  1.0000
  C   C544      1.0  0.98843  0.10190  0.48905  1.0000
  H   H549      1.0  0.85769  0.05925  0.69145  1.0000
  H   H550      1.0  0.83751  0.20636  0.62366  1.0000
  N   N46       1.0  0.86749  0.21225  0.60385  1.0000
  H   H551      1.0  0.71974  0.18724  0.94540  1.0000
  H   H552      1.0  0.76592  0.18755  0.74266  1.0000
  N   N47       1.0  0.81205  0.21162  0.81409  1.0000
  H   H553      1.0  0.78471  0.13634  0.89137  1.0000
  C   C545      1.0  0.95011  0.13074  0.63343  1.0000
  C   C546      1.0  0.78635  0.13997  0.92220  1.0000
  C   C547      1.0  0.71236  0.18746  0.97793  1.0000
  H   H554      1.0  0.97950  0.00851  0.18885  1.0000
  C   C548      1.0  0.92898  0.00077  0.26292  1.0000
  H   H555      1.0  0.90589  0.15332  0.05821  1.0000
  C   C549      1.0  0.96206  0.98675  0.22525  1.0000
  H   H556      1.0  0.99095  0.09853  0.28908  1.0000
  C   C550      1.0  0.87987  0.22557  0.60082  1.0000
  H   H557      1.0  0.89571  0.22205  0.58637  1.0000
  H   H558      1.0  0.79078  0.23018  0.73443  1.0000
  C   C551      1.0  0.78334  0.21991  0.86858  1.0000
  H   H559      1.0  0.94416  0.98839  0.34616  1.0000
  C   C552      1.0  0.90344  0.23208  0.82069  1.0000
  Fe  Fe93      1.0  0.78736  0.21203  0.03016  1.0000
  C   C553      1.0  0.93090  0.22978  0.61586  1.0000
  H   H560      1.0  0.88994  0.23080  0.84457  1.0000
  H   H561      1.0  0.82549  0.22252  0.98406  1.0000
  H   H562      1.0  0.66541  0.19338  0.03875  1.0000
  Fe  Fe94      1.0  0.71729  0.23204  0.81492  1.0000
  H   H563      1.0  0.75502  0.23181  0.76784  1.0000
  H   H564      1.0  0.85673  0.23195  0.93951  1.0000
  S   S186      1.0  0.68523  0.22769  0.83427  1.0000
  C   C554      1.0  0.83940  0.23494  0.63764  1.0000
  H   H565      1.0  0.69482  0.22877  0.02187  1.0000
  C   C555      1.0  0.73016  0.23395  0.03529  1.0000
  C   C556      1.0  0.79140  0.23560  0.87533  1.0000
  H   H566      1.0  0.81751  0.48548  0.68501  1.0000
  H   H567      1.0  0.69990  0.25678  0.89115  1.0000
  H   H568      1.0  0.75622  0.48057  0.74025  1.0000
  Fe  Fe95      1.0  0.85013  0.43960  0.81952  1.0000
  S   S187      1.0  0.82716  0.44965  0.87510  1.0000
  S   S188      1.0  0.86574  0.40690  0.82525  1.0000
  Fe  Fe96      1.0  0.80847  0.46659  0.82610  1.0000
  N   N48       1.0  0.92556  0.25265  0.77499  1.0000
  Fe  Fe97      1.0  0.84133  0.47681  0.86283  1.0000
  H   H569      1.0  0.81641  0.25118  0.85617  1.0000
  S   S189      1.0  0.83014  0.45453  0.77142  1.0000
  S   S190      1.0  0.86625  0.46539  0.81119  1.0000
  Fe  Fe98      1.0  0.84276  0.31728  0.75216  1.0000
  S   S191      1.0  0.84881  0.29980  0.69757  1.0000
  S   S192      1.0  0.82933  0.35046  0.74274  1.0000
  Fe  Fe99      1.0  0.85649  0.28103  0.81433  1.0000
  S   S193      1.0  0.86365  0.26033  0.76600  1.0000
  S   S194      1.0  0.86327  0.26684  0.87914  1.0000
  Fe  Fe100     1.0  0.87757  0.28446  0.72181  1.0000
  S   S195      1.0  0.90708  0.27839  0.67605  1.0000
  Fe  Fe101     1.0  0.83455  0.27696  0.74556  1.0000
  C   C557      1.0  0.75141  0.26058  0.78779  1.0000
  S   S196      1.0  0.87299  0.30397  0.77214  1.0000
  S   S197      1.0  0.82577  0.29561  0.79837  1.0000
  C   C558      1.0  0.76117  0.27607  0.78929  1.0000
  C   C559      1.0  0.84129  0.26091  0.91251  1.0000
  C   C560      1.0  0.82265  0.27432  0.91180  1.0000
  H   H570      1.0  0.82186  0.28885  0.89182  1.0000
  C   C561      1.0  0.78763  0.48063  0.71378  1.0000
  C   C562      1.0  0.85204  0.24838  0.63566  1.0000
  H   H571      1.0  0.79062  0.27945  0.93694  1.0000
  H   H572      1.0  0.77884  0.39057  0.79282  1.0000
  C   C563      1.0  0.79239  0.25838  0.75132  1.0000
  C   C564      1.0  0.80996  0.23903  0.85145  1.0000
  H   H573      1.0  0.75280  0.28905  0.80391  1.0000
  H   H574      1.0  0.79292  0.46538  0.72884  1.0000
  H   H575      1.0  0.78013  0.42268  0.81600  1.0000
  H   H576      1.0  0.80236  0.42209  0.86677  1.0000
  H   H577      1.0  0.83152  0.40483  0.89839  1.0000
  C   C565      1.0  0.80501  0.26903  0.93750  1.0000
  S   S198      1.0  0.77570  0.46535  0.83348  1.0000
  C   C566      1.0  0.90678  0.23812  0.69340  1.0000
  H   H578      1.0  0.78335  0.24507  0.89903  1.0000
  C   C567      1.0  0.80597  0.25027  0.96363  1.0000
  H   H579      1.0  0.82192  0.35851  0.87259  1.0000
  H   H580      1.0  0.81913  0.38643  0.93560  1.0000
  H   H581      1.0  0.82355  0.23842  0.65229  1.0000
  S   S199      1.0  0.78358  0.24356  0.99404  1.0000
  S   S200      1.0  0.81788  0.25645  0.72760  1.0000
  H   H582      1.0  0.84128  0.37885  0.89637  1.0000
  C   C568      1.0  0.85696  0.39127  0.79935  1.0000
  C   C569      1.0  0.84374  0.39939  0.77026  1.0000
  C   C570      1.0  0.83588  0.38670  0.75201  1.0000
  C   C571      1.0  0.84116  0.36577  0.76278  1.0000
  C   C572      1.0  0.85457  0.35756  0.79154  1.0000
  C   C573      1.0  0.86257  0.37029  0.80954  1.0000
  H   H583      1.0  0.83965  0.41539  0.76142  1.0000
  H   H584      1.0  0.82553  0.39313  0.72975  1.0000
  H   H585      1.0  0.85838  0.34148  0.80083  1.0000
  H   H586      1.0  0.87282  0.36388  0.83201  1.0000
  C   C574      1.0  0.90916  0.25076  0.80646  1.0000
  Fe  Fe102     1.0  0.84405  0.48109  0.76772  1.0000
  H   H587      1.0  0.74716  0.25288  0.96189  1.0000
  C   C575      1.0  0.78177  0.27488  0.77140  1.0000
  H   H588      1.0  0.79962  0.35841  0.82209  1.0000
  C   C576      1.0  0.91384  0.25370  0.66436  1.0000
  H   H589      1.0  0.78925  0.28693  0.77215  1.0000
  N   N49       1.0  0.81362  0.39030  0.87232  1.0000
  C   C577      1.0  0.81249  0.37258  0.86090  1.0000
  C   C578      1.0  0.80184  0.40806  0.85717  1.0000
  C   C579      1.0  0.79980  0.37240  0.83253  1.0000
  C   C580      1.0  0.78910  0.40846  0.82850  1.0000
  C   C581      1.0  0.78822  0.39050  0.81589  1.0000
  C   C582      1.0  0.82692  0.39006  0.90238  1.0000
  H   H590      1.0  0.94996  0.23763  0.73281  1.0000
  H   H591      1.0  0.89794  0.24098  0.72374  1.0000
  H   H592      1.0  0.88234  0.25408  0.61560  1.0000
  S   S201      1.0  0.72562  0.26210  0.80931  1.0000
  C   C583      1.0  0.69516  0.24240  0.95655  1.0000
  C   C584      1.0  0.72489  0.25587  0.92243  1.0000
  C   C585      1.0  0.78263  0.24293  0.75002  1.0000
  H   H593      1.0  0.73383  0.48038  0.86445  1.0000
  C   C586      1.0  0.87239  0.24374  0.61705  1.0000
  C   C587      1.0  0.70336  0.23642  0.99406  1.0000
  H   H594      1.0  0.90015  0.26383  0.82018  1.0000
  H   H595      1.0  0.93200  0.26147  0.60331  1.0000
  H   H596      1.0  0.73342  0.26348  0.89447  1.0000
  C   C588      1.0  0.84232  0.24233  0.93913  1.0000
  H   H597      1.0  0.93984  0.27344  0.72744  1.0000
  H   H598      1.0  0.68056  0.23927  0.95529  1.0000
  C   C589      1.0  0.82464  0.23695  0.96430  1.0000
  C   C590      1.0  0.92634  0.24946  0.62586  1.0000
  C   C591      1.0  0.73262  0.24970  0.96048  1.0000
  C   C592      1.0  0.93124  0.27238  0.76059  1.0000
  H   H599      1.0  0.84607  0.26234  0.64878  1.0000
  H   H600      1.0  0.94049  0.27516  0.78222  1.0000
  H   H601      1.0  0.91751  0.28458  0.75971  1.0000
  C   C593      1.0  0.70603  0.25216  0.92055  1.0000
  N   N50       1.0  0.72199  0.23986  0.99547  1.0000
  H   H602      1.0  0.67005  0.24130  0.75290  1.0000
  H   H603      1.0  0.72675  0.24698  0.05281  1.0000
  C   C594      1.0  0.76230  0.24387  0.76888  1.0000
  C   C595      1.0  0.93709  0.23611  0.75809  1.0000
  H   H604      1.0  0.80884  0.68317  0.74629  1.0000
  Fe  Fe103     1.0  0.75921  0.58317  0.66782  1.0000
  S   S202      1.0  0.74649  0.61636  0.66253  1.0000
  S   S203      1.0  0.78107  0.57069  0.61345  1.0000
  Fe  Fe104     1.0  0.73380  0.57363  0.75425  1.0000
  S   S204      1.0  0.71935  0.60599  0.75666  1.0000
  S   S205      1.0  0.72073  0.55208  0.80784  1.0000
  Fe  Fe105     1.0  0.71667  0.60700  0.68884  1.0000
  S   S206      1.0  0.68656  0.62071  0.66877  1.0000
  Fe  Fe106     1.0  0.75040  0.61187  0.73080  1.0000
  S   S207      1.0  0.76148  0.63410  0.75723  1.0000
  S   S208      1.0  0.72903  0.57407  0.68800  1.0000
  S   S209      1.0  0.76557  0.57922  0.73430  1.0000
  Fe  Fe107     1.0  0.90533  0.59983  0.60843  1.0000
  S   S210      1.0  0.89880  0.60773  0.67415  1.0000
  S   S211      1.0  0.93331  0.57711  0.59015  1.0000
  Fe  Fe108     1.0  0.86466  0.62299  0.58805  1.0000
  S   S212      1.0  0.85441  0.63353  0.65143  1.0000
  S   S213      1.0  0.84445  0.62738  0.54014  1.0000
  Fe  Fe109     1.0  0.88603  0.63861  0.64307  1.0000
  S   S214      1.0  0.89118  0.66575  0.66401  1.0000
  Fe  Fe110     1.0  0.86786  0.60197  0.67695  1.0000
  S   S215      1.0  0.85223  0.58577  0.73620  1.0000
  S   S216      1.0  0.89513  0.63143  0.57630  1.0000
  S   S217      1.0  0.87576  0.59085  0.61418  1.0000
  Fe  Fe111     1.0  0.84492  0.63611  0.89327  1.0000
  S   S218      1.0  0.82203  0.63437  0.95352  1.0000
  S   S219      1.0  0.84931  0.66629  0.85645  1.0000
  Fe  Fe112     1.0  0.86162  0.59093  0.90493  1.0000
  S   S220      1.0  0.84077  0.58531  0.96695  1.0000
  Fe  Fe113     1.0  0.81719  0.60674  0.93329  1.0000
  S   S221      1.0  0.78807  0.59708  0.93487  1.0000
  Fe  Fe114     1.0  0.84771  0.61328  0.98127  1.0000
  S   S222      1.0  0.85566  0.61680  0.04260  1.0000
  S   S223      1.0  0.83759  0.61059  0.87001  1.0000
  S   S224      1.0  0.87088  0.61677  0.92235  1.0000
  C   C596      1.0  0.87013  0.63552  0.03319  1.0000
  C   C597      1.0  0.87097  0.64884  0.99479  1.0000
  C   C598      1.0  0.88220  0.66404  0.98753  1.0000
  C   C599      1.0  0.89250  0.66614  0.01873  1.0000
  C   C600      1.0  0.89176  0.65281  0.05712  1.0000
  C   C601      1.0  0.88052  0.63753  0.06440  1.0000
  H   H605      1.0  0.86234  0.64797  0.97125  1.0000
  H   H606      1.0  0.88237  0.67460  0.95818  1.0000
  H   H607      1.0  0.87993  0.62722  0.09413  1.0000
  C   C602      1.0  0.95282  0.58945  0.56285  1.0000
  H   H608      1.0  0.74441  0.51604  0.70787  1.0000
  H   H609      1.0  0.71227  0.51456  0.85463  1.0000
  C   C603      1.0  0.80994  0.66793  0.74069  1.0000
  C   C604      1.0  0.94813  0.60836  0.53848  1.0000
  H   H610      1.0  0.84746  0.53766  0.64798  1.0000
  C   C605      1.0  0.88250  0.71206  0.40203  1.0000
  H   H611      1.0  0.93265  0.61515  0.53573  1.0000
  C   C606      1.0  0.88015  0.66563  0.71792  1.0000
  C   C607      1.0  0.87447  0.64817  0.74259  1.0000
  C   C608      1.0  0.86564  0.64809  0.78558  1.0000
  C   C609      1.0  0.86165  0.66573  0.80360  1.0000
  C   C610      1.0  0.86732  0.68320  0.77904  1.0000
  C   C611      1.0  0.87680  0.68309  0.73638  1.0000
  H   H612      1.0  0.87676  0.63469  0.72871  1.0000
  H   H613      1.0  0.86149  0.63449  0.80439  1.0000
  H   H614      1.0  0.86431  0.69687  0.79294  1.0000
  H   H615      1.0  0.88109  0.69665  0.71747  1.0000
  C   C612      1.0  0.97306  0.58053  0.56527  1.0000
  N   N51       1.0  0.91853  0.62631  0.91366  1.0000
  C   C613      1.0  0.66382  0.58728  0.86714  1.0000
  C   C614      1.0  0.86648  0.51565  0.86499  1.0000
  C   C615      1.0  0.90441  0.54771  0.68313  1.0000
  C   C616      1.0  0.81894  0.65160  0.76767  1.0000
  C   C617      1.0  0.82052  0.63206  0.75999  1.0000
  H   H616      1.0  0.91674  0.56582  0.73447  1.0000
  H   H617      1.0  0.66513  0.57246  0.79086  1.0000
  C   C618      1.0  0.79879  0.58628  0.59315  1.0000
  C   C619      1.0  0.80332  0.59256  0.54921  1.0000
  C   C620      1.0  0.81704  0.60553  0.53297  1.0000
  C   C621      1.0  0.82676  0.61168  0.56053  1.0000
  C   C622      1.0  0.82259  0.60496  0.60440  1.0000
  C   C623      1.0  0.80835  0.59257  0.62078  1.0000
  H   H618      1.0  0.79589  0.58776  0.52779  1.0000
  H   H619      1.0  0.82025  0.61061  0.49905  1.0000
  H   H620      1.0  0.83015  0.60946  0.62587  1.0000
  H   H621      1.0  0.80504  0.58758  0.65473  1.0000
  C   C624      1.0  0.76770  0.62417  0.80777  1.0000
  C   C625      1.0  0.76405  0.60521  0.82798  1.0000
  C   C626      1.0  0.76964  0.59718  0.86792  1.0000
  C   C627      1.0  0.77947  0.60784  0.88692  1.0000
  C   C628      1.0  0.78310  0.62678  0.86670  1.0000
  C   C629      1.0  0.77679  0.63512  0.82762  1.0000
  H   H622      1.0  0.75699  0.59674  0.81281  1.0000
  H   H623      1.0  0.76693  0.58247  0.88346  1.0000
  H   H624      1.0  0.79053  0.63514  0.88151  1.0000
  H   H625      1.0  0.77915  0.64998  0.81255  1.0000
  S   S225      1.0  0.97158  0.72273  0.46885  1.0000
  C   C630      1.0  0.71670  0.58955  0.87533  1.0000
  H   H626      1.0  0.82440  0.65411  0.79483  1.0000
  C   C631      1.0  0.67516  0.55933  0.68135  1.0000
  C   C632      1.0  0.67446  0.59414  0.73781  1.0000
  H   H627      1.0  0.89154  0.56419  0.76316  1.0000
  H   H628      1.0  0.81365  0.61381  0.72056  1.0000
  H   H629      1.0  0.69030  0.58776  0.73750  1.0000
  H   H630      1.0  0.91767  0.59517  0.84545  1.0000
  H   H631      1.0  0.82764  0.61926  0.78053  1.0000
  C   C633      1.0  0.85167  0.54601  0.76017  1.0000
  C   C634      1.0  0.85031  0.56223  0.72717  1.0000
  C   C635      1.0  0.84820  0.55931  0.68704  1.0000
  H   H632      1.0  0.85312  0.54829  0.79121  1.0000
  H   H633      1.0  0.84598  0.57196  0.66209  1.0000
  H   H634      1.0  0.80935  0.53634  0.66152  1.0000
  C   C636      1.0  0.73630  0.52821  0.81509  1.0000
  H   H635      1.0  0.98735  0.68594  0.54084  1.0000
  C   C637      1.0  0.95973  0.64978  0.58480  1.0000
  N   N52       1.0  0.80886  0.54719  0.89976  1.0000
  C   C638      1.0  0.79872  0.53889  0.87786  1.0000
  N   N53       1.0  0.97382  0.71834  0.23685  1.0000
  C   C639      1.0  0.79798  0.54608  0.83475  1.0000
  C   C640      1.0  0.72810  0.51214  0.83998  1.0000
  C   C641      1.0  0.80767  0.56185  0.81418  1.0000
  H   H636      1.0  0.96148  0.63358  0.59421  1.0000
  H   H637      1.0  0.79111  0.52666  0.89377  1.0000
  H   H638      1.0  0.82619  0.58195  0.82076  1.0000
  H   H639      1.0  0.78999  0.53943  0.81746  1.0000
  C   C642      1.0  0.90904  0.62760  0.83385  1.0000
  H   H640      1.0  0.96060  0.60840  0.42540  1.0000
  H   H641      1.0  0.68752  0.54984  0.69620  1.0000
  H   H642      1.0  0.91726  0.70987  0.56050  1.0000
  S   S226      1.0  0.89517  0.72586  0.08163  1.0000
  N   N54       1.0  0.80330  0.64517  0.70024  1.0000
  C   C643      1.0  0.80220  0.66442  0.70683  1.0000
  C   C644      1.0  0.79503  0.64194  0.66455  1.0000
  H   H643      1.0  0.79504  0.67715  0.68618  1.0000
  H   H644      1.0  0.80586  0.64425  0.63430  1.0000
  H   H645      1.0  0.79188  0.62650  0.66949  1.0000
  H   H646      1.0  0.78026  0.65241  0.66195  1.0000
  N   N55       1.0  0.92816  0.61321  0.44406  1.0000
  C   C645      1.0  0.92925  0.59481  0.46945  1.0000
  C   C646      1.0  0.90983  0.62597  0.44176  1.0000
  C   C647      1.0  0.91169  0.58893  0.49393  1.0000
  C   C648      1.0  0.89195  0.62048  0.46556  1.0000
  C   C649      1.0  0.89294  0.60184  0.49178  1.0000
  C   C650      1.0  0.94662  0.61962  0.41941  1.0000
  H   H647      1.0  0.94379  0.58480  0.47205  1.0000
  H   H648      1.0  0.90900  0.64056  0.42163  1.0000
  H   H649      1.0  0.91271  0.57461  0.51508  1.0000
  H   H650      1.0  0.87738  0.63067  0.46415  1.0000
  C   C651      1.0  0.80923  0.52359  0.64529  1.0000
  S   S227      1.0  0.96160  0.67026  0.17068  1.0000
  C   C652      1.0  0.95822  0.73303  0.29984  1.0000
  H   H651      1.0  0.94787  0.63399  0.42823  1.0000
  N   N56       1.0  0.84582  0.68666  0.07078  1.0000
  C   C653      1.0  0.84724  0.69975  0.03332  1.0000
  C   C654      1.0  0.83508  0.67165  0.07660  1.0000
  C   C655      1.0  0.83814  0.69772  0.00005  1.0000
  C   C656      1.0  0.82585  0.66914  0.04397  1.0000
  C   C657      1.0  0.82745  0.68224  0.00543  1.0000
  C   C658      1.0  0.76036  0.50904  0.70195  1.0000
  H   H652      1.0  0.85602  0.71146  0.02854  1.0000
  H   H653      1.0  0.83420  0.66106  0.10600  1.0000
  H   H654      1.0  0.83984  0.70772  0.96992  1.0000
  H   H655      1.0  0.81820  0.65661  0.04800  1.0000
  H   H656      1.0  0.82089  0.68008  0.97940  1.0000
  N   N57       1.0  0.79478  0.51155  0.67105  1.0000
  C   C659      1.0  0.93812  0.72046  0.26242  1.0000
  C   C660      1.0  0.77457  0.52009  0.67742  1.0000
  H   H657      1.0  0.88215  0.53739  0.82287  1.0000
  H   H658      1.0  0.81874  0.54655  0.95843  1.0000
  H   H659      1.0  0.91387  0.69909  0.61643  1.0000
  H   H660      1.0  0.82491  0.51458  0.63989  1.0000
  N   N58       1.0  0.90510  0.54112  0.72541  1.0000
  H   H661      1.0  0.87012  0.69395  0.09195  1.0000
  H   H662      1.0  0.79247  0.54609  0.96270  1.0000
  H   H663      1.0  0.84543  0.70069  0.12385  1.0000
  C   C661      1.0  0.68381  0.58170  0.87468  1.0000
  C   C662      1.0  0.81832  0.56992  0.83658  1.0000
  H   H664      1.0  0.92608  0.59434  0.91628  1.0000
  H   H665      1.0  0.89161  0.69671  0.34723  1.0000
  S   S228      1.0  0.97537  0.69683  0.36871  1.0000
  H   H666      1.0  0.97676  0.56584  0.58407  1.0000
  Fe  Fe115     1.0  0.89271  0.71039  0.14926  1.0000
  C   C663      1.0  0.85725  0.52094  0.93856  1.0000
  Fe  Fe116     1.0  0.91226  0.69558  0.06589  1.0000
  C   C664      1.0  0.84853  0.53994  0.67939  1.0000
  N   N59       1.0  0.93824  0.68267  0.57740  1.0000
  C   C665      1.0  0.96736  0.66640  0.25235  1.0000
  C   C666      1.0  0.81256  0.62908  0.72596  1.0000
  H   H667      1.0  0.92397  0.64030  0.96263  1.0000
  H   H668      1.0  0.81187  0.52380  0.95260  1.0000
  C   C667      1.0  0.91799  0.69556  0.58335  1.0000
  H   H669      1.0  0.90976  0.62045  0.98068  1.0000
  H   H670      1.0  0.98327  0.66513  0.23926  1.0000
  H   H671      1.0  0.68983  0.56599  0.88562  1.0000
  C   C668      1.0  0.92107  0.60879  0.89753  1.0000
  H   H672      1.0  0.90638  0.68786  0.57811  1.0000
  C   C669      1.0  0.74027  0.49283  0.84552  1.0000
  H   H673      1.0  0.92373  0.71744  0.25937  1.0000
  C   C670      1.0  0.94049  0.66227  0.58981  1.0000
  H   H674      1.0  0.89998  0.65412  0.08103  1.0000
  H   H675      1.0  0.95426  0.70856  0.20582  1.0000
  H   H676      1.0  0.90496  0.62809  0.80308  1.0000
  C   C671      1.0  0.94596  0.73410  0.47014  1.0000
  C   C672      1.0  0.66277  0.58759  0.63061  1.0000
  H   H677      1.0  0.95319  0.70736  0.55238  1.0000
  H   H678      1.0  0.92156  0.67241  0.22252  1.0000
  H   H679      1.0  0.92736  0.65555  0.60356  1.0000
  C   C673      1.0  0.86784  0.72665  0.42202  1.0000
  S   S229      1.0  0.94264  0.70153  0.06826  1.0000
  H   H680      1.0  0.97184  0.66670  0.31526  1.0000
  H   H681      1.0  0.76938  0.53560  0.66373  1.0000
  H   H682      1.0  0.82705  0.56875  0.89674  1.0000
  H   H683      1.0  0.76301  0.53736  0.77623  1.0000
  S   S230      1.0  0.90772  0.67964  0.13321  1.0000
  S   S231      1.0  0.88377  0.56686  0.87225  1.0000
  C   C674      1.0  0.95488  0.69117  0.56125  1.0000
  C   C675      1.0  0.68864  0.61529  0.85077  1.0000
  S   S232      1.0  0.90583  0.68577  0.00873  1.0000
  C   C676      1.0  0.75672  0.52505  0.79604  1.0000
  H   H684      1.0  0.86574  0.54670  0.95313  1.0000
  S   S233      1.0  0.93255  0.67003  0.36824  1.0000
  H   H685      1.0  0.91015  0.67214  0.30035  1.0000
  H   H686      1.0  0.86134  0.71496  0.31468  1.0000
  C   C677      1.0  0.93959  0.72923  0.29658  1.0000
  C   C678      1.0  0.87461  0.54430  0.88641  1.0000
  C   C679      1.0  0.86577  0.53825  0.92837  1.0000
  H   H687      1.0  0.90009  0.65973  0.83314  1.0000
  C   C680      1.0  0.92609  0.67072  0.28706  1.0000
  C   C681      1.0  0.85544  0.68915  0.10516  1.0000
  C   C682      1.0  0.97431  0.67912  0.55519  1.0000
  C   C683      1.0  0.89945  0.51529  0.67491  1.0000
  H   H688      1.0  0.85892  0.67477  0.12705  1.0000
  C   C684      1.0  0.85152  0.52676  0.75289  1.0000
  H   H689      1.0  0.94353  0.72373  0.41333  1.0000
  C   C685      1.0  0.66884  0.62130  0.84210  1.0000
  C   C686      1.0  0.95546  0.71536  0.23231  1.0000
  C   C687      1.0  0.90683  0.55526  0.75229  1.0000
  N   N60       1.0  0.69576  0.59575  0.86746  1.0000
  S   S234      1.0  0.86265  0.71308  0.19266  1.0000
  C   C688      1.0  0.88026  0.70788  0.36312  1.0000
  H   H690      1.0  0.90862  0.65831  0.90406  1.0000
  H   H691      1.0  0.66586  0.60016  0.60612  1.0000
  H   H692      1.0  0.85318  0.51418  0.77821  1.0000
  H   H693      1.0  0.87918  0.59751  0.51069  1.0000
  C   C689      1.0  0.85017  0.52368  0.71246  1.0000
  H   H694      1.0  0.78460  0.50337  0.78676  1.0000
  C   C690      1.0  0.98374  0.60984  0.51981  1.0000
  C   C691      1.0  0.90303  0.52185  0.74300  1.0000
  C   C692      1.0  0.94027  0.66913  0.31345  1.0000
  C   C693      1.0  0.97671  0.65827  0.56691  1.0000
  C   C694      1.0  0.87540  0.53269  0.85509  1.0000
  H   H695      1.0  0.72668  0.58348  0.84728  1.0000
  C   C695      1.0  0.66827  0.61056  0.70755  1.0000
  C   C696      1.0  0.90636  0.64536  0.85067  1.0000
  H   H696      1.0  0.94610  0.62213  0.38475  1.0000
  C   C697      1.0  0.96357  0.61832  0.51633  1.0000
  H   H697      1.0  0.72242  0.60239  0.88135  1.0000
  H   H698      1.0  0.93681  0.61459  0.96184  1.0000
  C   C698      1.0  0.67899  0.57469  0.64774  1.0000
  H   H699      1.0  0.89563  0.70418  0.41639  1.0000
  H   H700      1.0  0.90324  0.51661  0.77661  1.0000
  C   C699      1.0  0.93256  0.67072  0.24304  1.0000
  H   H701      1.0  0.95976  0.63274  0.49731  1.0000
  C   C700      1.0  0.91115  0.64444  0.89091  1.0000
  H   H702      1.0  0.90586  0.56300  0.66924  1.0000
  S   S235      1.0  0.92096  0.71797  0.15985  1.0000
  S   S236      1.0  0.96130  0.67124  0.46165  1.0000
  C   C701      1.0  0.80794  0.54053  0.94566  1.0000
  H   H703      1.0  0.80727  0.56762  0.78077  1.0000
  C   C702      1.0  0.96083  0.66723  0.29578  1.0000
  C   C703      1.0  0.92248  0.62537  0.95675  1.0000
  Fe  Fe117     1.0  0.97895  0.69565  0.43581  1.0000
  Fe  Fe118     1.0  0.93643  0.68864  0.13735  1.0000
  C   C704      1.0  0.85709  0.50996  0.90665  1.0000
  C   C705      1.0  0.81888  0.56228  0.87951  1.0000
  C   C706      1.0  0.95326  0.66836  0.22579  1.0000
  C   C707      1.0  0.91638  0.60915  0.85741  1.0000
  H   H704      1.0  0.91343  0.54727  0.78090  1.0000
  H   H705      1.0  0.69429  0.57733  0.63645  1.0000
  H   H706      1.0  0.96276  0.72304  0.10575  1.0000
  Fe  Fe119     1.0  0.96048  0.67044  0.39349  1.0000
  H   H707      1.0  0.90094  0.54035  0.62382  1.0000
  C   C708      1.0  0.93571  0.73217  0.43869  1.0000
  H   H708      1.0  0.69841  0.62624  0.84327  1.0000
  H   H709      1.0  0.98891  0.70332  0.18378  1.0000
  C   C709      1.0  0.86332  0.71808  0.34494  1.0000
  H   H710      1.0  0.86673  0.50696  0.84052  1.0000
  H   H711      1.0  0.85043  0.51629  0.97109  1.0000
  H   H712      1.0  0.71788  0.57763  0.90359  1.0000
  S   S237      1.0  0.85100  0.49936  0.70357  1.0000
  C   C710      1.0  0.90168  0.53491  0.65721  1.0000
  C   C711      1.0  0.76901  0.50584  0.80249  1.0000
  H   H713      1.0  0.98976  0.73022  0.27272  1.0000
  H   H714      1.0  0.80484  0.52987  0.61359  1.0000
  H   H715      1.0  0.92629  0.73353  0.32007  1.0000
  C   C712      1.0  0.90019  0.50866  0.71803  1.0000
  H   H716      1.0  0.86975  0.72994  0.45214  1.0000
  H   H717      1.0  0.66335  0.63669  0.82805  1.0000
  C   C713      1.0  0.76697  0.48914  0.72000  1.0000
  C   C714      1.0  0.97530  0.72745  0.26957  1.0000
  S   S238      1.0  0.82046  0.49474  0.81862  1.0000
  S   S239      1.0  0.98931  0.64737  0.38378  1.0000
  C   C715      1.0  0.84895  0.73254  0.36585  1.0000
  C   C716      1.0  0.76078  0.48968  0.82710  1.0000
  Fe  Fe120     1.0  0.92517  0.73041  0.09038  1.0000
  C   C717      1.0  0.99232  0.73000  0.09698  1.0000
  H   H718      1.0  0.82401  0.73104  0.23393  1.0000
  C   C718      1.0  0.98853  0.59088  0.54424  1.0000
  C   C719      1.0  0.85545  0.73322  0.22198  1.0000
  H   H719      1.0  0.89657  0.50538  0.65562  1.0000
  Fe  Fe121     1.0  0.99167  0.65051  0.44979  1.0000
  H   H720      1.0  0.89785  0.49361  0.73230  1.0000
  S   S240      1.0  0.84427  0.48981  0.91912  1.0000
  H   H721      1.0  0.99167  0.64869  0.56185  1.0000
  C   C720      1.0  0.97183  0.73434  0.09304  1.0000
  C   C721      1.0  0.80144  0.49214  0.68918  1.0000
  C   C722      1.0  0.99217  0.71140  0.20723  1.0000
  Fe  Fe122     1.0  0.96965  0.89915  0.30797  1.0000
  C   C723      1.0  0.86325  0.75872  0.25487  1.0000
  H   H722      1.0  0.82374  0.74607  0.44375  1.0000
  C   C724      1.0  0.94148  0.82357  0.19284  1.0000
  Fe  Fe123     1.0  0.95602  0.93388  0.35860  1.0000
  H   H723      1.0  0.90714  0.76258  0.52966  1.0000
  S   S241      1.0  0.93213  0.94889  0.40725  1.0000
  H   H724      1.0  0.90226  0.80344  0.11674  1.0000
  H   H725      1.0  0.88548  0.73892  0.21618  1.0000
  H   H726      1.0  0.95240  0.76155  0.20283  1.0000
  S   S242      1.0  0.94908  0.92929  0.29704  1.0000
  C   C725      1.0  0.86964  0.74327  0.22942  1.0000
  S   S243      1.0  0.85130  0.80565  0.38924  1.0000
  Fe  Fe124     1.0  0.87467  0.82386  0.35459  1.0000
  S   S244      1.0  0.87511  0.85592  0.35754  1.0000
  C   C726      1.0  0.94419  0.79750  0.25454  1.0000
  C   C727      1.0  0.92098  0.76890  0.19548  1.0000
  C   C728      1.0  0.93929  0.86746  0.30833  1.0000
  C   C729      1.0  0.92498  0.88083  0.33214  1.0000
  C   C730      1.0  0.90510  0.87756  0.34619  1.0000
  C   C731      1.0  0.89953  0.86082  0.33685  1.0000
  C   C732      1.0  0.91385  0.84756  0.31267  1.0000
  C   C733      1.0  0.93366  0.85090  0.29833  1.0000
  H   H727      1.0  0.92924  0.89357  0.34024  1.0000
  H   H728      1.0  0.89410  0.88782  0.36496  1.0000
  H   H729      1.0  0.90968  0.83469  0.30498  1.0000
  H   H730      1.0  0.94463  0.84054  0.27977  1.0000
  H   H731      1.0  0.93261  0.83303  0.16995  1.0000
  H   H732      1.0  0.95562  0.81112  0.08403  1.0000
  H   H733      1.0  0.97423  0.78615  0.26892  1.0000
  C   C734      1.0  0.94107  0.96486  0.43154  1.0000
  C   C735      1.0  0.91327  0.79430  0.13571  1.0000
  H   H734      1.0  0.96737  0.87154  0.15726  1.0000
  N   N61       1.0  0.93319  0.79596  0.12493  1.0000
  S   S245      1.0  0.97367  0.90247  0.37280  1.0000
  H   H735      1.0  0.97268  0.95362  0.40956  1.0000
  C   C736      1.0  0.98065  0.80148  0.33982  1.0000
  Fe  Fe125     1.0  0.85847  0.79148  0.32962  1.0000
  H   H736      1.0  0.93641  0.80672  0.05878  1.0000
  S   S246      1.0  0.93466  0.77824  0.29023  1.0000
  S   S247      1.0  0.83404  0.78265  0.30582  1.0000
  S   S248      1.0  0.97576  0.82966  0.13520  1.0000
  C   C737      1.0  0.93925  0.81070  0.08828  1.0000
  S   S249      1.0  0.88319  0.76666  0.35113  1.0000
  S   S250      1.0  0.93742  0.75878  0.06849  1.0000
  S   S251      1.0  0.87913  0.81203  0.29288  1.0000
  C   C738      1.0  0.96255  0.82171  0.18544  1.0000
  H   H737      1.0  0.91616  0.81182  0.23207  1.0000
  C   C739      1.0  0.94135  0.77033  0.18364  1.0000
  H   H738      1.0  0.84338  0.75942  0.44454  1.0000
  C   C740      1.0  0.90684  0.78080  0.17118  1.0000
  H   H739      1.0  0.97141  0.85739  0.20823  1.0000
  S   S252      1.0  0.87962  0.76451  0.47282  1.0000
  C   C741      1.0  0.96873  0.97755  0.44561  1.0000
  H   H740      1.0  0.93058  0.82605  0.09291  1.0000
  C   C742      1.0  0.93572  0.74524  0.50271  1.0000
  C   C743      1.0  0.91537  0.74173  0.43926  1.0000
  H   H741      1.0  0.96957  0.88432  0.19893  1.0000
  H   H742      1.0  0.89099  0.77967  0.17985  1.0000
  N   N62       1.0  0.95085  0.81305  0.38926  1.0000
  C   C744      1.0  0.94868  0.79356  0.40402  1.0000
  C   C745      1.0  0.96654  0.81712  0.35745  1.0000
  C   C746      1.0  0.96253  0.77755  0.38710  1.0000
  C   C747      1.0  0.97380  0.80983  0.21558  1.0000
  H   H743      1.0  0.96076  0.76214  0.39879  1.0000
  C   C748      1.0  0.93601  0.82955  0.40732  1.0000
  H   H744      1.0  0.93610  0.79029  0.42886  1.0000
  H   H745      1.0  0.96821  0.83252  0.34535  1.0000
  C   C749      1.0  0.83658  0.75260  0.42399  1.0000
  S   S253      1.0  0.98083  0.96562  0.21307  1.0000
  C   C750      1.0  0.97858  0.78160  0.35480  1.0000
  H   H746      1.0  0.92119  0.83104  0.39728  1.0000
  H   H747      1.0  0.93384  0.82667  0.44265  1.0000
  H   H748      1.0  0.94081  0.84429  0.39640  1.0000
  C   C751      1.0  0.96182  0.96452  0.42646  1.0000
  C   C752      1.0  0.97505  0.76791  0.05758  1.0000
  Fe  Fe126     1.0  0.90310  0.78857  0.32079  1.0000
  Fe  Fe127     1.0  0.87769  0.78219  0.40796  1.0000
  H   H749      1.0  0.91608  0.75888  0.22383  1.0000
  S   S254      1.0  0.96459  0.87047  0.29287  1.0000
  C   C753      1.0  0.90499  0.75247  0.47236  1.0000
  C   C754      1.0  0.93220  0.81151  0.22797  1.0000
  S   S255      1.0  0.90023  0.80163  0.37962  1.0000
  C   C755      1.0  0.94723  0.78405  0.14809  1.0000
  C   C756      1.0  0.96486  0.79706  0.24891  1.0000
  C   C757      1.0  0.96317  0.75326  0.07300  1.0000
  H   H750      1.0  0.87415  0.76634  0.26118  1.0000
  S   S256      1.0  0.98316  0.94739  0.32840  1.0000
  C   C758      1.0  0.96880  0.95039  0.53717  1.0000
  Fe  Fe128     1.0  0.97772  0.94055  0.26791  1.0000
  C   C759      1.0  0.84265  0.76434  0.27193  1.0000
  H   H751      1.0  0.98928  0.76940  0.34088  1.0000
  H   H752      1.0  0.83582  0.74046  0.35159  1.0000
  C   C760      1.0  0.82859  0.75443  0.26392  1.0000
  H   H753      1.0  0.83065  0.76516  0.39980  1.0000
  C   C761      1.0  0.96366  0.92505  0.50081  1.0000
  H   H754      1.0  0.93958  0.94349  0.53854  1.0000
  C   C762      1.0  0.95579  0.93970  0.52740  1.0000
  H   H755      1.0  0.81269  0.75869  0.27716  1.0000
  H   H756      1.0  0.95938  0.74034  0.32573  1.0000
  H   H757      1.0  0.96864  0.78238  0.04109  1.0000
  H   H758      1.0  0.99292  0.80475  0.31418  1.0000
  C   C763      1.0  0.92722  0.97820  0.45610  1.0000
  H   H759      1.0  0.96239  0.96255  0.55582  1.0000
  C   C764      1.0  0.94378  0.98410  0.25181  1.0000
  H   H760      1.0  0.99069  0.91004  0.46335  1.0000
  H   H761      1.0  0.91115  0.97844  0.46036  1.0000
  H   H762      1.0  0.96301  0.78544  0.13971  1.0000
  H   H763      1.0  0.95358  0.91738  0.49126  1.0000
  C   C765      1.0  0.97540  0.87034  0.18428  1.0000
  C   C766      1.0  0.91511  0.75406  0.50433  1.0000
  H   H764      1.0  0.94078  0.96921  0.26317  1.0000
  N   N63       1.0  0.98911  0.94649  0.52109  1.0000
  C   C767      1.0  0.83500  0.73878  0.23950  1.0000
  H   H765      1.0  0.98482  0.97705  0.44188  1.0000
  C   C768      1.0  0.98442  0.92103  0.48493  1.0000
  H   H766      1.0  0.90769  0.74066  0.41424  1.0000
  H   H767      1.0  0.94366  0.74693  0.52688  1.0000
  H   H768      1.0  0.98981  0.80922  0.21161  1.0000
  N   N64       1.0  0.85159  0.73701  0.40333  1.0000
