data_image0
_chemical_formula_structural       SH3CH5SNHC3FeS2FeSCFeSFeS3FeS2FeSHFeSFeS3HCHNH2C2SCNHNC2H3C2HCH3C7H4C2HNC2H2C4HCH2CH4C2H2CHC2S2C2H3C3HC2H2CHC6H6CH2NHC3HC2HC3H2CHCHC3Fe2C2H4C2H2SC2HFeSCFeS2FeSFeS3FeS2FeSFeSFeS3FeS2FeS2FeSHS2FeS2CSHFeSFeH2SC5H3C2HC6H4C2HC6H4C4H3C6H4SCSH5C7H2CFeH2CH2CNHC2HC3NSNH6C3NC3SHC2H2CH5CH2CHCHFe2H3C4SCHC2H2CNHCHC2HCH2CSH3CHC2S2CHFeSHNH2CS2CSFeH2CHC7H2CHCH2NC7HCH4CHC2H3FeC2HC2NC5H2CSH5NC3HC3HSH4SH4SH6C2HCH4NHFeS2FeSHSHFeS2FeCSFeH3S2FeSHFeS2FeSFeS3FeS2FeS2FeSFeS3HC3SHCH2CHCHSHC3H2C4H3C6H4C4NH2C6H2CH2C2H2C6H4C2H2NCH3FeHNC3H2CHFeHSH2SHFeCNCHCHCH6NC6H4SH3C3HC2HC3HC6HSNC2H4CH4C2HSFeCH3CHCSH2NCHC3HNC2SHCH2CNHC8H3SCH2C2H3C3H2CHC2HCH5C3HFeH5CH2CH2CHC2HSC2FeS2FeH2C6H7SFeS2FeS2FeSFeS3FeSFeSHFeSFeS3C4SNH2NC3HC6H4C6H3C2H7CSC2HCHCHC3SNHCH2SHC2H2CHNCHCH2CH2SCHC2H2FeCHSCFeH2CSC4FeCHCHC2H2CH2C3H4CH7C4NC2HSH2CHNH3SHCNHSCHCHC2HCHCH5CH2FeS2FeS2Fe2S3HSCFeHSFeS2FeS2FeS2Fe2S3HC3HCFeS2FeS2FeCFeS3HSHC2SC4SCH2C3SC3HCHCH2C3H3C6H4C3H2CSC7HC6H4C2H3CH2CSC3NHCH3NHSH3SH2FeCH3NC6H8NC5H4NH3C3HCH3CS2C6H2CHC2H2CHSHNC6H4CH4FeHSC5HCHNFeH2CH3SC2H4SCH2CNH2SCNC3FeCH3FeCHC2H3SFeC2HC2H2CH2CNH5CH7CH3C2FeCHNHCHCHCH2C2SCHC2HCHCSCFeSCFeSFeS3HC2SHCFeHCH2CHFeS2FeS2FeSFeCS2FeS4CFeCSH2CSCHC3H2FeC3HSCH2FeH3CHCH2C2H3CH2CHFeHSC3H5NSC2HC2H3FeSHC6H5CH4NC4HC3H3CHCFeHCHC5HCSCHCSNCHCHC2HC3HC2H2CH3SH2FeH2FeC3H2NHS2H2CNCSHSCHCHCSH2C2NCHCHCHCHCH2CH3C3HNC2H2FeHSCS2HC3SNFeC2H2S2CH2Fe2S2FeS2FeSFeS3HC3H5CHC3HCH2CHCSHCSHC6H4CH2C6H4C4FeSH3CH2C3HC2HC2HC3HSCH2FeNSC3H4C2SCFeC2H4SH4FeCSCFeCHC2SHC2SN2H3NCHCHC2HNH3FeC2HC2NCSH2CHCH3CSNCHNH3SHCHCHCHC2H2C4HCH4C2H3SCH2CSCHC3HC2H2CH3CSHC3HC4HCHCS3Fe2SCS3FeSFeSFeCSFeS2HCFeS2FeS2FeSFeCS2C2H4C4HC6H4C3HSHC2SHSHSCHC6H5NHC6H6SCHS2C2FeH2FeH3N2H2FeCHCSFeS2H4NC6H8NCH2C4H3CH3NC6H3SCHCSHCHFeC7H3CH2FeNHCHFe2HFeHCH3C2SCS2C2FeH6C4HCH3CH3SHCHC2HS2NCH2FeS2FeS2FeSFeS3FeSFeS2FeS4FeS2FeS2FeSFeS3FeCSFeCFeSHSNFeSHFeS2FeCHFeS2H5CH3CSH2C6H5CHC4H2C7H5C2H4C6H4C6H4C6H4C2HC2HCH3FeCNCHNH2CH4CHCHCS2C2H4CHCH2C2NCHNH2C4HSNC6H4CH3NC6H8N2C5H3CHCHC4NHCH2CHC2SH5C3H3C2HCH2SH4CH3CHSCHC4HCHCHSH4C2HNSH3FeS2FeS2FeSFeS3FeS2CFeSCSCHC2HCNC2HC6H10CHC8H5C2HC4SCH2NCHC4HSCHCHC6SH2FeH2C8H6CHCFeHSC2H2C2FeH3NHCHCH2C3H5C2HFeCFeHSH2NCH2CHCS2NC3H2CHC2HNH4C2SC2H2S2C2HCSHSCHFeSC2FeSFeNFeCSCFeS2H2Fe2S2FeSCFeSHFeSFeS2CFeC4SHFeHC3H3SHC6H4CSCHCH4CSH3NH2FeC3H2C6H4CHC7NCH2CNHCH2CHCH2SC2HSH2SH3NFeCHC3HC3SCH3C2HCSCH5CFeH5SC2SHSH2CHC2SHCNSC2H2NH3CHCH2C2H2FeS2FeS2FeSFeS3FeS2FeS2FeSFeS3FeHSFeS2HFeS3FeS2C2H3FeSCSHC2HCH4CHC2HC2FeCH2CHC8H4C6H4C5HCHC7H4C6H5CHCH2CH2C3HCH4C3H4CH3C4H2CNSCHC2NHCHC3NHCH2SCFeCNCH3CH2CSCSH4NC6H4CH3NC7H2CH2CH3C2H2C3H4CFeSFeS2FeSFeS3HFeHFeCSFeSHSFeS2FeS2FeSFeS3HCSFeCSFeHCHFeCS2H3C6H4NC4NC6H4C6H2CHC6H4C5NH2C4SCH4C3H6CH4C4SH3C3H3FeNC6H8SCH2CFeHCHCH2NC2HSHFeHCNHSCNC6H3CSC3H2SCHCH4SH2CH3CH2SH2CH4SHSCSFeHSCNH4C2NCHCHSH3FeC3H2SHCHCHC2HFeS2FeSCFeSFeS3FeS2FeSHFeSFeNS2H2CHC6H6C3HCH4CSCH2SCHCHC3NC3HC8HC2NC5HCHCH2SH2CHCHC3HCH3CHCH4NHCH3CH2CH2C2H4CHC3H3NCSHFeSC3HSHNC3SH3C2FeSHFeS2FeSFeS3FeS2FeS2FeSFeS2C3H4SHC3H2CHCHC6H5C5H2C4HC5HC2HC2H4C2H2CH2CHC3HC2H2CHC3HCSH2C2NC6HCH6CHCS2C3HCH4C2H5CH3CNC2NHC3H4CH4NHCSCNH2FeSHCFeS2FeSNSC2FeS2FeS2FeSFeS3FeS2FeS2FeSFeS3HSCFeSH2SCFeSFeS3C6H2NHC6H4C2HC2HC6H3C6H4C6H4C2HC3HC6H4CSHC2H5CHCFeCHFeH2CHC3H2NCH2C3H2CH2CHC2HCH3NC2H6CHC2H2CHC3SCHC2H2CFeHC2HSCHCNH2C3HCH2CHCH3CHSC2H2C3H3C5FeHSCH4NHNH3CNSHCH3C2HCH2FeNCH2C2HFeHC2FeS2FeS2FeSFeS4CHNC4HFeS2FeSCFeSFeS3Fe2S2C3HCH2CHC6H4C3HCH4CH2CH2C8H4C4HCH7C2HC3S2H2CSHCSHCHCH3C2HSHCNHCHCHC2HCHCFeCH2C2HC4H2CNC3H3CH4CH2CH3NHCH2SCHCHCHC2SCHCHCHCH2C2NHC2HCHC2HFeSNFeS2FeSFeHSCFeSHFeSHFeSFeS3FeS2FeSFeS2FeS2FeS2FeHFeCS3H3FeSCH2C5H2C6H4C6H5C3H3SHC2HCNHC4H3C6H5SC2HCH3CNH2C2HCH2C3SCH2CHCHSH2SHCHC2SNCH5CSCSH2C3HCNSCSFeC2HCFeCHCHCHCHCHCNHC2NSC2H2CHCH5CH3SCNH4CHSNC2H3CHC2H2SNCHCH2CH2C3H2CHFeH3C4H3C2HC3HC3FeCHC3H4C3HCH4FeS2FeSCFeSFeNS2CH3SH2C3HNCH2CHFeSHSHFeS2FeS2FeS2Fe2S6HFeS2FeCSFeSHS2C4HC2FeH3C7H4C6H4CH3CH2C6H5CHC5HSCHCH2FeH3CSHC8H2C6H10C2HCNH3CH2C3HSC2HSH2CHCHCSH2CFeH2C3NHNC6H8C2HCHC2NC6HFeCFe2HCSH2SCH2CH5FeHSH2FeHC2SCHCHNC3SC2H5C3NC2H3CHCH2SCH2CHCSHNC2FeS2FeSHFeSFeCS3HFeSHCSHNHCHFe2SHCNSHSFeSFe2S2FeSFeS2FeH3C3HC2HNHCHC8H5C4HC6H4SC6H4C6H8CNH2CSHSHSHCHFeCHCH2SH2NC6H8CH3CHNSCHCSC5H3SFeH4NHCSCHCH3C3SHCSCSCS2H2C3H2C2SHC4FeHCNC2HSHC2H2CHC3HCFeCHFeC3NH2CHC2HC2H3CSHSHC2H2C2H2SHC3H2C2HSCHC2NHC2HFeSC2NFeSH2FeS2FeSCFeSFeS3FeS2FeSHFeSFeS3CSHFeSFeSH4CHCNHCHC4SH2C6H4C7H4C2H3SCH2SH3SH2C4HC4HCH2C8H3CH3SHCH2C3FeC2H3CH2C2FeHC2SCH3C2NHC4HSHCNC4HCHNC6H3FeH3CSH2SH3CHCSCHCNSC2H3C2HSCS2CH2CHCHFeHCSH2CH4NHFeS2FeS2FeSFeS3FeSCFeS2FeS2FeSFeS3FeS3CHFeSHSHFeHFeS2FeCHS3CHFeHC4SH4C2HSH3C7H4CSCH2SCHC7H4C6H4C6H4C6H4C2SH2CSH4NC4NCH5CHCNC6H2CH6C2NCHFeHC4HSH3NH3CHCH2FeHCNCHCH3CHC2HSHCHFeH3FeCH4C3H3C3HCHNC2NHCHCH2FeC4H2CSHC6H4C2HC2NHCHCSCHCH3SCHSH2SFeS2FeS2FeSFeHS2HFeS2FeSHFeSFeS3FeS2FeSCFe2S4NHCNHFeNC2H2CHCHCHCSHSHC6H4C4H2C6H4C6H4CH2C2H2C4HCH4C2H2C3NC6H8NC2HC3H2CSCH2Fe2H3C2SCHSHCHCHC4HC2H2SHC3SH2C2H2SC2HSH3C2H2C2HFeCH2C2H3CH2CH2SCH3SCH2FeCSH3CNHCHCSNCFeSH2SH4NHC2HC2H2CHC2H2NCHCH4CHCSNHCSH2SHFeSFeSHCFeS2FeS2FeSFeS3FeS2FeSNFeSFeHS2HC4HNHC5HCH8C7H4C6H4C2HNH4CH2CHCSHFeC2HC12H5CNHSC2H2CH2CHCH2C3NCH4NH2C2H2C4HC2H4CHC3HC3H4C2H2C2HCHCSHCH3SCHC2HCH2CH
_chemical_formula_sum              "S768 H2304 C2304 N192 Fe384"
_cell_length_a       69.152
_cell_length_b       69.2415
_cell_length_c       75.1071
_cell_angle_alpha    73.9907
_cell_angle_beta     73.9244
_cell_angle_gamma    74.5864

_space_group_name_H-M_alt    "P 1"
_space_group_IT_number       1

loop_
  _space_group_symop_operation_xyz
  'x, y, z'

loop_
  _atom_site_type_symbol
  _atom_site_label
  _atom_site_symmetry_multiplicity
  _atom_site_fract_x
  _atom_site_fract_y
  _atom_site_fract_z
  _atom_site_occupancy
  S   S1        1.0  0.02430  0.02307  0.20382  1.0000
  H   H1        1.0  0.13551  0.24358  0.13248  1.0000
  H   H2        1.0  0.45904  0.10210  0.20587  1.0000
  H   H3        1.0  0.13598  0.20080  0.15700  1.0000
  C   C1        1.0  0.19103  0.18506  0.04169  1.0000
  H   H4        1.0  0.14152  0.20599  0.00604  1.0000
  H   H5        1.0  0.42274  0.09871  0.21330  1.0000
  H   H6        1.0  0.40532  0.06102  0.18938  1.0000
  H   H7        1.0  0.30920  0.29494  0.05947  1.0000
  H   H8        1.0  0.11438  0.19497  0.03404  1.0000
  S   S2        1.0  0.03710  0.99992  0.15838  1.0000
  N   N1        1.0  0.99791  0.06984  0.17337  1.0000
  H   H9        1.0  0.15677  0.24693  0.00360  1.0000
  C   C2        1.0  0.41683  0.03090  0.21715  1.0000
  C   C3        1.0  0.99853  0.14342  0.13435  1.0000
  C   C4        1.0  0.48895  0.03266  0.15246  1.0000
  Fe  Fe1       1.0  0.16089  0.27370  0.04565  1.0000
  S   S3        1.0  0.17507  0.26198  0.07108  1.0000
  S   S4        1.0  0.13759  0.30286  0.04163  1.0000
  Fe  Fe2       1.0  0.18981  0.24247  0.02409  1.0000
  S   S5        1.0  0.20683  0.22818  0.04749  1.0000
  C   C5        1.0  0.29256  0.27622  0.05320  1.0000
  Fe  Fe3       1.0  0.17524  0.23101  0.06673  1.0000
  S   S6        1.0  0.16787  0.20414  0.09072  1.0000
  Fe  Fe4       1.0  0.20502  0.26042  0.04949  1.0000
  S   S7        1.0  0.23260  0.27370  0.04620  1.0000
  S   S8        1.0  0.15839  0.24299  0.04299  1.0000
  S   S9        1.0  0.19067  0.27416  0.02447  1.0000
  Fe  Fe5       1.0  0.06911  0.16058  0.13836  1.0000
  S   S10       1.0  0.08849  0.14309  0.15949  1.0000
  S   S11       1.0  0.07986  0.18221  0.11074  1.0000
  Fe  Fe6       1.0  0.03003  0.14714  0.16408  1.0000
  S   S12       1.0  0.04608  0.12950  0.18764  1.0000
  H   H10       1.0  0.12040  0.11277  0.21992  1.0000
  Fe  Fe7       1.0  0.06172  0.15586  0.18064  1.0000
  S   S13       1.0  0.06468  0.17028  0.20283  1.0000
  Fe  Fe8       1.0  0.07105  0.11815  0.16448  1.0000
  S   S14       1.0  0.08538  0.08444  0.16807  1.0000
  S   S15       1.0  0.04312  0.17491  0.15939  1.0000
  S   S16       1.0  0.05425  0.13429  0.14111  1.0000
  H   H11       1.0  0.02591  0.16093  0.22255  1.0000
  C   C6        1.0  0.00933  0.16555  0.22654  1.0000
  H   H12       1.0  0.10021  0.23695  0.11687  1.0000
  N   N2        1.0  0.28824  0.28448  0.02108  1.0000
  H   H13       1.0  0.07178  0.08986  0.20888  1.0000
  H   H14       1.0  0.00403  0.15509  0.20425  1.0000
  C   C7        1.0  0.28503  0.27271  0.03915  1.0000
  C   C8        1.0  0.00266  0.08838  0.17142  1.0000
  S   S17       1.0  0.20118  0.23290  0.99612  1.0000
  C   C9        1.0  0.46215  0.09172  0.23493  1.0000
  N   N3        1.0  0.09374  0.07053  0.22465  1.0000
  H   H15       1.0  0.30160  0.30913  0.00221  1.0000
  N   N4        1.0  0.42504  0.04803  0.20890  1.0000
  C   C10       1.0  0.17025  0.31837  0.04128  1.0000
  C   C11       1.0  0.45355  0.03279  0.22408  1.0000
  H   H16       1.0  0.40241  0.03007  0.21462  1.0000
  H   H17       1.0  0.13606  0.23710  0.11059  1.0000
  H   H18       1.0  0.12344  0.17875  0.06541  1.0000
  C   C12       1.0  0.45268  0.03255  0.16439  1.0000
  C   C13       1.0  0.29930  0.29956  0.01643  1.0000
  H   H19       1.0  0.99983  0.14090  0.10603  1.0000
  C   C14       1.0  0.14521  0.19905  0.01986  1.0000
  H   H20       1.0  0.02418  0.10823  0.15737  1.0000
  H   H21       1.0  0.43724  0.04028  0.16978  1.0000
  H   H22       1.0  0.11034  0.06631  0.19720  1.0000
  C   C15       1.0  0.10907  0.12579  0.22411  1.0000
  C   C16       1.0  0.10423  0.18833  0.10572  1.0000
  C   C17       1.0  0.11940  0.17632  0.11547  1.0000
  C   C18       1.0  0.13883  0.18141  0.11083  1.0000
  C   C19       1.0  0.14315  0.19860  0.09652  1.0000
  C   C20       1.0  0.12787  0.21084  0.08701  1.0000
  C   C21       1.0  0.10852  0.20562  0.09150  1.0000
  H   H23       1.0  0.11632  0.16289  0.12633  1.0000
  H   H24       1.0  0.15060  0.17186  0.11824  1.0000
  H   H25       1.0  0.13092  0.22425  0.07612  1.0000
  H   H26       1.0  0.09680  0.21503  0.08396  1.0000
  C   C22       1.0  0.21593  0.30670  0.08716  1.0000
  C   C23       1.0  0.10183  0.22527  0.12970  1.0000
  H   H27       1.0  0.00756  0.00103  0.10568  1.0000
  N   N5        1.0  0.11977  0.21988  0.13591  1.0000
  C   C24       1.0  0.13510  0.18377  0.05314  1.0000
  C   C25       1.0  0.08551  0.21538  0.13948  1.0000
  H   H28       1.0  0.46778  0.03389  0.22676  1.0000
  H   H29       1.0  0.19941  0.16915  0.04085  1.0000
  C   C26       1.0  0.24366  0.31953  0.06303  1.0000
  C   C27       1.0  0.24326  0.30631  0.05206  1.0000
  C   C28       1.0  0.22985  0.29258  0.05888  1.0000
  C   C29       1.0  0.21578  0.29315  0.07627  1.0000
  H   H30       1.0  0.20539  0.30680  0.10082  1.0000
  C   C30       1.0  0.30720  0.30339  0.03010  1.0000
  H   H31       1.0  0.25352  0.30668  0.03832  1.0000
  H   H32       1.0  0.20531  0.28267  0.08163  1.0000
  C   C31       1.0  0.46906  0.04264  0.15976  1.0000
  H   H33       1.0  0.07493  0.19253  0.16369  1.0000
  H   H34       1.0  0.10722  0.18311  0.17505  1.0000
  H   H35       1.0  0.15177  0.22018  0.12599  1.0000
  H   H36       1.0  0.36421  0.02065  0.22986  1.0000
  C   C32       1.0  0.15527  0.18143  0.05490  1.0000
  C   C33       1.0  0.44323  0.04907  0.21211  1.0000
  H   H37       1.0  0.01219  0.14983  0.13016  1.0000
  H   H38       1.0  0.19105  0.18788  0.05558  1.0000
  C   C34       1.0  0.10249  0.05745  0.21080  1.0000
  H   H39       1.0  0.28924  0.26740  0.06768  1.0000
  C   C35       1.0  0.08748  0.20022  0.15590  1.0000
  C   C36       1.0  0.12181  0.20501  0.15202  1.0000
  S   S18       1.0  0.49305  0.10363  0.17426  1.0000
  S   S19       1.0  0.46452  0.06764  0.16321  1.0000
  C   C37       1.0  0.45149  0.09670  0.22037  1.0000
  C   C38       1.0  0.30364  0.29174  0.04863  1.0000
  H   H40       1.0  0.04735  0.08368  0.13812  1.0000
  H   H41       1.0  0.17687  0.30307  0.04798  1.0000
  H   H42       1.0  0.07156  0.21912  0.13417  1.0000
  C   C39       1.0  0.37290  0.00699  0.23744  1.0000
  C   C40       1.0  0.08129  0.15479  0.21751  1.0000
  C   C41       1.0  0.09599  0.13798  0.21207  1.0000
  H   H43       1.0  0.44356  0.00460  0.16591  1.0000
  C   C42       1.0  0.10570  0.19495  0.16226  1.0000
  C   C43       1.0  0.16526  0.19629  0.02212  1.0000
  H   H44       1.0  0.40222  0.07530  0.20728  1.0000
  H   H45       1.0  0.09734  0.13439  0.19861  1.0000
  C   C44       1.0  0.07774  0.08669  0.22154  1.0000
  H   H46       1.0  0.27643  0.26624  0.00951  1.0000
  C   C45       1.0  0.04156  0.03980  0.19414  1.0000
  C   C46       1.0  0.03606  0.05934  0.19823  1.0000
  C   C47       1.0  0.04926  0.07323  0.19002  1.0000
  C   C48       1.0  0.06821  0.06754  0.17796  1.0000
  C   C49       1.0  0.07388  0.04782  0.17421  1.0000
  C   C50       1.0  0.06047  0.03405  0.18208  1.0000
  H   H47       1.0  0.02133  0.06398  0.20732  1.0000
  H   H48       1.0  0.04467  0.08832  0.19305  1.0000
  H   H49       1.0  0.08857  0.04325  0.16498  1.0000
  H   H50       1.0  0.06483  0.01896  0.17888  1.0000
  H   H51       1.0  0.03827  0.05017  0.14148  1.0000
  H   H52       1.0  0.15908  0.17452  0.06867  1.0000
  C   C51       1.0  0.13654  0.23078  0.12582  1.0000
  H   H53       1.0  0.11374  0.04364  0.21588  1.0000
  H   H54       1.0  0.26236  0.29226  0.00876  1.0000
  N   N6        1.0  0.16994  0.18798  0.03956  1.0000
  H   H55       1.0  0.00646  0.04169  0.16408  1.0000
  C   C52       1.0  0.02038  0.09366  0.15861  1.0000
  C   C53       1.0  0.47614  0.00248  0.15468  1.0000
  C   C54       1.0  0.13003  0.19283  0.03553  1.0000
  H   H56       1.0  0.05659  0.11250  0.23182  1.0000
  C   C55       1.0  0.41353  0.06588  0.19765  1.0000
  C   C56       1.0  0.45626  0.01235  0.16217  1.0000
  H   H57       1.0  0.44984  0.06257  0.20542  1.0000
  C   C57       1.0  0.01023  0.05639  0.16250  1.0000
  C   C58       1.0  0.23022  0.31956  0.08071  1.0000
  C   C59       1.0  0.43092  0.09479  0.22459  1.0000
  H   H58       1.0  0.27576  0.26114  0.04302  1.0000
  H   H59       1.0  0.42396  0.07558  0.18726  1.0000
  C   C60       1.0  0.02820  0.06112  0.14966  1.0000
  H   H60       1.0  0.09012  0.05205  0.20791  1.0000
  C   C61       1.0  0.27803  0.28235  0.00722  1.0000
  H   H61       1.0  0.19952  0.19597  0.03041  1.0000
  C   C62       1.0  0.15063  0.32273  0.03751  1.0000
  C   C63       1.0  0.03329  0.07989  0.14776  1.0000
  C   C64       1.0  0.44523  0.01531  0.23263  1.0000
  Fe  Fe9       1.0  0.03233  0.99622  0.18980  1.0000
  Fe  Fe10      1.0  0.49218  0.07332  0.16941  1.0000
  C   C65       1.0  0.07975  0.15939  0.23493  1.0000
  C   C66       1.0  0.42686  0.01426  0.22903  1.0000
  H   H62       1.0  0.42026  0.00076  0.23559  1.0000
  H   H63       1.0  0.17703  0.20092  0.00984  1.0000
  H   H64       1.0  0.31556  0.31569  0.02644  1.0000
  H   H65       1.0  0.06840  0.17239  0.23918  1.0000
  C   C67       1.0  0.06909  0.09951  0.23446  1.0000
  C   C68       1.0  0.49241  0.01276  0.14955  1.0000
  H   H66       1.0  0.14904  0.31406  0.99051  1.0000
  H   H67       1.0  0.28670  0.28702  0.99241  1.0000
  S   S20       1.0  0.48838  0.09193  0.22973  1.0000
  C   C69       1.0  0.16208  0.24386  0.98951  1.0000
  C   C70       1.0  0.09240  0.14687  0.24718  1.0000
  H   H68       1.0  0.07099  0.10586  0.26045  1.0000
  Fe  Fe11      1.0  0.32358  0.11718  0.45721  1.0000
  S   S21       1.0  0.33797  0.13782  0.43097  1.0000
  C   C71       1.0  0.01987  0.00893  0.26268  1.0000
  Fe  Fe12      1.0  0.29663  0.10678  0.43708  1.0000
  S   S22       1.0  0.30789  0.12733  0.40952  1.0000
  S   S23       1.0  0.27271  0.09107  0.43637  1.0000
  Fe  Fe13      1.0  0.33891  0.11333  0.41606  1.0000
  S   S24       1.0  0.36553  0.10172  0.39373  1.0000
  Fe  Fe14      1.0  0.30562  0.14931  0.42700  1.0000
  S   S25       1.0  0.29089  0.18219  0.41856  1.0000
  S   S26       1.0  0.32773  0.09130  0.44290  1.0000
  S   S27       1.0  0.29111  0.13035  0.45402  1.0000
  Fe  Fe15      1.0  0.17227  0.19959  0.38019  1.0000
  S   S28       1.0  0.18810  0.17021  0.39639  1.0000
  S   S29       1.0  0.14318  0.20109  0.37103  1.0000
  Fe  Fe16      1.0  0.20168  0.22399  0.38386  1.0000
  S   S30       1.0  0.22001  0.19654  0.39994  1.0000
  Fe  Fe17      1.0  0.21713  0.18022  0.37916  1.0000
  S   S31       1.0  0.24382  0.15734  0.36759  1.0000
  Fe  Fe18      1.0  0.18935  0.18915  0.41572  1.0000
  S   S32       1.0  0.18401  0.17701  0.44722  1.0000
  S   S33       1.0  0.20147  0.20837  0.36125  1.0000
  S   S34       1.0  0.17088  0.21793  0.40123  1.0000
  Fe  Fe19      1.0  0.11247  0.12496  0.32407  1.0000
  S   S35       1.0  0.09815  0.14454  0.29964  1.0000
  S   S36       1.0  0.13784  0.13012  0.33506  1.0000
  Fe  Fe20      1.0  0.09458  0.08831  0.32619  1.0000
  S   S37       1.0  0.07908  0.10446  0.30215  1.0000
  S   S38       1.0  0.09169  0.05596  0.34122  1.0000
  Fe  Fe21      1.0  0.10798  0.11606  0.28787  1.0000
  S   S39       1.0  0.12221  0.11376  0.25748  1.0000
  H   H69       1.0  0.11766  0.18601  0.43728  1.0000
  S   S40       1.0  0.12449  0.09743  0.31073  1.0000
  S   S41       1.0  0.08348  0.11423  0.34139  1.0000
  Fe  Fe22      1.0  0.36939  0.04914  0.31668  1.0000
  S   S42       1.0  0.39541  0.06545  0.30307  1.0000
  S   S43       1.0  0.34264  0.06250  0.33755  1.0000
  C   C72       1.0  0.37893  0.14338  0.48916  1.0000
  S   S44       1.0  0.41518  0.02924  0.27863  1.0000
  H   H70       1.0  0.15885  0.15223  0.44174  1.0000
  Fe  Fe23      1.0  0.41536  0.03402  0.30684  1.0000
  S   S45       1.0  0.44508  0.02667  0.31605  1.0000
  Fe  Fe24      1.0  0.39284  0.05925  0.27616  1.0000
  H   H71       1.0  0.14796  0.19480  0.28956  1.0000
  H   H72       1.0  0.35053  0.32386  0.43092  1.0000
  S   S46       1.0  0.36492  0.04550  0.28936  1.0000
  C   C73       1.0  0.01075  0.13449  0.30324  1.0000
  C   C74       1.0  0.02912  0.14136  0.29942  1.0000
  C   C75       1.0  0.00578  0.12797  0.28920  1.0000
  C   C76       1.0  0.23488  0.25546  0.39858  1.0000
  C   C77       1.0  0.19428  0.20260  0.48521  1.0000
  H   H73       1.0  0.05596  0.14815  0.27826  1.0000
  H   H74       1.0  0.39570  0.31475  0.36864  1.0000
  H   H75       1.0  0.25321  0.19665  0.35509  1.0000
  C   C78       1.0  0.22199  0.28768  0.37868  1.0000
  C   C79       1.0  0.25969  0.20748  0.35849  1.0000
  H   H76       1.0  0.25632  0.25697  0.41439  1.0000
  C   C80       1.0  0.14184  0.18155  0.36071  1.0000
  C   C81       1.0  0.12328  0.18162  0.35640  1.0000
  C   C82       1.0  0.12161  0.16585  0.34874  1.0000
  C   C83       1.0  0.13855  0.14995  0.34531  1.0000
  C   C84       1.0  0.15706  0.14989  0.34967  1.0000
  C   C85       1.0  0.15872  0.16560  0.35733  1.0000
  H   H77       1.0  0.11013  0.19389  0.35906  1.0000
  H   H78       1.0  0.10726  0.16602  0.34547  1.0000
  H   H79       1.0  0.17024  0.13762  0.34708  1.0000
  H   H80       1.0  0.17306  0.16535  0.36065  1.0000
  C   C86       1.0  0.18424  0.21575  0.44957  1.0000
  C   C87       1.0  0.18694  0.19490  0.45838  1.0000
  H   H81       1.0  0.18042  0.22097  0.43578  1.0000
  C   C88       1.0  0.35921  0.09212  0.37712  1.0000
  C   C89       1.0  0.37487  0.08162  0.36473  1.0000
  C   C90       1.0  0.36999  0.07257  0.35237  1.0000
  C   C91       1.0  0.34941  0.07425  0.35222  1.0000
  C   C92       1.0  0.33382  0.08522  0.36418  1.0000
  C   C93       1.0  0.33872  0.09405  0.37660  1.0000
  H   H82       1.0  0.39079  0.07999  0.36506  1.0000
  H   H83       1.0  0.38214  0.06388  0.34337  1.0000
  H   H84       1.0  0.31787  0.08666  0.36407  1.0000
  H   H85       1.0  0.32653  0.10211  0.38588  1.0000
  C   C94       1.0  0.29546  0.19572  0.43290  1.0000
  C   C95       1.0  0.30467  0.18538  0.44829  1.0000
  C   C96       1.0  0.30959  0.19659  0.45881  1.0000
  C   C97       1.0  0.29023  0.21709  0.42863  1.0000
  H   H86       1.0  0.30832  0.16880  0.45195  1.0000
  H   H87       1.0  0.31723  0.18863  0.47037  1.0000
  H   H88       1.0  0.28277  0.22507  0.41697  1.0000
  C   C98       1.0  0.26255  0.10727  0.41726  1.0000
  C   C99       1.0  0.27312  0.10620  0.39862  1.0000
  C   C100      1.0  0.26703  0.12134  0.38331  1.0000
  C   C101      1.0  0.25046  0.13761  0.38663  1.0000
  C   C102      1.0  0.23975  0.13852  0.40527  1.0000
  C   C103      1.0  0.24580  0.12338  0.42056  1.0000
  H   H89       1.0  0.28637  0.09407  0.39600  1.0000
  H   H90       1.0  0.27542  0.12066  0.36894  1.0000
  H   H91       1.0  0.22704  0.15106  0.40800  1.0000
  H   H92       1.0  0.23788  0.12447  0.43496  1.0000
  S   S47       1.0  0.38951  0.01801  0.32317  1.0000
  C   C104      1.0  0.36501  0.12672  0.47235  1.0000
  S   S48       1.0  0.19123  0.24198  0.48857  1.0000
  H   H93       1.0  0.04583  0.04298  0.29261  1.0000
  H   H94       1.0  0.13547  0.15205  0.25494  1.0000
  H   H95       1.0  0.32074  0.03926  0.38965  1.0000
  H   H96       1.0  0.36700  0.11932  0.46083  1.0000
  H   H97       1.0  0.39541  0.13358  0.46322  1.0000
  C   C105      1.0  0.14070  0.16597  0.27524  1.0000
  C   C106      1.0  0.08455  0.01847  0.30316  1.0000
  C   C107      1.0  0.09358  0.03565  0.29509  1.0000
  C   C108      1.0  0.09506  0.04784  0.30663  1.0000
  C   C109      1.0  0.08744  0.04283  0.32626  1.0000
  C   C110      1.0  0.07791  0.02601  0.33423  1.0000
  C   C111      1.0  0.09369  0.07963  0.25332  1.0000
  H   H98       1.0  0.09992  0.03916  0.28000  1.0000
  H   H99       1.0  0.10274  0.06063  0.30047  1.0000
  C   C112      1.0  0.10700  0.13002  0.24184  1.0000
  Fe  Fe25      1.0  0.38758  0.01577  0.29449  1.0000
  H   H100      1.0  0.24174  0.14964  0.45731  1.0000
  H   H101      1.0  0.28099  0.24648  0.37180  1.0000
  C   C113      1.0  0.28059  0.17859  0.37666  1.0000
  H   H102      1.0  0.23557  0.23915  0.40379  1.0000
  H   H103      1.0  0.13050  0.18099  0.30832  1.0000
  C   C114      1.0  0.28182  0.21443  0.37407  1.0000
  N   N7        1.0  0.33499  0.04876  0.40675  1.0000
  H   H104      1.0  0.46007  0.08168  0.26509  1.0000
  C   C115      1.0  0.04197  0.14257  0.28132  1.0000
  C   C116      1.0  0.45209  0.08521  0.25371  1.0000
  H   H105      1.0  0.14415  0.18784  0.43365  1.0000
  C   C117      1.0  0.43195  0.08231  0.25777  1.0000
  C   C118      1.0  0.24871  0.21313  0.46592  1.0000
  C   C119      1.0  0.19069  0.22356  0.47675  1.0000
  N   N8        1.0  0.02452  0.02756  0.26476  1.0000
  S   S49       1.0  0.31632  0.27141  0.41367  1.0000
  N   N9        1.0  0.23359  0.30544  0.48133  1.0000
  H   H106      1.0  0.36119  0.21310  0.47549  1.0000
  H   H107      1.0  0.17252  0.14344  0.30512  1.0000
  H   H108      1.0  0.38247  0.11468  0.26689  1.0000
  H   H109      1.0  0.00886  0.01265  0.25327  1.0000
  H   H110      1.0  0.35597  0.09581  0.27293  1.0000
  H   H111      1.0  0.07185  0.02221  0.34939  1.0000
  C   C120      1.0  0.01914  0.12844  0.27132  1.0000
  C   C121      1.0  0.45568  0.00064  0.31664  1.0000
  C   C122      1.0  0.34712  0.10262  0.28535  1.0000
  N   N10       1.0  0.24426  0.18080  0.45320  1.0000
  C   C123      1.0  0.25295  0.17681  0.46848  1.0000
  C   C124      1.0  0.23802  0.20061  0.44401  1.0000
  C   C125      1.0  0.03852  0.04397  0.28123  1.0000
  S   S50       1.0  0.39666  0.08189  0.24831  1.0000
  H   H112      1.0  0.40577  0.12542  0.28023  1.0000
  C   C126      1.0  0.24256  0.16382  0.44597  1.0000
  C   C127      1.0  0.07662  0.01376  0.32272  1.0000
  H   H113      1.0  0.03770  0.01190  0.28874  1.0000
  H   H114      1.0  0.23133  0.20379  0.43181  1.0000
  C   C128      1.0  0.19209  0.18831  0.47616  1.0000
  H   H115      1.0  0.12942  0.17990  0.27188  1.0000
  H   H116      1.0  0.00090  0.13331  0.31728  1.0000
  H   H117      1.0  0.36326  0.11837  0.33453  1.0000
  H   H118      1.0  0.31478  0.07589  0.41367  1.0000
  H   H119      1.0  0.47079  0.01642  0.27302  1.0000
  C   C129      1.0  0.25272  0.22850  0.35194  1.0000
  H   H120      1.0  0.09082  0.15029  0.26076  1.0000
  H   H121      1.0  0.12071  0.17381  0.40150  1.0000
  C   C130      1.0  0.26065  0.24259  0.35650  1.0000
  H   H122      1.0  0.13151  0.19766  0.41425  1.0000
  C   C131      1.0  0.03684  0.13641  0.26723  1.0000
  H   H123      1.0  0.30190  0.05651  0.41392  1.0000
  Fe  Fe26      1.0  0.28585  0.29323  0.41870  1.0000
  Fe  Fe27      1.0  0.29662  0.30795  0.44872  1.0000
  H   H124      1.0  0.29294  0.20914  0.38298  1.0000
  H   H125      1.0  0.25490  0.25895  0.35196  1.0000
  H   H126      1.0  0.28157  0.16968  0.36608  1.0000
  C   C132      1.0  0.00024  0.17411  0.24241  1.0000
  C   C133      1.0  0.34678  0.12756  0.48633  1.0000
  C   C134      1.0  0.22380  0.28272  0.46786  1.0000
  C   C135      1.0  0.37192  0.04025  0.40020  1.0000
  S   S51       1.0  0.03683  0.14716  0.31743  1.0000
  C   C136      1.0  0.35311  0.04951  0.41030  1.0000
  H   H127      1.0  0.38625  0.04150  0.40265  1.0000
  C   C137      1.0  0.42136  0.08694  0.24323  1.0000
  C   C138      1.0  0.15222  0.12737  0.41142  1.0000
  H   H128      1.0  0.25065  0.22575  0.47072  1.0000
  H   H129      1.0  0.23480  0.23272  0.44307  1.0000
  C   C139      1.0  0.23607  0.31892  0.46407  1.0000
  N   N11       1.0  0.15102  0.16352  0.28910  1.0000
  H   H130      1.0  0.42480  0.07633  0.27217  1.0000
  C   C140      1.0  0.35356  0.02971  0.38270  1.0000
  H   H131      1.0  0.03708  0.07648  0.27038  1.0000
  C   C141      1.0  0.33502  0.03913  0.39308  1.0000
  C   C142      1.0  0.02021  0.04576  0.25215  1.0000
  H   H132      1.0  0.25832  0.16115  0.47558  1.0000
  C   C143      1.0  0.02478  0.06358  0.25391  1.0000
  H   H133      1.0  0.21263  0.29646  0.36858  1.0000
  H   H134      1.0  0.35868  0.18714  0.47985  1.0000
  C   C144      1.0  0.37211  0.03027  0.38633  1.0000
  S   S52       1.0  0.36090  0.30136  0.39597  1.0000
  H   H135      1.0  0.22838  0.16766  0.44042  1.0000
  H   H136      1.0  0.04680  0.13756  0.25324  1.0000
  H   H137      1.0  0.22347  0.29288  0.43802  1.0000
  C   C145      1.0  0.07710  0.09582  0.25050  1.0000
  H   H138      1.0  0.17860  0.11522  0.28882  1.0000
  C   C146      1.0  0.25522  0.19290  0.47512  1.0000
  C   C147      1.0  0.24674  0.26547  0.40445  1.0000
  S   S53       1.0  0.25959  0.30103  0.40385  1.0000
  S   S54       1.0  0.31500  0.23224  0.46408  1.0000
  C   C148      1.0  0.24000  0.21706  0.45029  1.0000
  H   H139      1.0  0.29085  0.24473  0.43581  1.0000
  Fe  Fe28      1.0  0.32995  0.29694  0.41500  1.0000
  S   S55       1.0  0.28012  0.28362  0.45032  1.0000
  H   H140      1.0  0.35190  0.17843  0.42246  1.0000
  N   N12       1.0  0.27419  0.20068  0.36928  1.0000
  H   H141      1.0  0.38357  0.19357  0.46901  1.0000
  H   H142      1.0  0.26926  0.17343  0.38974  1.0000
  C   C149      1.0  0.23341  0.29757  0.38466  1.0000
  S   S56       1.0  0.32771  0.28722  0.44662  1.0000
  S   S57       1.0  0.01455  0.11846  0.25409  1.0000
  C   C150      1.0  0.22257  0.26667  0.38549  1.0000
  S   S58       1.0  0.20874  0.25566  0.37563  1.0000
  Fe  Fe29      1.0  0.31142  0.26384  0.44553  1.0000
  H   H143      1.0  0.29594  0.17476  0.38020  1.0000
  H   H144      1.0  0.21916  0.26846  0.46945  1.0000
  C   C151      1.0  0.30548  0.21803  0.45372  1.0000
  H   H145      1.0  0.35313  0.05790  0.42055  1.0000
  C   C152      1.0  0.16482  0.14570  0.29370  1.0000
  C   C153      1.0  0.14643  0.17983  0.29954  1.0000
  C   C154      1.0  0.16830  0.12962  0.28456  1.0000
  C   C155      1.0  0.14402  0.15031  0.26562  1.0000
  C   C156      1.0  0.15782  0.13198  0.27043  1.0000
  C   C157      1.0  0.31559  0.05908  0.41726  1.0000
  C   C158      1.0  0.13797  0.14289  0.40287  1.0000
  H   H146      1.0  0.35826  0.24100  0.41175  1.0000
  H   H147      1.0  0.38660  0.02363  0.37793  1.0000
  C   C159      1.0  0.49395  0.04462  0.26782  1.0000
  H   H148      1.0  0.12870  0.00897  0.31155  1.0000
  C   C160      1.0  0.22610  0.29646  0.45026  1.0000
  H   H149      1.0  0.36562  0.01815  0.26320  1.0000
  H   H150      1.0  0.15693  0.17671  0.30932  1.0000
  N   N13       1.0  0.36270  0.20280  0.45074  1.0000
  C   C161      1.0  0.36280  0.22178  0.43891  1.0000
  C   C162      1.0  0.35946  0.18719  0.44477  1.0000
  C   C163      1.0  0.35861  0.22579  0.42091  1.0000
  C   C164      1.0  0.35514  0.19067  0.42688  1.0000
  C   C165      1.0  0.35452  0.21016  0.41498  1.0000
  C   C166      1.0  0.36679  0.19899  0.46967  1.0000
  C   C167      1.0  0.03382  0.02643  0.27900  1.0000
  H   H151      1.0  0.35962  0.17208  0.45406  1.0000
  C   C168      1.0  0.29504  0.22822  0.43917  1.0000
  H   H152      1.0  0.25606  0.16056  0.43431  1.0000
  H   H153      1.0  0.35080  0.21317  0.40123  1.0000
  H   H154      1.0  0.35353  0.02283  0.37135  1.0000
  H   H155      1.0  0.24073  0.23389  0.34390  1.0000
  C   C169      1.0  0.27525  0.23557  0.36769  1.0000
  H   H156      1.0  0.15763  0.11287  0.40694  1.0000
  C   C170      1.0  0.38112  0.13463  0.47379  1.0000
  C   C171      1.0  0.24599  0.28665  0.39736  1.0000
  H   H157      1.0  0.13223  0.14058  0.39168  1.0000
  H   H158      1.0  0.36550  0.23412  0.44359  1.0000
  H   H159      1.0  0.17078  0.11877  0.43232  1.0000
  Fe  Fe30      1.0  0.07011  0.13137  0.31588  1.0000
  C   C172      1.0  0.03381  0.06268  0.26866  1.0000
  C   C173      1.0  0.23230  0.31467  0.44831  1.0000
  H   H160      1.0  0.18314  0.24626  0.45218  1.0000
  C   C174      1.0  0.13279  0.18509  0.42711  1.0000
  C   C175      1.0  0.18583  0.23008  0.45885  1.0000
  N   N14       1.0  0.36050  0.10977  0.29316  1.0000
  C   C176      1.0  0.35486  0.11131  0.31175  1.0000
  C   C177      1.0  0.37821  0.11540  0.28175  1.0000
  C   C178      1.0  0.36758  0.11768  0.31964  1.0000
  C   C179      1.0  0.39140  0.12165  0.28921  1.0000
  C   C180      1.0  0.38608  0.12264  0.30832  1.0000
  H   H161      1.0  0.33997  0.09038  0.29613  1.0000
  H   H162      1.0  0.34063  0.10718  0.32070  1.0000
  C   C181      1.0  0.22776  0.28742  0.48332  1.0000
  S   S59       1.0  0.29988  0.31970  0.41734  1.0000
  H   H163      1.0  0.23263  0.31389  0.37918  1.0000
  H   H164      1.0  0.39627  0.12718  0.31438  1.0000
  H   H165      1.0  0.31433  0.05349  0.43282  1.0000
  H   H166      1.0  0.10047  0.07726  0.26538  1.0000
  H   H167      1.0  0.33482  0.11561  0.28085  1.0000
  N   N15       1.0  0.13935  0.16504  0.42194  1.0000
  C   C182      1.0  0.15278  0.14966  0.43090  1.0000
  C   C183      1.0  0.13155  0.16169  0.40844  1.0000
  C   C184      1.0  0.15959  0.13067  0.42564  1.0000
  H   H168      1.0  0.02113  0.07806  0.24404  1.0000
  C   C185      1.0  0.13209  0.00635  0.32576  1.0000
  C   C186      1.0  0.10187  0.06701  0.24021  1.0000
  C   C187      1.0  0.37378  0.00563  0.25626  1.0000
  H   H169      1.0  0.19453  0.17215  0.48288  1.0000
  S   S60       1.0  0.32741  0.11555  0.48632  1.0000
  H   H170      1.0  0.01286  0.04662  0.24084  1.0000
  H   H171      1.0  0.12875  0.02172  0.32919  1.0000
  H   H172      1.0  0.11274  0.01019  0.36118  1.0000
  H   H173      1.0  0.16003  0.11948  0.26349  1.0000
  S   S61       1.0  0.08373  0.00294  0.28857  1.0000
  H   H174      1.0  0.49496  0.00938  0.25642  1.0000
  H   H175      1.0  0.00981  0.17626  0.25070  1.0000
  H   H176      1.0  0.03423  0.99901  0.25646  1.0000
  H   H177      1.0  0.48525  0.05040  0.25678  1.0000
  S   S62       1.0  0.28181  0.32683  0.47068  1.0000
  H   H178      1.0  0.48127  0.00031  0.32786  1.0000
  H   H179      1.0  0.26225  0.18965  0.48718  1.0000
  H   H180      1.0  0.23474  0.32510  0.43450  1.0000
  H   H181      1.0  0.11487  0.05453  0.24251  1.0000
  H   H182      1.0  0.01254  0.00037  0.27672  1.0000
  H   H183      1.0  0.06986  0.00050  0.32915  1.0000
  C   C188      1.0  0.48767  0.01053  0.27134  1.0000
  C   C189      1.0  0.36319  0.32469  0.37920  1.0000
  H   H184      1.0  0.14865  0.99945  0.32507  1.0000
  C   C190      1.0  0.11097  0.99660  0.35772  1.0000
  H   H185      1.0  0.32536  0.32629  0.46118  1.0000
  H   H186      1.0  0.43205  0.99602  0.30556  1.0000
  H   H187      1.0  0.45285  0.00264  0.24215  1.0000
  H   H188      1.0  0.48996  0.99483  0.28051  1.0000
  N   N16       1.0  0.49670  0.02434  0.27679  1.0000
  H   H189      1.0  0.15680  0.24709  0.52424  1.0000
  Fe  Fe31      1.0  0.45207  0.15737  0.65856  1.0000
  S   S63       1.0  0.44112  0.12838  0.67439  1.0000
  S   S64       1.0  0.43577  0.17996  0.63673  1.0000
  Fe  Fe32      1.0  0.44685  0.13494  0.69978  1.0000
  S   S65       1.0  0.42535  0.12775  0.72797  1.0000
  H   H190      1.0  0.00425  0.04981  0.61838  1.0000
  S   S66       1.0  0.45476  0.16556  0.68467  1.0000
  H   H191      1.0  0.04377  0.08003  0.64649  1.0000
  Fe  Fe33      1.0  0.35747  0.17513  0.55114  1.0000
  S   S67       1.0  0.36672  0.19228  0.52127  1.0000
  S   S68       1.0  0.32499  0.17749  0.56770  1.0000
  Fe  Fe34      1.0  0.40124  0.15961  0.55632  1.0000
  C   C191      1.0  0.33390  0.24339  0.52480  1.0000
  S   S69       1.0  0.42171  0.14032  0.57618  1.0000
  Fe  Fe35      1.0  0.38891  0.20170  0.53231  1.0000
  H   H192      1.0  0.44178  0.06780  0.66301  1.0000
  H   H193      1.0  0.04762  0.07283  0.70787  1.0000
  H   H194      1.0  0.08213  0.04337  0.62124  1.0000
  S   S70       1.0  0.37727  0.18723  0.56260  1.0000
  S   S71       1.0  0.38026  0.14596  0.54740  1.0000
  Fe  Fe36      1.0  0.20339  0.22952  0.51511  1.0000
  S   S72       1.0  0.19572  0.24808  0.53718  1.0000
  H   H195      1.0  0.14119  0.15902  0.71886  1.0000
  Fe  Fe37      1.0  0.23361  0.19624  0.53467  1.0000
  S   S73       1.0  0.22854  0.21170  0.55876  1.0000
  S   S74       1.0  0.25916  0.16976  0.52820  1.0000
  Fe  Fe38      1.0  0.19507  0.21745  0.55782  1.0000
  S   S75       1.0  0.16799  0.21526  0.58296  1.0000
  Fe  Fe39      1.0  0.22959  0.24072  0.53622  1.0000
  S   S76       1.0  0.25093  0.26291  0.52856  1.0000
  S   S77       1.0  0.20023  0.19956  0.53554  1.0000
  S   S78       1.0  0.23705  0.22469  0.51235  1.0000
  Fe  Fe40      1.0  0.08173  0.13527  0.67330  1.0000
  S   S79       1.0  0.10891  0.11164  0.66361  1.0000
  S   S80       1.0  0.07640  0.15116  0.69700  1.0000
  Fe  Fe41      1.0  0.05816  0.13306  0.64553  1.0000
  S   S81       1.0  0.08342  0.10937  0.63306  1.0000
  S   S82       1.0  0.02573  0.14463  0.64139  1.0000
  Fe  Fe42      1.0  0.08564  0.09459  0.66321  1.0000
  S   S83       1.0  0.08493  0.06191  0.67890  1.0000
  Fe  Fe43      1.0  0.10461  0.12867  0.63429  1.0000
  S   S84       1.0  0.13309  0.13330  0.61116  1.0000
  S   S85       1.0  0.05888  0.11683  0.67554  1.0000
  S   S86       1.0  0.07896  0.15371  0.64415  1.0000
  H   H196      1.0  0.28165  0.23368  0.50461  1.0000
  C   C192      1.0  0.01745  0.13140  0.62897  1.0000
  C   C193      1.0  0.03150  0.11901  0.61724  1.0000
  C   C194      1.0  0.02439  0.10809  0.60797  1.0000
  S   S87       1.0  0.32410  0.30010  0.56172  1.0000
  H   H197      1.0  0.04052  0.05475  0.63033  1.0000
  C   C195      1.0  0.44273  0.21008  0.56583  1.0000
  H   H198      1.0  0.04781  0.11796  0.61516  1.0000
  H   H199      1.0  0.03529  0.09854  0.59888  1.0000
  C   C196      1.0  0.13591  0.18769  0.55543  1.0000
  H   H200      1.0  0.38873  0.30243  0.60805  1.0000
  C   C197      1.0  0.09214  0.14047  0.71343  1.0000
  H   H201      1.0  0.08690  0.03221  0.71794  1.0000
  S   S88       1.0  0.47951  0.11767  0.69614  1.0000
  H   H202      1.0  0.06159  0.00317  0.67410  1.0000
  C   C198      1.0  0.12392  0.11988  0.72206  1.0000
  C   C199      1.0  0.11072  0.12656  0.70934  1.0000
  C   C200      1.0  0.07291  0.02853  0.67612  1.0000
  H   H203      1.0  0.13856  0.10958  0.71870  1.0000
  H   H204      1.0  0.11527  0.12150  0.69615  1.0000
  C   C201      1.0  0.34439  0.13706  0.50123  1.0000
  C   C202      1.0  0.47330  0.00359  0.69763  1.0000
  C   C203      1.0  0.37683  0.26595  0.57208  1.0000
  C   C204      1.0  0.44064  0.06781  0.72591  1.0000
  H   H205      1.0  0.03352  0.15082  0.72395  1.0000
  H   H206      1.0  0.07065  0.02415  0.69139  1.0000
  H   H207      1.0  0.40546  0.32384  0.61839  1.0000
  C   C205      1.0  0.15912  0.19200  0.59169  1.0000
  C   C206      1.0  0.16991  0.17437  0.58490  1.0000
  C   C207      1.0  0.16185  0.15642  0.59123  1.0000
  C   C208      1.0  0.14292  0.15595  0.60428  1.0000
  C   C209      1.0  0.13213  0.17356  0.61112  1.0000
  C   C210      1.0  0.14029  0.19148  0.60494  1.0000
  H   H208      1.0  0.18445  0.17455  0.57476  1.0000
  H   H209      1.0  0.17027  0.14285  0.58587  1.0000
  H   H210      1.0  0.11737  0.17347  0.62091  1.0000
  H   H211      1.0  0.13179  0.20512  0.61013  1.0000
  C   C211      1.0  0.38789  0.24636  0.54162  1.0000
  C   C212      1.0  0.38079  0.26761  0.53862  1.0000
  C   C213      1.0  0.38512  0.24487  0.57492  1.0000
  C   C214      1.0  0.39046  0.23503  0.55969  1.0000
  N   N17       1.0  0.30641  0.23875  0.51359  1.0000
  H   H212      1.0  0.38657  0.23601  0.58900  1.0000
  H   H213      1.0  0.39642  0.21870  0.56201  1.0000
  C   C215      1.0  0.30731  0.17494  0.55628  1.0000
  C   C216      1.0  0.28707  0.17500  0.56643  1.0000
  C   C217      1.0  0.27246  0.17298  0.55779  1.0000
  C   C218      1.0  0.27802  0.17094  0.53897  1.0000
  C   C219      1.0  0.29833  0.17074  0.52874  1.0000
  C   C220      1.0  0.31302  0.17284  0.53741  1.0000
  H   H214      1.0  0.28266  0.17646  0.58108  1.0000
  H   H215      1.0  0.25687  0.17272  0.56583  1.0000
  C   C221      1.0  0.33176  0.26360  0.51432  1.0000
  H   H216      1.0  0.32866  0.17286  0.52952  1.0000
  H   H217      1.0  0.35868  0.15166  0.51453  1.0000
  C   C222      1.0  0.08384  0.05159  0.64638  1.0000
  C   C223      1.0  0.08046  0.04630  0.66618  1.0000
  H   H218      1.0  0.09014  0.06497  0.63855  1.0000
  H   H219      1.0  0.47785  0.15420  0.59943  1.0000
  C   C224      1.0  0.42973  0.16818  0.62159  1.0000
  C   C225      1.0  0.43833  0.14756  0.62116  1.0000
  C   C226      1.0  0.43525  0.13898  0.60752  1.0000
  C   C227      1.0  0.42340  0.15089  0.59438  1.0000
  C   C228      1.0  0.41434  0.17135  0.59519  1.0000
  C   C229      1.0  0.41749  0.17997  0.60876  1.0000
  H   H220      1.0  0.44788  0.13837  0.63095  1.0000
  H   H221      1.0  0.44233  0.12315  0.60695  1.0000
  H   H222      1.0  0.40547  0.18077  0.58502  1.0000
  H   H223      1.0  0.41084  0.19594  0.60903  1.0000
  C   C230      1.0  0.37952  0.31417  0.61576  1.0000
  C   C231      1.0  0.30430  0.25852  0.50316  1.0000
  H   H224      1.0  0.16441  0.14336  0.69383  1.0000
  H   H225      1.0  0.28514  0.21916  0.52767  1.0000
  N   N18       1.0  0.13555  0.16350  0.69124  1.0000
  C   C232      1.0  0.43888  0.08910  0.72099  1.0000
  H   H226      1.0  0.33956  0.24977  0.60515  1.0000
  H   H227      1.0  0.45138  0.05848  0.71663  1.0000
  H   H228      1.0  0.44783  0.09594  0.70769  1.0000
  Fe  Fe44      1.0  0.47446  0.11355  0.66942  1.0000
  H   H229      1.0  0.34171  0.27328  0.51456  1.0000
  N   N19       1.0  0.14453  0.22001  0.53754  1.0000
  C   C233      1.0  0.43832  0.06272  0.67875  1.0000
  C   C234      1.0  0.08646  0.14705  0.73048  1.0000
  C   C235      1.0  0.48063  0.01582  0.68015  1.0000
  H   H230      1.0  0.07206  0.15774  0.73378  1.0000
  H   H231      1.0  0.15008  0.24190  0.54964  1.0000
  C   C236      1.0  0.00728  0.13807  0.72668  1.0000
  H   H232      1.0  0.22628  0.27652  0.49690  1.0000
  Fe  Fe45      1.0  0.34094  0.30304  0.58205  1.0000
  H   H233      1.0  0.11003  0.01678  0.72493  1.0000
  S   S89       1.0  0.48526  0.14193  0.65115  1.0000
  H   H234      1.0  0.28498  0.30404  0.54875  1.0000
  H   H235      1.0  0.32837  0.09084  0.52359  1.0000
  S   S90       1.0  0.06386  0.00782  0.63428  1.0000
  H   H236      1.0  0.27898  0.12134  0.54488  1.0000
  Fe  Fe46      1.0  0.48719  0.14756  0.67869  1.0000
  C   C237      1.0  0.46378  0.16967  0.56810  1.0000
  N   N20       1.0  0.30196  0.23588  0.58330  1.0000
  C   C238      1.0  0.32239  0.22685  0.57962  1.0000
  H   H237      1.0  0.27870  0.25725  0.59738  1.0000
  C   C239      1.0  0.33616  0.23154  0.58757  1.0000
  H   H238      1.0  0.13001  0.25127  0.53632  1.0000
  C   C240      1.0  0.28786  0.23129  0.57434  1.0000
  H   H239      1.0  0.32817  0.21582  0.57062  1.0000
  H   H240      1.0  0.35227  0.22409  0.58487  1.0000
  H   H241      1.0  0.03575  0.16662  0.68961  1.0000
  H   H242      1.0  0.29258  0.21519  0.57247  1.0000
  H   H243      1.0  0.27195  0.23307  0.58321  1.0000
  H   H244      1.0  0.28754  0.24196  0.56030  1.0000
  N   N21       1.0  0.31170  0.11176  0.54145  1.0000
  C   C241      1.0  0.31257  0.12232  0.55407  1.0000
  C   C242      1.0  0.32888  0.09877  0.53401  1.0000
  C   C243      1.0  0.33108  0.12043  0.55918  1.0000
  C   C244      1.0  0.34764  0.09647  0.53884  1.0000
  C   C245      1.0  0.34873  0.10747  0.55143  1.0000
  C   C246      1.0  0.29290  0.11591  0.53442  1.0000
  H   H245      1.0  0.29903  0.13270  0.55988  1.0000
  H   H246      1.0  0.49416  0.17264  0.58748  1.0000
  H   H247      1.0  0.33181  0.12937  0.56873  1.0000
  H   H248      1.0  0.35081  0.30795  0.61536  1.0000
  S   S91       1.0  0.48382  0.08169  0.66448  1.0000
  H   H249      1.0  0.29386  0.12807  0.52112  1.0000
  H   H250      1.0  0.29082  0.10195  0.53121  1.0000
  H   H251      1.0  0.14222  0.16422  0.53964  1.0000
  C   C247      1.0  0.07941  0.03928  0.63658  1.0000
  C   C248      1.0  0.13692  0.20789  0.55444  1.0000
  C   C249      1.0  0.15049  0.21281  0.52120  1.0000
  H   H252      1.0  0.01117  0.16230  0.67335  1.0000
  C   C250      1.0  0.06786  0.01660  0.66637  1.0000
  C   C251      1.0  0.15269  0.14942  0.68552  1.0000
  H   H253      1.0  0.27795  0.28915  0.52538  1.0000
  C   C252      1.0  0.32901  0.24593  0.59898  1.0000
  C   C253      1.0  0.25468  0.27399  0.54550  1.0000
  C   C254      1.0  0.02420  0.03250  0.71811  1.0000
  H   H254      1.0  0.48281  0.03289  0.72386  1.0000
  C   C255      1.0  0.29484  0.24999  0.59448  1.0000
  C   C256      1.0  0.29342  0.22534  0.51309  1.0000
  C   C257      1.0  0.12269  0.16436  0.66433  1.0000
  C   C258      1.0  0.07108  0.02197  0.64659  1.0000
  C   C259      1.0  0.15510  0.14229  0.66915  1.0000
  C   C260      1.0  0.14535  0.24114  0.53687  1.0000
  H   H255      1.0  0.42150  0.06340  0.68366  1.0000
  S   S92       1.0  0.39263  0.23430  0.52275  1.0000
  N   N22       1.0  0.45006  0.04201  0.68492  1.0000
  C   C261      1.0  0.02907  0.07576  0.64902  1.0000
  C   C262      1.0  0.30824  0.25536  0.60236  1.0000
  H   H256      1.0  0.09125  0.07335  0.71068  1.0000
  H   H257      1.0  0.13995  0.18488  0.70452  1.0000
  H   H258      1.0  0.36924  0.29375  0.55147  1.0000
  H   H259      1.0  0.15593  0.22263  0.50771  1.0000
  C   C263      1.0  0.42588  0.10134  0.73337  1.0000
  H   H260      1.0  0.01903  0.02343  0.71133  1.0000
  H   H261      1.0  0.13185  0.21374  0.56734  1.0000
  H   H262      1.0  0.44875  0.00177  0.72273  1.0000
  H   H263      1.0  0.45540  0.20889  0.58931  1.0000
  C   C264      1.0  0.35814  0.31725  0.61986  1.0000
  C   C265      1.0  0.37516  0.27736  0.55385  1.0000
  H   H264      1.0  0.37905  0.27648  0.52462  1.0000
  S   S93       1.0  0.36623  0.27775  0.59142  1.0000
  Fe  Fe47      1.0  0.39138  0.16418  0.51819  1.0000
  C   C266      1.0  0.36047  0.14478  0.50275  1.0000
  H   H265      1.0  0.13018  0.17800  0.56895  1.0000
  H   H266      1.0  0.11066  0.17010  0.65638  1.0000
  H   H267      1.0  0.36138  0.08678  0.53231  1.0000
  C   C267      1.0  0.26951  0.28618  0.53996  1.0000
  H   H268      1.0  0.43189  0.20633  0.54289  1.0000
  C   C268      1.0  0.45476  0.20046  0.57933  1.0000
  S   S94       1.0  0.31249  0.31488  0.60212  1.0000
  H   H269      1.0  0.30250  0.26687  0.61091  1.0000
  H   H270      1.0  0.23845  0.27707  0.59197  1.0000
  N   N23       1.0  0.00866  0.05625  0.64274  1.0000
  C   C269      1.0  0.47811  0.17081  0.59413  1.0000
  H   H271      1.0  0.03498  0.05311  0.69199  1.0000
  C   C270      1.0  0.45190  0.17880  0.55445  1.0000
  C   C271      1.0  0.49609  0.04059  0.71723  1.0000
  C   C272      1.0  0.24351  0.27066  0.56430  1.0000
  H   H272      1.0  0.23195  0.26138  0.56867  1.0000
  N   N24       1.0  0.46500  0.18046  0.58037  1.0000
  C   C273      1.0  0.27348  0.29471  0.55318  1.0000
  C   C274      1.0  0.02719  0.06142  0.63996  1.0000
  S   S95       1.0  0.41459  0.17514  0.52663  1.0000
  H   H273      1.0  0.29279  0.26459  0.49462  1.0000
  C   C275      1.0  0.02264  0.14909  0.71674  1.0000
  H   H274      1.0  0.45043  0.16989  0.54523  1.0000
  H   H275      1.0  0.47146  0.15367  0.56918  1.0000
  C   C276      1.0  0.02394  0.15792  0.69747  1.0000
  N   N25       1.0  0.10054  0.04674  0.73129  1.0000
  H   H276      1.0  0.44244  0.07385  0.68455  1.0000
  C   C277      1.0  0.46878  0.03515  0.67401  1.0000
  C   C278      1.0  0.31688  0.27124  0.50342  1.0000
  C   C279      1.0  0.24721  0.27955  0.57746  1.0000
  C   C280      1.0  0.26231  0.29147  0.57197  1.0000
  C   C281      1.0  0.14985  0.19263  0.52168  1.0000
  C   C282      1.0  0.01003  0.15531  0.68832  1.0000
  C   C283      1.0  0.02233  0.02735  0.73778  1.0000
  C   C284      1.0  0.03319  0.04906  0.70729  1.0000
  H   H277      1.0  0.30300  0.21247  0.50640  1.0000
  H   H278      1.0  0.32268  0.21539  0.53245  1.0000
  H   H279      1.0  0.47481  0.04479  0.66060  1.0000
  S   S96       1.0  0.26757  0.30130  0.58906  1.0000
  C   C285      1.0  0.44136  0.19915  0.55329  1.0000
  H   H280      1.0  0.36330  0.10620  0.55494  1.0000
  H   H281      1.0  0.34575  0.23726  0.53299  1.0000
  C   C286      1.0  0.09447  0.06741  0.72475  1.0000
  C   C287      1.0  0.13334  0.17095  0.70834  1.0000
  H   H282      1.0  0.10708  0.18218  0.68534  1.0000
  H   H283      1.0  0.14151  0.14421  0.64592  1.0000
  H   H284      1.0  0.42831  0.03582  0.71116  1.0000
  C   C288      1.0  0.13995  0.14979  0.65854  1.0000
  C   C289      1.0  0.32095  0.23112  0.52432  1.0000
  C   C290      1.0  0.45434  0.01082  0.70879  1.0000
  H   H285      1.0  0.01277  0.09730  0.66673  1.0000
  H   H286      1.0  0.02156  0.02975  0.63083  1.0000
  C   C291      1.0  0.44282  0.03014  0.70216  1.0000
  H   H287      1.0  0.16854  0.13093  0.66475  1.0000
  C   C292      1.0  0.01165  0.08540  0.66042  1.0000
  C   C293      1.0  0.14265  0.17997  0.53897  1.0000
  H   H288      1.0  0.30256  0.16941  0.51407  1.0000
  C   C294      1.0  0.10240  0.03271  0.71915  1.0000
  H   H289      1.0  0.11163  0.03786  0.70470  1.0000
  H   H290      1.0  0.49432  0.13672  0.71812  1.0000
  H   H291      1.0  0.08756  0.09756  0.73086  1.0000
  H   H292      1.0  0.15499  0.18688  0.50872  1.0000
  H   H293      1.0  0.33013  0.13835  0.51170  1.0000
  C   C295      1.0  0.12079  0.17119  0.68074  1.0000
  C   C296      1.0  0.03856  0.05430  0.73586  1.0000
  C   C297      1.0  0.04040  0.06007  0.71619  1.0000
  H   H294      1.0  0.43426  0.22579  0.56529  1.0000
  Fe  Fe48      1.0  0.29595  0.31492  0.58018  1.0000
  H   H295      1.0  0.11689  0.17465  0.71563  1.0000
  H   H296      1.0  0.23772  0.32626  0.49580  1.0000
  H   H297      1.0  0.31505  0.28692  0.49524  1.0000
  H   H298      1.0  0.19840  0.19739  0.49883  1.0000
  H   H299      1.0  0.47257  0.17771  0.60684  1.0000
  C   C298      1.0  0.00710  0.04154  0.63267  1.0000
  H   H300      1.0  0.48017  0.07275  0.73346  1.0000
  H   H301      1.0  0.49145  0.05486  0.70676  1.0000
  C   C299      1.0  0.09250  0.08119  0.73602  1.0000
  H   H302      1.0  0.22749  0.30457  0.51099  1.0000
  H   H303      1.0  0.25422  0.30126  0.49892  1.0000
  C   C300      1.0  0.00325  0.10928  0.61063  1.0000
  H   H304      1.0  0.07840  0.99704  0.71806  1.0000
  C   C301      1.0  0.11842  0.12696  0.73891  1.0000
  C   C302      1.0  0.23841  0.30964  0.49755  1.0000
  H   H305      1.0  0.49561  0.01046  0.67165  1.0000
  S   S97       1.0  0.39909  0.15287  0.49125  1.0000
  C   C303      1.0  0.38882  0.32630  0.62163  1.0000
  C   C304      1.0  0.49302  0.06241  0.73904  1.0000
  Fe  Fe49      1.0  0.45452  0.04389  0.80336  1.0000
  S   S98       1.0  0.42336  0.04196  0.80162  1.0000
  S   S99       1.0  0.46257  0.07387  0.80158  1.0000
  Fe  Fe50      1.0  0.43992  0.02449  0.77893  1.0000
  H   H306      1.0  0.10488  0.06848  0.81366  1.0000
  H   H307      1.0  0.20161  0.31388  0.93403  1.0000
  C   C305      1.0  0.04359  0.10386  0.83437  1.0000
  C   C306      1.0  0.20365  0.17796  0.84172  1.0000
  C   C307      1.0  0.02505  0.08607  0.82267  1.0000
  C   C308      1.0  0.14781  0.24603  0.97859  1.0000
  C   C309      1.0  0.18308  0.23737  0.98229  1.0000
  C   C310      1.0  0.09160  0.22833  0.84456  1.0000
  H   H308      1.0  0.12608  0.02724  0.83858  1.0000
  H   H309      1.0  0.09967  0.25182  0.87368  1.0000
  H   H310      1.0  0.40663  0.06389  0.76852  1.0000
  H   H311      1.0  0.49018  0.10110  0.79446  1.0000
  H   H312      1.0  0.22940  0.22775  0.85243  1.0000
  H   H313      1.0  0.13154  0.25081  0.98429  1.0000
  H   H314      1.0  0.08607  0.17870  0.85831  1.0000
  S   S100      1.0  0.40184  0.00434  0.84496  1.0000
  Fe  Fe51      1.0  0.16209  0.21721  0.88553  1.0000
  S   S101      1.0  0.13247  0.23646  0.89808  1.0000
  S   S102      1.0  0.16177  0.18644  0.88063  1.0000
  Fe  Fe52      1.0  0.18768  0.24745  0.88500  1.0000
  S   S103      1.0  0.15991  0.26905  0.89681  1.0000
  S   S104      1.0  0.21936  0.25386  0.88070  1.0000
  Fe  Fe53      1.0  0.15025  0.24118  0.91685  1.0000
  S   S105      1.0  0.13644  0.24438  0.94701  1.0000
  Fe  Fe54      1.0  0.14496  0.26243  0.87696  1.0000
  S   S106      1.0  0.12443  0.28865  0.86185  1.0000
  S   S107      1.0  0.17896  0.21948  0.90639  1.0000
  S   S108      1.0  0.17363  0.24309  0.86296  1.0000
  Fe  Fe55      1.0  0.10752  0.11115  0.82384  1.0000
  S   S109      1.0  0.08760  0.14094  0.83036  1.0000
  Fe  Fe56      1.0  0.11994  0.12941  0.78185  1.0000
  S   S110      1.0  0.10123  0.16069  0.78484  1.0000
  H   H315      1.0  0.19297  0.27978  0.93871  1.0000
  Fe  Fe57      1.0  0.11386  0.15504  0.81089  1.0000
  S   S111      1.0  0.12325  0.18272  0.81434  1.0000
  Fe  Fe58      1.0  0.07688  0.14391  0.80389  1.0000
  S   S112      1.0  0.04323  0.15289  0.80272  1.0000
  S   S113      1.0  0.13474  0.12486  0.80629  1.0000
  S   S114      1.0  0.09478  0.11308  0.79911  1.0000
  C   C311      1.0  0.03676  0.13839  0.79011  1.0000
  C   C312      1.0  0.05218  0.12694  0.77847  1.0000
  C   C313      1.0  0.04736  0.11348  0.77025  1.0000
  C   C314      1.0  0.02704  0.11147  0.77350  1.0000
  S   S115      1.0  0.47054  0.02925  0.77885  1.0000
  N   N26       1.0  0.11893  0.99858  0.85450  1.0000
  H   H316      1.0  0.06784  0.12854  0.77566  1.0000
  H   H317      1.0  0.05945  0.10451  0.76148  1.0000
  N   N27       1.0  0.09875  0.22941  0.85946  1.0000
  C   C315      1.0  0.20424  0.31313  0.88611  1.0000
  C   C316      1.0  0.15452  0.24192  0.96036  1.0000
  C   C317      1.0  0.17557  0.23609  0.95293  1.0000
  H   H318      1.0  0.18091  0.23315  0.93881  1.0000
  C   C318      1.0  0.15159  0.18535  0.86189  1.0000
  C   C319      1.0  0.14824  0.20249  0.84721  1.0000
  C   C320      1.0  0.14019  0.20119  0.83241  1.0000
  C   C321      1.0  0.13524  0.18283  0.83225  1.0000
  C   C322      1.0  0.13892  0.16557  0.84677  1.0000
  C   C323      1.0  0.14719  0.16682  0.86149  1.0000
  H   H319      1.0  0.15190  0.21673  0.84721  1.0000
  H   H320      1.0  0.13748  0.21456  0.82115  1.0000
  H   H321      1.0  0.13519  0.15135  0.84676  1.0000
  H   H322      1.0  0.14991  0.15343  0.87273  1.0000
  C   C324      1.0  0.09951  0.14021  0.74323  1.0000
  C   C325      1.0  0.23761  0.29871  0.89374  1.0000
  C   C326      1.0  0.23698  0.27979  0.89047  1.0000
  C   C327      1.0  0.21981  0.27745  0.88530  1.0000
  C   C328      1.0  0.20346  0.29421  0.88321  1.0000
  C   C329      1.0  0.10279  0.05262  0.76070  1.0000
  H   H323      1.0  0.25082  0.30035  0.89782  1.0000
  H   H324      1.0  0.24974  0.26690  0.89208  1.0000
  H   H325      1.0  0.19043  0.29280  0.87879  1.0000
  C   C330      1.0  0.21221  0.17583  0.87198  1.0000
  C   C331      1.0  0.41578  0.07088  0.75533  1.0000
  H   H326      1.0  0.46121  0.17418  0.74288  1.0000
  H   H327      1.0  0.20683  0.16152  0.87778  1.0000
  H   H328      1.0  0.01529  0.01449  0.74610  1.0000
  H   H329      1.0  0.45356  0.11796  0.79995  1.0000
  H   H330      1.0  0.04689  0.09348  0.84782  1.0000
  H   H331      1.0  0.09811  0.26175  0.84941  1.0000
  H   H332      1.0  0.12188  0.24622  0.85507  1.0000
  C   C332      1.0  0.43350  0.11717  0.77454  1.0000
  S   S116      1.0  0.04679  0.03334  0.83723  1.0000
  C   C333      1.0  0.20017  0.29415  0.97794  1.0000
  C   C334      1.0  0.06391  0.04903  0.85732  1.0000
  H   H333      1.0  0.42894  0.10849  0.78937  1.0000
  C   C335      1.0  0.48750  0.06946  0.80516  1.0000
  H   H334      1.0  0.08734  0.00591  0.85313  1.0000
  C   C336      1.0  0.10141  0.21262  0.87400  1.0000
  H   H335      1.0  0.08166  0.20910  0.83197  1.0000
  C   C337      1.0  0.22583  0.20240  0.87645  1.0000
  C   C338      1.0  0.13676  0.30917  0.85692  1.0000
  C   C339      1.0  0.01131  0.12381  0.78420  1.0000
  S   S117      1.0  0.02209  0.09298  0.76432  1.0000
  N   N28       1.0  0.02450  0.10130  0.83126  1.0000
  H   H336      1.0  0.23246  0.30446  0.84008  1.0000
  C   C340      1.0  0.46691  0.14448  0.78618  1.0000
  H   H337      1.0  0.16707  0.29008  0.85219  1.0000
  H   H338      1.0  0.09513  0.14574  0.75615  1.0000
  S   S118      1.0  0.10799  0.08169  0.84605  1.0000
  H   H339      1.0  0.14039  0.00525  0.82833  1.0000
  C   C341      1.0  0.21736  0.20474  0.84674  1.0000
  C   C342      1.0  0.44742  0.14788  0.75747  1.0000
  H   H340      1.0  0.01635  0.04510  0.77343  1.0000
  H   H341      1.0  0.19308  0.19015  0.83380  1.0000
  C   C343      1.0  0.02757  0.03278  0.76700  1.0000
  H   H342      1.0  0.08087  0.04928  0.81023  1.0000
  N   N29       1.0  0.44525  0.13242  0.77334  1.0000
  C   C344      1.0  0.13149  0.30960  0.92020  1.0000
  H   H343      1.0  0.19469  0.16601  0.85023  1.0000
  C   C345      1.0  0.10488  0.24816  0.85937  1.0000
  H   H344      1.0  0.05672  0.10033  0.82251  1.0000
  H   H345      1.0  0.23118  0.20890  0.88538  1.0000
  C   C346      1.0  0.18224  0.29385  0.93443  1.0000
  H   H346      1.0  0.04428  0.06284  0.74272  1.0000
  H   H347      1.0  0.18494  0.31786  0.84844  1.0000
  S   S119      1.0  0.45911  0.01450  0.82532  1.0000
  C   C347      1.0  0.41403  0.09224  0.75042  1.0000
  H   H348      1.0  0.21069  0.28015  0.97479  1.0000
  C   C348      1.0  0.06502  0.04533  0.83964  1.0000
  C   C349      1.0  0.09655  0.19425  0.87400  1.0000
  H   H349      1.0  0.09935  0.18077  0.88520  1.0000
  H   H350      1.0  0.05231  0.04388  0.86948  1.0000
  Fe  Fe59      1.0  0.47279  0.99964  0.80026  1.0000
  C   C350      1.0  0.46893  0.16049  0.77018  1.0000
  H   H351      1.0  0.22416  0.30926  0.97664  1.0000
  S   S120      1.0  0.13574  0.12049  0.75383  1.0000
  C   C351      1.0  0.16836  0.32106  0.85107  1.0000
  Fe  Fe60      1.0  0.06101  0.00662  0.82328  1.0000
  H   H352      1.0  0.07676  0.06237  0.87303  1.0000
  H   H353      1.0  0.03958  0.07658  0.81734  1.0000
  C   C352      1.0  0.08905  0.19309  0.85896  1.0000
  S   S121      1.0  0.04430  0.99550  0.80775  1.0000
  C   C353      1.0  0.15822  0.30531  0.85323  1.0000
  C   C354      1.0  0.18979  0.23367  0.96393  1.0000
  C   C355      1.0  0.08652  0.21022  0.84415  1.0000
  C   C356      1.0  0.45916  0.16222  0.75569  1.0000
  Fe  Fe61      1.0  0.42907  0.01126  0.82157  1.0000
  C   C357      1.0  0.12522  0.01235  0.83624  1.0000
  H   H354      1.0  0.09029  0.24130  0.83263  1.0000
  C   C358      1.0  0.09874  0.99714  0.86130  1.0000
  H   H355      1.0  0.10607  0.04664  0.77474  1.0000
  C   C359      1.0  0.00614  0.11342  0.83779  1.0000
  C   C360      1.0  0.21949  0.18370  0.88357  1.0000
  H   H356      1.0  0.44020  0.14911  0.74598  1.0000
  H   H357      1.0  0.10794  0.21315  0.88539  1.0000
  C   C361      1.0  0.16556  0.31310  0.98680  1.0000
  H   H358      1.0  0.00412  0.14652  0.80113  1.0000
  H   H359      1.0  0.11421  0.01525  0.82700  1.0000
  C   C362      1.0  0.16371  0.29302  0.93086  1.0000
  C   C363      1.0  0.45488  0.13053  0.78757  1.0000
  C   C364      1.0  0.09344  0.06308  0.82584  1.0000
  H   H360      1.0  0.21683  0.17104  0.83151  1.0000
  H   H361      1.0  0.20604  0.22869  0.95827  1.0000
  H   H362      1.0  0.21979  0.17555  0.89810  1.0000
  H   H363      1.0  0.16017  0.27817  0.93271  1.0000
  C   C365      1.0  0.01620  0.13733  0.79247  1.0000
  H   H364      1.0  0.48989  0.03695  0.81618  1.0000
  H   H365      1.0  0.44293  0.10595  0.76580  1.0000
  H   H366      1.0  0.00576  0.12564  0.84440  1.0000
  H   H367      1.0  0.21640  0.21318  0.83241  1.0000
  H   H368      1.0  0.04267  0.03085  0.77047  1.0000
  H   H369      1.0  0.40363  0.10161  0.75990  1.0000
  H   H370      1.0  0.49057  0.07994  0.75967  1.0000
  C   C366      1.0  0.09215  0.06700  0.84352  1.0000
  C   C367      1.0  0.08003  0.05203  0.82394  1.0000
  C   C368      1.0  0.07773  0.05946  0.85934  1.0000
  C   C369      1.0  0.22481  0.21301  0.85792  1.0000
  N   N30       1.0  0.21103  0.18645  0.85387  1.0000
  C   C370      1.0  0.18702  0.31292  0.93191  1.0000
  C   C371      1.0  0.09700  0.07375  0.75399  1.0000
  H   H371      1.0  0.09594  0.08436  0.76270  1.0000
  S   S122      1.0  0.43311  0.03190  0.75009  1.0000
  H   H372      1.0  0.37711  0.99731  0.81882  1.0000
  H   H373      1.0  0.02216  0.01812  0.77357  1.0000
  C   C372      1.0  0.22125  0.31548  0.89142  1.0000
  H   H374      1.0  0.04262  0.11991  0.83508  1.0000
  N   N31       1.0  0.15039  0.31066  0.92482  1.0000
  H   H375      1.0  0.47872  0.17104  0.76867  1.0000
  H   H376      1.0  0.47507  0.14259  0.79718  1.0000
  H   H377      1.0  0.41921  0.12471  0.76925  1.0000
  S   S123      1.0  0.09036  0.00441  0.80135  1.0000
  H   H378      1.0  0.26698  0.29722  0.84735  1.0000
  C   C373      1.0  0.20766  0.31055  0.97916  1.0000
  N   N32       1.0  0.02963  0.03812  0.74638  1.0000
  H   H379      1.0  0.12706  0.29448  0.92706  1.0000
  S   S124      1.0  0.07779  0.99969  0.75569  1.0000
  C   C374      1.0  0.23799  0.31652  0.84262  1.0000
  H   H380      1.0  0.36161  0.99798  0.84214  1.0000
  C   C375      1.0  0.17897  0.29547  0.98186  1.0000
  H   H381      1.0  0.10866  0.02281  0.75454  1.0000
  C   C376      1.0  0.00693  0.08262  0.82044  1.0000
  C   C377      1.0  0.25732  0.31245  0.84677  1.0000
  H   H382      1.0  0.19160  0.32608  0.88405  1.0000
  C   C378      1.0  0.42922  0.05866  0.74314  1.0000
  H   H383      1.0  0.17296  0.28260  0.98164  1.0000
  C   C379      1.0  0.10435  0.03924  0.74914  1.0000
  H   H384      1.0  0.00765  0.07054  0.81354  1.0000
  H   H385      1.0  0.11847  0.32162  0.92527  1.0000
  H   H386      1.0  0.00588  0.13148  0.74174  1.0000
  H   H387      1.0  0.13378  0.31190  0.90455  1.0000
  H   H388      1.0  0.27864  0.32477  0.85452  1.0000
  C   C380      1.0  0.34086  0.36969  0.12109  1.0000
  H   H389      1.0  0.12737  0.53895  0.19648  1.0000
  H   H390      1.0  0.17149  0.40832  0.10669  1.0000
  Fe  Fe62      1.0  0.44089  0.57088  0.16552  1.0000
  S   S125      1.0  0.44777  0.60233  0.15397  1.0000
  S   S126      1.0  0.44040  0.55345  0.19550  1.0000
  Fe  Fe63      1.0  0.43742  0.56640  0.12786  1.0000
  S   S127      1.0  0.44409  0.59754  0.11254  1.0000
  S   S128      1.0  0.43229  0.54493  0.11269  1.0000
  Fe  Fe64      1.0  0.46842  0.58931  0.12951  1.0000
  Fe  Fe65      1.0  0.42290  0.60825  0.13809  1.0000
  S   S129      1.0  0.39841  0.63731  0.13865  1.0000
  S   S130      1.0  0.46376  0.55717  0.14236  1.0000
  S   S131      1.0  0.41402  0.57777  0.15207  1.0000
  H   H391      1.0  0.19669  0.33027  0.03939  1.0000
  S   S132      1.0  0.13130  0.41080  0.02721  1.0000
  C   C381      1.0  0.32874  0.39242  0.09385  1.0000
  Fe  Fe66      1.0  0.16701  0.44749  0.02178  1.0000
  H   H392      1.0  0.01755  0.52080  0.20480  1.0000
  S   S133      1.0  0.18739  0.46889  0.01913  1.0000
  Fe  Fe67      1.0  0.13069  0.43000  0.04703  1.0000
  S   S134      1.0  0.10798  0.42913  0.07500  1.0000
  S   S135      1.0  0.13303  0.45870  0.02435  1.0000
  Fe  Fe68      1.0  0.37248  0.42316  0.13644  1.0000
  S   S136      1.0  0.39271  0.39495  0.15026  1.0000
  S   S137      1.0  0.35426  0.42554  0.11466  1.0000
  Fe  Fe69      1.0  0.38281  0.45163  0.15579  1.0000
  S   S138      1.0  0.40377  0.42590  0.17062  1.0000
  S   S139      1.0  0.37968  0.48030  0.16584  1.0000
  Fe  Fe70      1.0  0.41530  0.41558  0.14323  1.0000
  Fe  Fe71      1.0  0.37949  0.40793  0.17658  1.0000
  S   S140      1.0  0.36891  0.39318  0.20729  1.0000
  S   S141      1.0  0.39622  0.44299  0.12759  1.0000
  S   S142      1.0  0.35738  0.43444  0.16344  1.0000
  H   H393      1.0  0.42521  0.42979  0.22949  1.0000
  C   C382      1.0  0.25747  0.44153  0.00628  1.0000
  C   C383      1.0  0.02416  0.57103  0.21299  1.0000
  C   C384      1.0  0.03655  0.63518  0.20977  1.0000
  H   H394      1.0  0.12472  0.48940  0.05278  1.0000
  C   C385      1.0  0.21499  0.47041  0.03845  1.0000
  Fe  Fe72      1.0  0.10427  0.47053  0.15806  1.0000
  S   S143      1.0  0.08210  0.45011  0.17465  1.0000
  S   S144      1.0  0.13141  0.46255  0.13479  1.0000
  Fe  Fe73      1.0  0.08050  0.50536  0.17777  1.0000
  S   S145      1.0  0.05568  0.48842  0.19529  1.0000
  S   S146      1.0  0.08105  0.53648  0.18075  1.0000
  Fe  Fe74      1.0  0.08199  0.46189  0.19968  1.0000
  C   C386      1.0  0.48189  0.41535  0.14124  1.0000
  Fe  Fe75      1.0  0.05820  0.47859  0.16866  1.0000
  S   S147      1.0  0.03118  0.47747  0.15852  1.0000
  S   S148      1.0  0.10674  0.47946  0.18373  1.0000
  S   S149      1.0  0.08028  0.49836  0.15048  1.0000
  H   H395      1.0  0.21151  0.48687  0.03325  1.0000
  S   S150      1.0  0.25400  0.42910  0.06863  1.0000
  H   H396      1.0  0.20613  0.37277  0.07734  1.0000
  C   C387      1.0  0.22977  0.46154  0.04952  1.0000
  C   C388      1.0  0.99890  0.54225  0.13494  1.0000
  S   S151      1.0  0.23143  0.33559  0.09472  1.0000
  C   C389      1.0  0.26166  0.34076  0.00142  1.0000
  C   C390      1.0  0.07481  0.55634  0.20923  1.0000
  C   C391      1.0  0.07482  0.53810  0.20460  1.0000
  C   C392      1.0  0.07020  0.52122  0.21907  1.0000
  S   S152      1.0  0.49298  0.41930  0.19018  1.0000
  C   C393      1.0  0.49155  0.41804  0.15429  1.0000
  H   H397      1.0  0.07846  0.56937  0.19805  1.0000
  H   H398      1.0  0.07040  0.50705  0.21565  1.0000
  C   C394      1.0  0.23447  0.44023  0.05604  1.0000
  C   C395      1.0  0.01354  0.53910  0.22509  1.0000
  C   C396      1.0  0.23293  0.39400  0.00055  1.0000
  S   S153      1.0  0.00057  0.61759  0.12443  1.0000
  C   C397      1.0  0.01853  0.50240  0.14987  1.0000
  C   C398      1.0  0.02282  0.51932  0.15367  1.0000
  C   C399      1.0  0.26697  0.42101  0.01153  1.0000
  H   H399      1.0  0.26982  0.38658  0.14731  1.0000
  C   C400      1.0  0.15322  0.35837  0.02474  1.0000
  H   H400      1.0  0.03377  0.51706  0.16227  1.0000
  C   C401      1.0  0.12387  0.52946  0.21064  1.0000
  H   H401      1.0  0.48205  0.37281  0.12793  1.0000
  H   H402      1.0  0.03837  0.57773  0.18306  1.0000
  C   C402      1.0  0.28424  0.38580  0.13618  1.0000
  C   C403      1.0  0.34661  0.40464  0.11116  1.0000
  C   C404      1.0  0.34872  0.38536  0.12357  1.0000
  H   H403      1.0  0.28338  0.37717  0.12604  1.0000
  H   H404      1.0  0.35621  0.38260  0.13519  1.0000
  H   H405      1.0  0.34246  0.35485  0.13081  1.0000
  C   C405      1.0  0.11510  0.43775  0.09168  1.0000
  C   C406      1.0  0.10177  0.43839  0.10941  1.0000
  C   C407      1.0  0.10683  0.44580  0.12276  1.0000
  C   C408      1.0  0.12540  0.45227  0.11857  1.0000
  C   C409      1.0  0.13898  0.45120  0.10099  1.0000
  C   C410      1.0  0.13373  0.44418  0.08746  1.0000
  H   H406      1.0  0.08739  0.43335  0.11276  1.0000
  H   H407      1.0  0.09634  0.44646  0.13629  1.0000
  H   H408      1.0  0.15332  0.45634  0.09764  1.0000
  H   H409      1.0  0.14396  0.44411  0.07371  1.0000
  C   C411      1.0  0.20484  0.45795  0.03401  1.0000
  C   C412      1.0  0.22412  0.42787  0.05181  1.0000
  C   C413      1.0  0.20958  0.43667  0.04059  1.0000
  H   H410      1.0  0.22732  0.41153  0.05711  1.0000
  H   H411      1.0  0.20283  0.42685  0.03632  1.0000
  C   C414      1.0  0.33682  0.40798  0.09617  1.0000
  S   S154      1.0  0.29924  0.38505  0.05811  1.0000
  C   C415      1.0  0.05269  0.61984  0.20340  1.0000
  C   C416      1.0  0.42245  0.38334  0.22370  1.0000
  C   C417      1.0  0.02856  0.54890  0.19176  1.0000
  C   C418      1.0  0.12101  0.50956  0.21306  1.0000
  C   C419      1.0  0.38704  0.38962  0.22095  1.0000
  C   C420      1.0  0.40810  0.38542  0.21290  1.0000
  C   C421      1.0  0.44381  0.46102  0.14540  1.0000
  H   H412      1.0  0.41330  0.38341  0.19843  1.0000
  C   C422      1.0  0.41808  0.52665  0.12756  1.0000
  C   C423      1.0  0.41143  0.52589  0.14705  1.0000
  C   C424      1.0  0.39952  0.51168  0.15865  1.0000
  C   C425      1.0  0.39465  0.49782  0.15092  1.0000
  C   C426      1.0  0.40166  0.49825  0.13150  1.0000
  C   C427      1.0  0.41318  0.51281  0.11980  1.0000
  H   H413      1.0  0.41546  0.53618  0.15325  1.0000
  H   H414      1.0  0.39422  0.51132  0.17370  1.0000
  H   H415      1.0  0.39783  0.48765  0.12543  1.0000
  H   H416      1.0  0.41830  0.51331  0.10473  1.0000
  C   C428      1.0  0.42997  0.56925  0.21197  1.0000
  C   C429      1.0  0.42070  0.58988  0.20630  1.0000
  H   H417      1.0  0.01638  0.55234  0.14903  1.0000
  H   H418      1.0  0.43087  0.47594  0.18681  1.0000
  H   H419      1.0  0.23775  0.47117  0.05280  1.0000
  C   C430      1.0  0.12119  0.53732  0.22658  1.0000
  H   H420      1.0  0.41923  0.59603  0.19177  1.0000
  H   H421      1.0  0.12273  0.55295  0.22492  1.0000
  C   C431      1.0  0.03804  0.62347  0.17640  1.0000
  S   S155      1.0  0.29094  0.33794  0.07232  1.0000
  C   C432      1.0  0.40592  0.65042  0.09962  1.0000
  C   C433      1.0  0.45284  0.48796  0.15320  1.0000
  C   C434      1.0  0.48228  0.41448  0.17367  1.0000
  N   N33       1.0  0.01060  0.45663  0.21576  1.0000
  H   H422      1.0  0.12696  0.34625  0.02626  1.0000
  C   C435      1.0  0.48609  0.52408  0.22047  1.0000
  H   H423      1.0  0.48868  0.41888  0.12621  1.0000
  H   H424      1.0  0.07061  0.57170  0.23173  1.0000
  H   H425      1.0  0.41858  0.63737  0.09907  1.0000
  N   N34       1.0  0.28745  0.40654  0.12640  1.0000
  H   H426      1.0  0.48918  0.39787  0.07675  1.0000
  S   S156      1.0  0.03949  0.61694  0.15500  1.0000
  H   H427      1.0  0.29614  0.46115  0.10062  1.0000
  H   H428      1.0  0.05179  0.63787  0.11626  1.0000
  H   H429      1.0  0.00865  0.65638  0.20442  1.0000
  S   S157      1.0  0.30427  0.36054  0.01601  1.0000
  H   H430      1.0  0.14689  0.37357  0.01764  1.0000
  H   H431      1.0  0.26552  0.34678  0.02682  1.0000
  Fe  Fe76      1.0  0.16552  0.40380  0.02381  1.0000
  C   C436      1.0  0.46163  0.49512  0.13410  1.0000
  H   H432      1.0  0.25457  0.32952  0.05796  1.0000
  H   H433      1.0  0.37051  0.44130  0.19996  1.0000
  H   H434      1.0  0.18512  0.41632  0.08255  1.0000
  N   N35       1.0  0.38622  0.59127  0.11086  1.0000
  C   C437      1.0  0.37741  0.60606  0.12123  1.0000
  C   C438      1.0  0.38281  0.57174  0.11807  1.0000
  C   C439      1.0  0.36580  0.60120  0.13972  1.0000
  C   C440      1.0  0.37121  0.56632  0.13649  1.0000
  C   C441      1.0  0.36281  0.58114  0.14743  1.0000
  C   C442      1.0  0.39876  0.59646  0.09165  1.0000
  H   H435      1.0  0.37955  0.62168  0.11534  1.0000
  H   H436      1.0  0.38944  0.56011  0.10970  1.0000
  H   H437      1.0  0.35953  0.61290  0.14806  1.0000
  H   H438      1.0  0.36909  0.55063  0.14232  1.0000
  H   H439      1.0  0.35413  0.57707  0.16187  1.0000
  H   H440      1.0  0.38941  0.59926  0.08099  1.0000
  H   H441      1.0  0.40494  0.61040  0.08959  1.0000
  H   H442      1.0  0.41228  0.58377  0.08908  1.0000
  N   N36       1.0  0.17572  0.38806  0.08834  1.0000
  C   C443      1.0  0.18977  0.37378  0.07934  1.0000
  C   C444      1.0  0.15510  0.38950  0.09053  1.0000
  C   C445      1.0  0.18327  0.36022  0.07257  1.0000
  C   C446      1.0  0.14807  0.37644  0.08361  1.0000
  C   C447      1.0  0.16229  0.36163  0.07467  1.0000
  H   H443      1.0  0.14394  0.40098  0.09739  1.0000
  H   H444      1.0  0.00456  0.48650  0.19850  1.0000
  H   H445      1.0  0.13171  0.37804  0.08495  1.0000
  H   H446      1.0  0.15707  0.35142  0.06919  1.0000
  N   N37       1.0  0.01534  0.55722  0.22783  1.0000
  H   H447      1.0  0.33515  0.42282  0.08648  1.0000
  H   H448      1.0  0.23233  0.46236  0.99482  1.0000
  H   H449      1.0  0.03397  0.44845  0.19220  1.0000
  C   C448      1.0  0.48389  0.38007  0.22879  1.0000
  C   C449      1.0  0.43472  0.46378  0.17860  1.0000
  C   C450      1.0  0.02105  0.64439  0.19962  1.0000
  H   H450      1.0  0.40197  0.42816  0.21040  1.0000
  C   C451      1.0  0.29034  0.35374  0.00310  1.0000
  H   H451      1.0  0.43681  0.44774  0.14964  1.0000
  H   H452      1.0  0.19449  0.34891  0.06546  1.0000
  H   H453      1.0  0.27631  0.44403  0.08867  1.0000
  C   C452      1.0  0.03095  0.56704  0.19477  1.0000
  S   S158      1.0  0.17127  0.43017  0.99940  1.0000
  S   S159      1.0  0.26411  0.37283  0.09678  1.0000
  C   C453      1.0  0.41521  0.59453  0.23838  1.0000
  C   C454      1.0  0.11138  0.47753  0.23305  1.0000
  C   C455      1.0  0.46308  0.40894  0.14761  1.0000
  C   C456      1.0  0.04171  0.43140  0.21868  1.0000
  C   C457      1.0  0.14203  0.34282  0.02940  1.0000
  C   C458      1.0  0.02155  0.63818  0.18326  1.0000
  H   H454      1.0  0.06481  0.61281  0.21110  1.0000
  H   H455      1.0  0.29739  0.37670  0.14272  1.0000
  C   C459      1.0  0.02897  0.44583  0.20751  1.0000
  H   H456      1.0  0.06660  0.60316  0.18101  1.0000
  C   C460      1.0  0.24017  0.44646  0.99851  1.0000
  C   C461      1.0  0.45258  0.46764  0.12622  1.0000
  H   H457      1.0  0.47054  0.39070  0.09789  1.0000
  H   H458      1.0  0.43788  0.54508  0.23552  1.0000
  C   C462      1.0  0.46388  0.40742  0.18003  1.0000
  H   H459      1.0  0.28037  0.41691  0.01771  1.0000
  S   S160      1.0  0.16434  0.42022  0.04597  1.0000
  H   H460      1.0  0.43870  0.37971  0.21749  1.0000
  N   N38       1.0  0.07885  0.48832  0.09619  1.0000
  C   C463      1.0  0.09560  0.49522  0.09633  1.0000
  C   C464      1.0  0.07840  0.48149  0.08088  1.0000
  C   C465      1.0  0.11219  0.49601  0.08064  1.0000
  C   C466      1.0  0.09469  0.48214  0.06492  1.0000
  C   C467      1.0  0.11167  0.48947  0.06481  1.0000
  C   C468      1.0  0.06191  0.48716  0.11301  1.0000
  H   H461      1.0  0.09646  0.49966  0.10882  1.0000
  H   H462      1.0  0.06568  0.47497  0.08112  1.0000
  H   H463      1.0  0.12567  0.50095  0.08105  1.0000
  H   H464      1.0  0.09451  0.47614  0.05307  1.0000
  C   C469      1.0  0.18146  0.33386  0.03654  1.0000
  H   H465      1.0  0.05817  0.50111  0.11891  1.0000
  H   H466      1.0  0.04758  0.48602  0.10974  1.0000
  H   H467      1.0  0.06619  0.47349  0.12413  1.0000
  H   H468      1.0  0.31007  0.44295  0.12935  1.0000
  Fe  Fe77      1.0  0.13694  0.43851  0.00424  1.0000
  H   H469      1.0  0.03324  0.64219  0.10245  1.0000
  S   S161      1.0  0.08570  0.44133  0.22794  1.0000
  C   C470      1.0  0.46141  0.48491  0.12055  1.0000
  C   C471      1.0  0.25881  0.40569  0.00915  1.0000
  C   C472      1.0  0.07036  0.55764  0.22828  1.0000
  C   C473      1.0  0.23218  0.43069  0.99670  1.0000
  C   C474      1.0  0.27180  0.34724  0.01189  1.0000
  H   H470      1.0  0.12243  0.50391  0.20056  1.0000
  C   C475      1.0  0.30097  0.43588  0.12429  1.0000
  H   H471      1.0  0.26323  0.45355  0.00860  1.0000
  N   N39       1.0  0.44383  0.47127  0.15857  1.0000
  Fe  Fe78      1.0  0.25761  0.35228  0.08166  1.0000
  H   H472      1.0  0.00952  0.64538  0.17559  1.0000
  H   H473      1.0  0.16300  0.34285  0.99157  1.0000
  C   C476      1.0  0.05370  0.61438  0.18642  1.0000
  H   H474      1.0  0.30457  0.40800  0.14552  1.0000
  H   H475      1.0  0.44064  0.39824  0.17213  1.0000
  H   H476      1.0  0.19760  0.39576  0.09905  1.0000
  S   S162      1.0  0.18683  0.37328  0.02302  1.0000
  C   C477      1.0  0.18284  0.40284  0.09446  1.0000
  C   C478      1.0  0.33064  0.37321  0.10636  1.0000
  H   H477      1.0  0.46775  0.49061  0.10565  1.0000
  H   H478      1.0  0.32100  0.39535  0.08242  1.0000
  H   H479      1.0  0.40601  0.61839  0.21527  1.0000
  H   H480      1.0  0.46796  0.50889  0.12977  1.0000
  S   S163      1.0  0.31962  0.35367  0.10451  1.0000
  C   C479      1.0  0.41318  0.60248  0.21956  1.0000
  H   H481      1.0  0.45222  0.45951  0.11589  1.0000
  H   H482      1.0  0.45285  0.49615  0.16361  1.0000
  C   C480      1.0  0.04123  0.65012  0.10834  1.0000
  N   N40       1.0  0.11569  0.49778  0.23086  1.0000
  H   H483      1.0  0.47722  0.36614  0.23551  1.0000
  H   H484      1.0  0.45681  0.40443  0.19500  1.0000
  S   S164      1.0  0.44952  0.40845  0.13123  1.0000
  C   C481      1.0  0.45450  0.40432  0.16705  1.0000
  N   N41       1.0  0.37596  0.44716  0.22449  1.0000
  C   C482      1.0  0.03547  0.42793  0.23840  1.0000
  C   C483      1.0  0.40938  0.43819  0.23182  1.0000
  C   C484      1.0  0.48589  0.39496  0.09249  1.0000
  Fe  Fe79      1.0  0.26555  0.39552  0.06902  1.0000
  C   C485      1.0  0.29328  0.44601  0.10808  1.0000
  H   H485      1.0  0.12163  0.46969  0.22172  1.0000
  H   H486      1.0  0.03393  0.54564  0.17768  1.0000
  H   H487      1.0  0.42010  0.45909  0.17996  1.0000
  Fe  Fe80      1.0  0.28970  0.36344  0.04627  1.0000
  C   C486      1.0  0.29788  0.41603  0.13334  1.0000
  H   H488      1.0  0.27095  0.40924  0.10532  1.0000
  C   C487      1.0  0.17286  0.35393  0.02845  1.0000
  C   C488      1.0  0.28231  0.43639  0.10132  1.0000
  H   H489      1.0  0.35338  0.43306  0.22199  1.0000
  H   H490      1.0  0.05655  0.42326  0.21212  1.0000
  H   H491      1.0  0.02633  0.58508  0.21519  1.0000
  S   S165      1.0  0.25604  0.37614  0.05476  1.0000
  Fe  Fe81      1.0  0.29746  0.36095  0.08507  1.0000
  C   C489      1.0  0.27939  0.41659  0.11079  1.0000
  C   C490      1.0  0.01290  0.53927  0.14629  1.0000
  H   H492      1.0  0.26629  0.38982  0.01322  1.0000
  C   C491      1.0  0.01971  0.53486  0.20697  1.0000
  C   C492      1.0  0.39406  0.65428  0.11713  1.0000
  H   H493      1.0  0.49088  0.59066  0.15720  1.0000
  H   H494      1.0  0.48968  0.64254  0.14764  1.0000
  C   C493      1.0  0.00448  0.50538  0.13862  1.0000
  H   H495      1.0  0.48489  0.40936  0.09680  1.0000
  H   H496      1.0  0.44567  0.45044  0.18492  1.0000
  C   C494      1.0  0.43124  0.56114  0.23095  1.0000
  N   N42       1.0  0.24140  0.41058  0.00222  1.0000
  H   H497      1.0  0.47679  0.63054  0.18231  1.0000
  H   H498      1.0  0.40540  0.63383  0.17786  1.0000
  H   H499      1.0  0.24753  0.33535  0.00839  1.0000
  H   H500      1.0  0.04814  0.47259  0.23459  1.0000
  H   H501      1.0  0.21821  0.43472  0.99142  1.0000
  C   C495      1.0  0.39613  0.43726  0.22111  1.0000
  H   H502      1.0  0.21736  0.39966  0.99739  1.0000
  H   H503      1.0  0.40463  0.65250  0.19100  1.0000
  H   H504      1.0  0.43935  0.63352  0.19555  1.0000
  H   H505      1.0  0.23130  0.38234  0.01417  1.0000
  H   H506      1.0  0.47382  0.53389  0.21374  1.0000
  H   H507      1.0  0.35108  0.46011  0.21036  1.0000
  H   H508      1.0  0.05045  0.65979  0.09648  1.0000
  C   C496      1.0  0.36201  0.44534  0.21375  1.0000
  H   H509      1.0  0.47133  0.39306  0.22479  1.0000
  H   H510      1.0  0.49535  0.37720  0.21563  1.0000
  H   H511      1.0  0.42752  0.66034  0.14029  1.0000
  C   C497      1.0  0.44483  0.63923  0.18045  1.0000
  C   C498      1.0  0.46602  0.63743  0.17306  1.0000
  Fe  Fe82      1.0  0.00842  0.61613  0.15183  1.0000
  C   C499      1.0  0.47326  0.64415  0.15359  1.0000
  H   H512      1.0  0.21033  0.33945  0.99763  1.0000
  N   N43       1.0  0.43125  0.64781  0.16879  1.0000
  H   H513      1.0  0.09520  0.47920  0.23224  1.0000
  C   C500      1.0  0.48671  0.52509  0.23865  1.0000
  H   H514      1.0  0.46484  0.65722  0.12654  1.0000
  C   C501      1.0  0.45932  0.65250  0.14176  1.0000
  H   H515      1.0  0.41046  0.66035  0.06915  1.0000
  C   C502      1.0  0.43823  0.65423  0.14964  1.0000
  H   H516      1.0  0.00703  0.52791  0.23690  1.0000
  H   H517      1.0  0.00119  0.49231  0.13563  1.0000
  C   C503      1.0  0.40919  0.64881  0.17672  1.0000
  C   C504      1.0  0.06595  0.52242  0.23812  1.0000
  S   S166      1.0  0.03553  0.64362  0.23003  1.0000
  C   C505      1.0  0.36838  0.45788  0.23863  1.0000
  H   H518      1.0  0.99759  0.46693  0.19128  1.0000
  C   C506      1.0  0.99802  0.47241  0.20373  1.0000
  C   C507      1.0  0.00446  0.45349  0.23511  1.0000
  H   H519      1.0  0.99986  0.62233  0.23824  1.0000
  C   C508      1.0  0.49717  0.36873  0.11905  1.0000
  H   H520      1.0  0.04804  0.66031  0.13748  1.0000
  C   C509      1.0  0.34917  0.62561  0.36963  1.0000
  S   S167      1.0  0.45335  0.56668  0.31809  1.0000
  C   C510      1.0  0.38664  0.62765  0.34335  1.0000
  Fe  Fe83      1.0  0.42401  0.59541  0.27822  1.0000
  S   S168      1.0  0.41259  0.57041  0.30168  1.0000
  C   C511      1.0  0.35604  0.64317  0.40634  1.0000
  Fe  Fe84      1.0  0.42111  0.58556  0.32041  1.0000
  S   S169      1.0  0.39844  0.58547  0.34850  1.0000
  Fe  Fe85      1.0  0.44541  0.55386  0.29731  1.0000
  S   S170      1.0  0.45716  0.52046  0.29703  1.0000
  S   S171      1.0  0.42991  0.61226  0.29715  1.0000
  S   S172      1.0  0.45624  0.57749  0.27218  1.0000
  H   H521      1.0  0.02155  0.55476  0.25452  1.0000
  C   C512      1.0  0.33499  0.35502  0.42151  1.0000
  C   C513      1.0  0.40185  0.44937  0.24604  1.0000
  S   S173      1.0  0.99861  0.60078  0.31609  1.0000
  H   H522      1.0  0.47461  0.53564  0.24602  1.0000
  C   C514      1.0  0.32119  0.59778  0.34968  1.0000
  Fe  Fe86      1.0  0.04660  0.61896  0.25358  1.0000
  H   H523      1.0  0.31544  0.62649  0.45116  1.0000
  C   C515      1.0  0.48257  0.48181  0.33009  1.0000
  H   H524      1.0  0.26367  0.59657  0.35236  1.0000
  H   H525      1.0  0.49450  0.61461  0.34323  1.0000
  C   C516      1.0  0.24948  0.61824  0.37034  1.0000
  H   H526      1.0  0.30597  0.62940  0.34840  1.0000
  Fe  Fe87      1.0  0.39926  0.39719  0.32189  1.0000
  S   S174      1.0  0.39292  0.41419  0.29319  1.0000
  S   S175      1.0  0.37206  0.38874  0.34527  1.0000
  Fe  Fe88      1.0  0.44351  0.40389  0.31055  1.0000
  S   S176      1.0  0.44052  0.42103  0.28113  1.0000
  S   S177      1.0  0.47282  0.39840  0.32088  1.0000
  Fe  Fe89      1.0  0.40971  0.43677  0.29527  1.0000
  S   S178      1.0  0.39785  0.47078  0.28689  1.0000
  Fe  Fe90      1.0  0.42418  0.39684  0.28170  1.0000
  C   C517      1.0  0.35218  0.33905  0.42252  1.0000
  S   S179      1.0  0.41367  0.42141  0.32479  1.0000
  S   S180      1.0  0.42961  0.37802  0.31023  1.0000
  Fe  Fe91      1.0  0.07290  0.60390  0.28284  1.0000
  S   S181      1.0  0.04345  0.62717  0.28127  1.0000
  S   S182      1.0  0.10060  0.60993  0.28905  1.0000
  S   S183      1.0  0.09402  0.63589  0.36531  1.0000
  S   S184      1.0  0.02876  0.59410  0.26631  1.0000
  C   C518      1.0  0.38262  0.32744  0.36794  1.0000
  Fe  Fe92      1.0  0.02810  0.60021  0.29411  1.0000
  C   C519      1.0  0.38175  0.60853  0.35277  1.0000
  S   S185      1.0  0.05716  0.57766  0.29864  1.0000
  H   H527      1.0  0.40381  0.35057  0.38504  1.0000
  H   H528      1.0  0.42501  0.56737  0.25873  1.0000
  C   C520      1.0  0.07307  0.43669  0.26625  1.0000
  S   S186      1.0  0.02392  0.45927  0.30385  1.0000
  C   C521      1.0  0.05147  0.46379  0.24804  1.0000
  H   H529      1.0  0.48803  0.48454  0.31438  1.0000
  C   C522      1.0  0.04145  0.45568  0.28253  1.0000
  C   C523      1.0  0.08094  0.61536  0.32526  1.0000
  C   C524      1.0  0.03753  0.46742  0.26496  1.0000
  H   H530      1.0  0.06252  0.43152  0.29667  1.0000
  H   H531      1.0  0.02366  0.47911  0.26438  1.0000
  Fe  Fe93      1.0  0.16593  0.64805  0.35582  1.0000
  C   C525      1.0  0.19960  0.64476  0.43616  1.0000
  C   C526      1.0  0.11282  0.50546  0.24657  1.0000
  C   C527      1.0  0.34635  0.34109  0.37806  1.0000
  H   H532      1.0  0.37521  0.46773  0.26077  1.0000
  S   S187      1.0  0.06309  0.54117  0.26646  1.0000
  C   C528      1.0  0.01315  0.50589  0.32486  1.0000
  H   H533      1.0  0.34034  0.56789  0.34803  1.0000
  H   H534      1.0  0.41187  0.49232  0.34248  1.0000
  Fe  Fe94      1.0  0.27358  0.63941  0.39002  1.0000
  H   H535      1.0  0.12820  0.62941  0.33336  1.0000
  H   H536      1.0  0.19420  0.64163  0.42515  1.0000
  H   H537      1.0  0.47021  0.43513  0.29086  1.0000
  C   C529      1.0  0.06636  0.54053  0.24270  1.0000
  H   H538      1.0  0.44422  0.50400  0.33695  1.0000
  C   C530      1.0  0.11499  0.62557  0.33116  1.0000
  H   H539      1.0  0.05020  0.53347  0.30964  1.0000
  H   H540      1.0  0.38958  0.39190  0.26508  1.0000
  C   C531      1.0  0.48390  0.43312  0.29590  1.0000
  C   C532      1.0  0.11624  0.61962  0.31437  1.0000
  H   H541      1.0  0.40184  0.36925  0.39860  1.0000
  H   H542      1.0  0.00937  0.49259  0.32270  1.0000
  H   H543      1.0  0.38487  0.61210  0.31041  1.0000
  C   C533      1.0  0.09665  0.62664  0.34496  1.0000
  H   H544      1.0  0.49473  0.47038  0.33663  1.0000
  H   H545      1.0  0.33477  0.62460  0.37965  1.0000
  C   C534      1.0  0.99907  0.51716  0.33754  1.0000
  H   H546      1.0  0.47691  0.60719  0.32177  1.0000
  Fe  Fe95      1.0  0.46154  0.59201  0.29315  1.0000
  H   H547      1.0  0.23450  0.65562  0.32055  1.0000
  S   S188      1.0  0.43441  0.38463  0.25497  1.0000
  C   C535      1.0  0.38536  0.34671  0.35623  1.0000
  C   C536      1.0  0.36869  0.36340  0.35598  1.0000
  C   C537      1.0  0.34912  0.36038  0.36657  1.0000
  H   H548      1.0  0.01201  0.43669  0.26206  1.0000
  H   H549      1.0  0.36846  0.58169  0.32352  1.0000
  H   H550      1.0  0.40050  0.34886  0.34807  1.0000
  H   H551      1.0  0.33614  0.37320  0.36634  1.0000
  H   H552      1.0  0.47866  0.44361  0.33427  1.0000
  N   N44       1.0  0.03138  0.51160  0.31521  1.0000
  S   S189      1.0  0.27053  0.61243  0.38097  1.0000
  C   C538      1.0  0.23213  0.63317  0.37541  1.0000
  C   C539      1.0  0.23396  0.61320  0.34711  1.0000
  H   H553      1.0  0.47258  0.37256  0.26659  1.0000
  C   C540      1.0  0.21645  0.62790  0.35232  1.0000
  C   C541      1.0  0.25029  0.60813  0.35632  1.0000
  H   H554      1.0  0.04910  0.48304  0.30924  1.0000
  H   H555      1.0  0.00527  0.56964  0.29431  1.0000
  H   H556      1.0  0.40115  0.62849  0.33325  1.0000
  Fe  Fe96      1.0  0.05887  0.57330  0.26977  1.0000
  S   S190      1.0  0.27061  0.65018  0.45327  1.0000
  H   H557      1.0  0.13039  0.61910  0.30362  1.0000
  C   C542      1.0  0.44086  0.50749  0.29268  1.0000
  C   C543      1.0  0.42172  0.51763  0.28855  1.0000
  C   C544      1.0  0.40859  0.50638  0.28643  1.0000
  C   C545      1.0  0.41453  0.48500  0.28867  1.0000
  C   C546      1.0  0.43375  0.47499  0.29258  1.0000
  C   C547      1.0  0.44698  0.48625  0.29429  1.0000
  H   H558      1.0  0.41697  0.53406  0.28698  1.0000
  H   H559      1.0  0.39375  0.51422  0.28328  1.0000
  H   H560      1.0  0.43834  0.45854  0.29444  1.0000
  H   H561      1.0  0.46176  0.47841  0.29740  1.0000
  H   H562      1.0  0.06772  0.61162  0.32297  1.0000
  C   C548      1.0  0.05944  0.44062  0.28313  1.0000
  H   H563      1.0  0.35856  0.39187  0.38994  1.0000
  H   H564      1.0  0.35916  0.59281  0.37323  1.0000
  H   H565      1.0  0.33450  0.64274  0.32389  1.0000
  H   H566      1.0  0.04547  0.41716  0.24722  1.0000
  N   N45       1.0  0.35303  0.61296  0.32213  1.0000
  C   C549      1.0  0.35466  0.59222  0.32874  1.0000
  C   C550      1.0  0.06903  0.44807  0.24867  1.0000
  C   C551      1.0  0.07973  0.62124  0.34210  1.0000
  C   C552      1.0  0.35694  0.37712  0.39943  1.0000
  H   H567      1.0  0.48048  0.49648  0.33438  1.0000
  C   C553      1.0  0.42641  0.48136  0.34135  1.0000
  C   C554      1.0  0.03599  0.52862  0.31764  1.0000
  C   C555      1.0  0.00873  0.56131  0.24697  1.0000
  H   H568      1.0  0.35228  0.46533  0.24163  1.0000
  H   H569      1.0  0.41292  0.45579  0.34379  1.0000
  H   H570      1.0  0.23481  0.60560  0.33603  1.0000
  C   C556      1.0  0.39480  0.39012  0.25055  1.0000
  H   H571      1.0  0.11274  0.53154  0.25714  1.0000
  C   C557      1.0  0.02236  0.54013  0.33037  1.0000
  Fe  Fe97      1.0  0.12054  0.64794  0.36725  1.0000
  H   H572      1.0  0.41187  0.45016  0.25457  1.0000
  C   C558      1.0  0.44481  0.48787  0.33822  1.0000
  H   H573      1.0  0.38466  0.32979  0.41239  1.0000
  C   C559      1.0  0.31958  0.61889  0.34280  1.0000
  C   C560      1.0  0.48914  0.41610  0.31008  1.0000
  C   C561      1.0  0.33735  0.37420  0.40990  1.0000
  C   C562      1.0  0.42702  0.46088  0.34199  1.0000
  C   C563      1.0  0.37153  0.34250  0.41191  1.0000
  H   H574      1.0  0.31983  0.35240  0.42940  1.0000
  C   C564      1.0  0.00382  0.53429  0.34041  1.0000
  S   S191      1.0  0.14971  0.65001  0.42317  1.0000
  C   C565      1.0  0.48536  0.38041  0.26093  1.0000
  H   H575      1.0  0.08661  0.42452  0.26685  1.0000
  C   C566      1.0  0.34095  0.61619  0.42938  1.0000
  S   S192      1.0  0.19695  0.63506  0.33953  1.0000
  N   N46       1.0  0.46331  0.47438  0.33562  1.0000
  C   C567      1.0  0.38123  0.45927  0.24952  1.0000
  H   H576      1.0  0.48742  0.38177  0.28866  1.0000
  C   C568      1.0  0.44593  0.44715  0.33974  1.0000
  H   H577      1.0  0.03898  0.50089  0.28976  1.0000
  C   C569      1.0  0.33883  0.58432  0.34264  1.0000
  C   C570      1.0  0.33574  0.62628  0.32891  1.0000
  H   H578      1.0  0.44667  0.43123  0.33995  1.0000
  C   C571      1.0  0.32816  0.65163  0.43154  1.0000
  C   C572      1.0  0.46401  0.45422  0.33652  1.0000
  C   C573      1.0  0.21550  0.63776  0.36661  1.0000
  H   H579      1.0  0.32403  0.38659  0.40864  1.0000
  C   C574      1.0  0.21938  0.65624  0.48034  1.0000
  C   C575      1.0  0.39416  0.36468  0.38971  1.0000
  H   H580      1.0  0.06555  0.62191  0.35281  1.0000
  H   H581      1.0  0.34011  0.60011  0.43458  1.0000
  C   C576      1.0  0.41586  0.38598  0.24244  1.0000
  H   H582      1.0  0.11369  0.46723  0.24687  1.0000
  H   H583      1.0  0.10769  0.49654  0.26066  1.0000
  H   H584      1.0  0.22514  0.61890  0.43600  1.0000
  S   S193      1.0  0.49228  0.60121  0.28286  1.0000
  H   H585      1.0  0.06277  0.50917  0.24926  1.0000
  H   H586      1.0  0.36911  0.63714  0.30653  1.0000
  Fe  Fe98      1.0  0.27576  0.65804  0.42140  1.0000
  H   H587      1.0  0.36609  0.61106  0.40549  1.0000
  H   H588      1.0  0.49547  0.50215  0.27674  1.0000
  Fe  Fe99      1.0  0.14197  0.65432  0.39491  1.0000
  C   C577      1.0  0.22340  0.63601  0.45676  1.0000
  C   C578      1.0  0.31914  0.32889  0.47536  1.0000
  C   C579      1.0  0.37296  0.64573  0.34745  1.0000
  H   H589      1.0  0.23141  0.64099  0.38627  1.0000
  H   H590      1.0  0.34790  0.33219  0.47898  1.0000
  N   N47       1.0  0.21289  0.65233  0.46488  1.0000
  H   H591      1.0  0.23702  0.62612  0.46129  1.0000
  S   S194      1.0  0.24983  0.65854  0.40863  1.0000
  S   S195      1.0  0.29860  0.63616  0.40480  1.0000
  H   H592      1.0  0.02584  0.55385  0.33206  1.0000
  H   H593      1.0  0.36905  0.61894  0.29323  1.0000
  C   C580      1.0  0.36973  0.62073  0.30731  1.0000
  N   N48       1.0  0.37367  0.36130  0.40043  1.0000
  C   C581      1.0  0.49613  0.44796  0.28848  1.0000
  S   S196      1.0  0.14727  0.62876  0.37997  1.0000
  H   H594      1.0  0.30880  0.59189  0.36054  1.0000
  S   S197      1.0  0.40756  0.61068  0.25455  1.0000
  C   C582      1.0  0.36305  0.60757  0.36597  1.0000
  H   H595      1.0  0.23333  0.64498  0.48381  1.0000
  C   C583      1.0  0.09914  0.61482  0.31124  1.0000
  H   H596      1.0  0.33129  0.33913  0.38650  1.0000
  C   C584      1.0  0.29825  0.32953  0.48350  1.0000
  S   S198      1.0  0.07724  0.59753  0.25395  1.0000
  H   H597      1.0  0.07614  0.65495  0.28182  1.0000
  H   H598      1.0  0.39320  0.37685  0.37655  1.0000
  C   C585      1.0  0.21681  0.63187  0.44241  1.0000
  C   C586      1.0  0.04576  0.49949  0.30198  1.0000
  N   N49       1.0  0.49321  0.38513  0.24178  1.0000
  C   C587      1.0  0.42398  0.57378  0.24411  1.0000
  H   H599      1.0  0.49171  0.46125  0.27771  1.0000
  C   C588      1.0  0.35553  0.62231  0.41311  1.0000
  H   H600      1.0  0.15071  0.65248  0.46006  1.0000
  C   C589      1.0  0.35419  0.64474  0.36063  1.0000
  H   H601      1.0  0.49469  0.52941  0.26916  1.0000
  C   C590      1.0  0.49249  0.60968  0.31666  1.0000
  H   H602      1.0  0.00396  0.57805  0.24642  1.0000
  C   C591      1.0  0.01672  0.43898  0.24672  1.0000
  H   H603      1.0  0.36701  0.64786  0.39335  1.0000
  H   H604      1.0  0.06064  0.50459  0.29632  1.0000
  C   C592      1.0  0.33184  0.33221  0.48545  1.0000
  H   H605      1.0  0.24145  0.33284  0.46229  1.0000
  H   H606      1.0  0.20222  0.64925  0.37061  1.0000
  H   H607      1.0  0.36414  0.39474  0.24623  1.0000
  C   C593      1.0  0.32716  0.63093  0.43870  1.0000
  C   C594      1.0  0.11567  0.52526  0.24468  1.0000
  C   C595      1.0  0.49363  0.38571  0.27351  1.0000
  H   H608      1.0  0.04482  0.65936  0.30757  1.0000
  N   N50       1.0  0.34251  0.65751  0.41561  1.0000
  C   C596      1.0  0.38042  0.39167  0.23989  1.0000
  C   C597      1.0  0.13581  0.66063  0.45737  1.0000
  H   H609      1.0  0.37699  0.66049  0.34048  1.0000
  H   H610      1.0  0.24594  0.65935  0.33763  1.0000
  Fe  Fe100     1.0  0.03766  0.57401  0.64621  1.0000
  H   H611      1.0  0.39574  0.63435  0.69334  1.0000
  S   S199      1.0  0.05740  0.57597  0.66461  1.0000
  C   C598      1.0  0.47883  0.63665  0.63943  1.0000
  S   S200      1.0  0.02675  0.62216  0.58389  1.0000
  S   S201      1.0  0.05161  0.57148  0.61600  1.0000
  H   H612      1.0  0.35788  0.62268  0.62365  1.0000
  C   C599      1.0  0.29025  0.33265  0.50200  1.0000
  C   C600      1.0  0.07846  0.65435  0.57774  1.0000
  C   C601      1.0  0.48255  0.65937  0.73027  1.0000
  S   S202      1.0  0.41958  0.55556  0.61856  1.0000
  N   N51       1.0  0.38192  0.59320  0.58031  1.0000
  Fe  Fe101     1.0  0.03069  0.54971  0.62164  1.0000
  C   C602      1.0  0.46330  0.51735  0.62939  1.0000
  C   C603      1.0  0.36780  0.49034  0.71757  1.0000
  H   H613      1.0  0.46282  0.54973  0.62078  1.0000
  H   H614      1.0  0.08214  0.54530  0.63930  1.0000
  S   S203      1.0  0.47799  0.60468  0.62477  1.0000
  S   S204      1.0  0.31413  0.37150  0.59979  1.0000
  C   C604      1.0  0.46283  0.65117  0.71241  1.0000
  H   H615      1.0  0.42371  0.46734  0.69720  1.0000
  H   H616      1.0  0.46299  0.64252  0.63823  1.0000
  Fe  Fe102     1.0  0.41455  0.58147  0.63306  1.0000
  Fe  Fe103     1.0  0.38144  0.46363  0.63111  1.0000
  S   S205      1.0  0.40145  0.45329  0.60490  1.0000
  S   S206      1.0  0.36055  0.49442  0.63332  1.0000
  Fe  Fe104     1.0  0.40001  0.42628  0.65783  1.0000
  S   S207      1.0  0.42173  0.41251  0.63411  1.0000
  S   S208      1.0  0.39756  0.41188  0.68908  1.0000
  Fe  Fe105     1.0  0.42682  0.44447  0.62067  1.0000
  S   S209      1.0  0.45756  0.45311  0.60671  1.0000
  Fe  Fe106     1.0  0.39466  0.42205  0.62015  1.0000
  S   S210      1.0  0.39285  0.39955  0.60385  1.0000
  S   S211      1.0  0.40742  0.45741  0.64548  1.0000
  S   S212      1.0  0.37233  0.43318  0.64520  1.0000
  H   H617      1.0  0.34973  0.47185  0.67346  1.0000
  C   C605      1.0  0.47371  0.44833  0.62247  1.0000
  C   C606      1.0  0.46812  0.43797  0.64133  1.0000
  C   C607      1.0  0.48103  0.43460  0.65385  1.0000
  H   H618      1.0  0.37693  0.36817  0.63995  1.0000
  H   H619      1.0  0.29984  0.39581  0.55379  1.0000
  H   H620      1.0  0.44820  0.64997  0.71054  1.0000
  H   H621      1.0  0.45392  0.43241  0.64622  1.0000
  H   H622      1.0  0.47679  0.42628  0.66832  1.0000
  C   C608      1.0  0.00671  0.50851  0.63057  1.0000
  H   H623      1.0  0.00172  0.52320  0.63454  1.0000
  C   C609      1.0  0.40146  0.42723  0.70239  1.0000
  C   C610      1.0  0.41280  0.44260  0.69362  1.0000
  C   C611      1.0  0.39304  0.42418  0.72198  1.0000
  H   H624      1.0  0.42020  0.44442  0.67879  1.0000
  C   C612      1.0  0.39569  0.43670  0.73266  1.0000
  H   H625      1.0  0.04777  0.48093  0.60477  1.0000
  H   H626      1.0  0.10293  0.52337  0.64312  1.0000
  C   C613      1.0  0.40481  0.64008  0.71642  1.0000
  H   H627      1.0  0.00661  0.45886  0.69666  1.0000
  C   C614      1.0  0.36375  0.60478  0.57606  1.0000
  S   S213      1.0  0.38013  0.65539  0.61543  1.0000
  H   H628      1.0  0.07407  0.51153  0.63341  1.0000
  C   C615      1.0  0.34978  0.57424  0.58414  1.0000
  S   S214      1.0  0.02412  0.46876  0.72247  1.0000
  H   H629      1.0  0.26463  0.64879  0.49274  1.0000
  C   C616      1.0  0.33601  0.37946  0.60076  1.0000
  C   C617      1.0  0.35572  0.37117  0.59144  1.0000
  C   C618      1.0  0.37285  0.37785  0.59227  1.0000
  C   C619      1.0  0.37053  0.39271  0.60260  1.0000
  C   C620      1.0  0.35086  0.40101  0.61200  1.0000
  C   C621      1.0  0.33364  0.39445  0.61098  1.0000
  H   H630      1.0  0.35783  0.35962  0.58360  1.0000
  H   H631      1.0  0.38805  0.37130  0.58505  1.0000
  H   H632      1.0  0.34893  0.41245  0.62003  1.0000
  H   H633      1.0  0.31843  0.40096  0.61824  1.0000
  C   C622      1.0  0.47276  0.49836  0.63880  1.0000
  H   H634      1.0  0.34675  0.35608  0.64280  1.0000
  H   H635      1.0  0.34705  0.45476  0.69650  1.0000
  C   C623      1.0  0.40253  0.53902  0.62348  1.0000
  C   C624      1.0  0.38244  0.54302  0.63427  1.0000
  C   C625      1.0  0.36914  0.52971  0.63681  1.0000
  C   C626      1.0  0.37613  0.51230  0.62884  1.0000
  C   C627      1.0  0.39617  0.50847  0.61810  1.0000
  C   C628      1.0  0.40921  0.52190  0.61523  1.0000
  H   H636      1.0  0.37711  0.55640  0.64046  1.0000
  H   H637      1.0  0.35363  0.53267  0.64521  1.0000
  H   H638      1.0  0.40167  0.49516  0.61181  1.0000
  H   H639      1.0  0.42457  0.51891  0.60653  1.0000
  C   C629      1.0  0.06761  0.50944  0.64857  1.0000
  C   C630      1.0  0.04464  0.49425  0.67629  1.0000
  C   C631      1.0  0.36145  0.65205  0.60528  1.0000
  C   C632      1.0  0.45049  0.41411  0.71715  1.0000
  Fe  Fe107     1.0  0.32783  0.33227  0.54764  1.0000
  S   S215      1.0  0.33958  0.34045  0.51611  1.0000
  H   H640      1.0  0.46734  0.48462  0.63995  1.0000
  H   H641      1.0  0.03762  0.63574  0.51981  1.0000
  H   H642      1.0  0.31125  0.65772  0.64020  1.0000
  C   C633      1.0  0.05771  0.62914  0.59609  1.0000
  H   H643      1.0  0.08364  0.63363  0.60404  1.0000
  H   H644      1.0  0.05469  0.61674  0.60821  1.0000
  C   C634      1.0  0.04915  0.56806  0.68929  1.0000
  C   C635      1.0  0.05772  0.57420  0.70113  1.0000
  C   C636      1.0  0.32378  0.33553  0.50390  1.0000
  H   H645      1.0  0.36965  0.58710  0.73699  1.0000
  C   C637      1.0  0.02934  0.54858  0.71710  1.0000
  C   C638      1.0  0.03463  0.55555  0.69729  1.0000
  H   H646      1.0  0.06905  0.58376  0.69502  1.0000
  C   C639      1.0  0.37943  0.50396  0.70460  1.0000
  C   C640      1.0  0.03267  0.48476  0.61366  1.0000
  H   H647      1.0  0.02791  0.55076  0.68828  1.0000
  C   C641      1.0  0.34734  0.59553  0.57808  1.0000
  C   C642      1.0  0.40674  0.45229  0.72369  1.0000
  C   C643      1.0  0.00003  0.47554  0.63116  1.0000
  H   H648      1.0  0.37109  0.45185  0.67959  1.0000
  S   S216      1.0  0.01238  0.60056  0.63881  1.0000
  C   C644      1.0  0.05757  0.61885  0.53901  1.0000
  H   H649      1.0  0.38550  0.51393  0.70960  1.0000
  H   H650      1.0  0.36503  0.48953  0.73268  1.0000
  Fe  Fe108     1.0  0.02446  0.59584  0.60915  1.0000
  N   N52       1.0  0.37709  0.34116  0.63121  1.0000
  S   S217      1.0  0.01919  0.54989  0.65250  1.0000
  C   C645      1.0  0.05221  0.63399  0.52346  1.0000
  C   C646      1.0  0.37638  0.49068  0.67922  1.0000
  C   C647      1.0  0.32925  0.64891  0.59067  1.0000
  H   H651      1.0  0.39941  0.56301  0.58808  1.0000
  H   H652      1.0  0.02378  0.63890  0.67257  1.0000
  H   H653      1.0  0.39190  0.34457  0.65111  1.0000
  H   H654      1.0  0.09175  0.53914  0.66038  1.0000
  C   C648      1.0  0.35778  0.46329  0.68513  1.0000
  C   C649      1.0  0.38721  0.35328  0.63765  1.0000
  S   S218      1.0  0.43472  0.57848  0.65272  1.0000
  C   C650      1.0  0.36569  0.37437  0.52089  1.0000
  Fe  Fe109     1.0  0.44364  0.60740  0.63402  1.0000
  C   C651      1.0  0.04556  0.63547  0.58259  1.0000
  C   C652      1.0  0.06495  0.51668  0.67837  1.0000
  H   H655      1.0  0.32515  0.37721  0.53050  1.0000
  H   H656      1.0  0.04689  0.60901  0.54737  1.0000
  H   H657      1.0  0.33710  0.56687  0.58603  1.0000
  H   H658      1.0  0.04383  0.50241  0.70225  1.0000
  S   S219      1.0  0.41856  0.62825  0.65027  1.0000
  H   H659      1.0  0.06169  0.65897  0.50082  1.0000
  H   H660      1.0  0.48063  0.64035  0.68721  1.0000
  H   H661      1.0  0.04883  0.48911  0.64832  1.0000
  H   H662      1.0  0.04003  0.65662  0.55661  1.0000
  Fe  Fe110     1.0  0.39910  0.62709  0.63096  1.0000
  C   C653      1.0  0.44084  0.40008  0.73190  1.0000
  S   S220      1.0  0.04340  0.52045  0.61155  1.0000
  C   C654      1.0  0.33037  0.38596  0.53756  1.0000
  Fe  Fe111     1.0  0.31762  0.34597  0.58489  1.0000
  C   C655      1.0  0.39856  0.60338  0.57882  1.0000
  H   H663      1.0  0.06937  0.52439  0.68694  1.0000
  C   C656      1.0  0.04950  0.65159  0.56699  1.0000
  C   C657      1.0  0.42026  0.61010  0.73724  1.0000
  S   S221      1.0  0.38685  0.59946  0.64969  1.0000
  H   H664      1.0  0.36171  0.62135  0.57142  1.0000
  C   C658      1.0  0.02627  0.50364  0.61901  1.0000
  C   C659      1.0  0.08833  0.53232  0.65009  1.0000
  S   S222      1.0  0.41020  0.46853  0.73627  1.0000
  N   N53       1.0  0.45747  0.42891  0.72103  1.0000
  N   N54       1.0  0.07565  0.61700  0.54407  1.0000
  H   H665      1.0  0.46141  0.44646  0.69249  1.0000
  H   H666      1.0  0.01867  0.53833  0.72331  1.0000
  H   H667      1.0  0.45046  0.51844  0.62329  1.0000
  N   N55       1.0  0.07327  0.51918  0.65929  1.0000
  C   C660      1.0  0.08416  0.64476  0.51794  1.0000
  H   H668      1.0  0.41068  0.59287  0.58608  1.0000
  C   C661      1.0  0.06563  0.64702  0.51287  1.0000
  H   H669      1.0  0.09462  0.65485  0.50977  1.0000
  C   C662      1.0  0.35263  0.63471  0.61232  1.0000
  C   C663      1.0  0.40287  0.62756  0.70538  1.0000
  H   H670      1.0  0.01688  0.59979  0.71106  1.0000
  N   N56       1.0  0.00551  0.61645  0.68624  1.0000
  H   H671      1.0  0.43462  0.38889  0.72871  1.0000
  H   H672      1.0  0.37081  0.54587  0.59239  1.0000
  H   H673      1.0  0.40572  0.60882  0.56368  1.0000
  Fe  Fe112     1.0  0.40832  0.59921  0.66768  1.0000
  C   C664      1.0  0.08896  0.62962  0.53369  1.0000
  C   C665      1.0  0.41806  0.59756  0.72635  1.0000
  H   H674      1.0  0.48433  0.43751  0.70193  1.0000
  C   C666      1.0  0.38371  0.50422  0.68526  1.0000
  C   C667      1.0  0.05163  0.56813  0.72090  1.0000
  N   N57       1.0  0.35081  0.38628  0.53404  1.0000
  C   C668      1.0  0.33649  0.63323  0.60513  1.0000
  S   S223      1.0  0.00457  0.57381  0.61220  1.0000
  H   H675      1.0  0.05821  0.57305  0.72999  1.0000
  H   H676      1.0  0.37370  0.39644  0.54123  1.0000
  C   C669      1.0  0.03764  0.55512  0.72891  1.0000
  H   H677      1.0  0.38433  0.41222  0.72887  1.0000
  C   C670      1.0  0.08122  0.60099  0.56031  1.0000
  H   H678      1.0  0.42287  0.58107  0.73044  1.0000
  H   H679      1.0  0.08865  0.60693  0.56849  1.0000
  H   H680      1.0  0.49655  0.46336  0.60159  1.0000
  C   C671      1.0  0.41517  0.45528  0.70417  1.0000
  S   S224      1.0  0.40245  0.59008  0.69971  1.0000
  N   N58       1.0  0.48686  0.53358  0.63536  1.0000
  C   C672      1.0  0.38473  0.57226  0.58549  1.0000
  H   H681      1.0  0.45181  0.41344  0.70258  1.0000
  N   N59       1.0  0.36495  0.47742  0.69201  1.0000
  H   H682      1.0  0.32955  0.61988  0.61082  1.0000
  H   H683      1.0  0.35239  0.46594  0.72126  1.0000
  H   H684      1.0  0.39284  0.51464  0.67501  1.0000
  S   S225      1.0  0.42532  0.60903  0.61314  1.0000
  H   H685      1.0  0.33274  0.60491  0.57520  1.0000
  C   C673      1.0  0.05045  0.50428  0.68713  1.0000
  H   H686      1.0  0.38005  0.49067  0.66426  1.0000
  C   C674      1.0  0.45588  0.42964  0.73941  1.0000
  H   H687      1.0  0.39253  0.61671  0.58580  1.0000
  C   C675      1.0  0.05328  0.49679  0.65690  1.0000
  H   H688      1.0  0.35953  0.37572  0.50829  1.0000
  C   C676      1.0  0.36865  0.56247  0.58773  1.0000
  C   C677      1.0  0.40899  0.60622  0.71063  1.0000
  H   H689      1.0  0.35673  0.62449  0.73340  1.0000
  H   H690      1.0  0.40100  0.35725  0.62673  1.0000
  C   C678      1.0  0.35745  0.39677  0.54343  1.0000
  C   C679      1.0  0.31596  0.39659  0.55057  1.0000
  C   C680      1.0  0.34340  0.40780  0.55633  1.0000
  C   C681      1.0  0.32255  0.40762  0.55994  1.0000
  H   H691      1.0  0.03353  0.48445  0.68289  1.0000
  C   C682      1.0  0.36078  0.47697  0.71101  1.0000
  H   H692      1.0  0.09184  0.58749  0.55531  1.0000
  H   H693      1.0  0.38046  0.37971  0.51566  1.0000
  H   H694      1.0  0.34874  0.41570  0.56412  1.0000
  H   H695      1.0  0.31161  0.41527  0.57060  1.0000
  C   C683      1.0  0.48904  0.64815  0.64513  1.0000
  C   C684      1.0  0.07411  0.63865  0.59369  1.0000
  H   H696      1.0  0.10320  0.62830  0.53779  1.0000
  H   H697      1.0  0.06737  0.59598  0.57038  1.0000
  H   H698      1.0  0.36873  0.35786  0.52807  1.0000
  S   S226      1.0  0.29827  0.34733  0.56460  1.0000
  C   C685      1.0  0.00368  0.60529  0.70456  1.0000
  H   H699      1.0  0.39932  0.65652  0.71272  1.0000
  H   H700      1.0  0.20692  0.65528  0.49341  1.0000
  C   C686      1.0  0.35609  0.34415  0.63543  1.0000
  S   S227      1.0  0.30958  0.64598  0.58155  1.0000
  C   C687      1.0  0.47046  0.53495  0.62792  1.0000
  H   H701      1.0  0.02463  0.45627  0.61534  1.0000
  C   C688      1.0  0.48946  0.61806  0.63437  1.0000
  C   C689      1.0  0.46746  0.44358  0.70543  1.0000
  C   C690      1.0  0.01958  0.47080  0.61966  1.0000
  H   H702      1.0  0.32962  0.33525  0.63248  1.0000
  C   C691      1.0  0.30307  0.33535  0.51230  1.0000
  C   C692      1.0  0.34630  0.33236  0.62970  1.0000
  H   H703      1.0  0.46440  0.45868  0.70927  1.0000
  H   H704      1.0  0.48426  0.56031  0.64518  1.0000
  C   C693      1.0  0.48920  0.49718  0.64668  1.0000
  H   H705      1.0  0.03781  0.61435  0.68293  1.0000
  H   H706      1.0  0.27412  0.33298  0.50841  1.0000
  H   H707      1.0  0.02981  0.61720  0.66160  1.0000
  C   C694      1.0  0.02515  0.62204  0.67537  1.0000
  S   S228      1.0  0.34734  0.33388  0.56633  1.0000
  H   H708      1.0  0.29677  0.33784  0.52656  1.0000
  C   C695      1.0  0.49225  0.45528  0.61617  1.0000
  C   C696      1.0  0.41313  0.63135  0.73258  1.0000
  C   C697      1.0  0.48098  0.64573  0.69938  1.0000
  H   H709      1.0  0.49669  0.48251  0.65406  1.0000
  C   C698      1.0  0.49604  0.51505  0.64488  1.0000
  C   C699      1.0  0.49396  0.55223  0.63384  1.0000
  C   C700      1.0  0.99993  0.46354  0.72514  1.0000
  C   C701      1.0  0.46359  0.65808  0.72793  1.0000
  H   H710      1.0  0.49310  0.56290  0.61985  1.0000
  C   C702      1.0  0.22538  0.33601  0.84267  1.0000
  H   H711      1.0  0.37896  0.55276  0.77433  1.0000
  C   C703      1.0  0.13735  0.40767  0.97539  1.0000
  S   S229      1.0  0.03072  0.54713  0.75366  1.0000
  S   S230      1.0  0.03472  0.49467  0.78980  1.0000
  S   S231      1.0  0.12070  0.37703  0.89045  1.0000
  Fe  Fe113     1.0  0.03056  0.51359  0.76120  1.0000
  Fe  Fe114     1.0  0.05553  0.47115  0.77404  1.0000
  S   S232      1.0  0.08492  0.45212  0.78207  1.0000
  C   C704      1.0  0.29832  0.35439  0.98369  1.0000
  S   S233      1.0  0.03072  0.45549  0.77506  1.0000
  S   S234      1.0  0.46296  0.60597  0.80849  1.0000
  S   S235      1.0  0.45922  0.60879  0.76534  1.0000
  Fe  Fe115     1.0  0.44720  0.59175  0.79464  1.0000
  S   S236      1.0  0.45357  0.55754  0.79804  1.0000
  Fe  Fe116     1.0  0.14820  0.42288  0.87785  1.0000
  S   S237      1.0  0.16171  0.45064  0.87207  1.0000
  Fe  Fe117     1.0  0.10954  0.41023  0.87776  1.0000
  C   C705      1.0  0.17358  0.32929  0.98761  1.0000
  S   S238      1.0  0.07856  0.42255  0.87040  1.0000
  Fe  Fe118     1.0  0.13223  0.38916  0.90951  1.0000
  S   S239      1.0  0.13423  0.37461  0.93982  1.0000
  S   S240      1.0  0.11819  0.42207  0.89880  1.0000
  H   H712      1.0  0.10068  0.44195  0.95413  1.0000
  C   C706      1.0  0.04368  0.40264  0.85066  1.0000
  Fe  Fe119     1.0  0.38673  0.48406  0.80061  1.0000
  S   S241      1.0  0.41669  0.47202  0.78272  1.0000
  S   S242      1.0  0.37962  0.51474  0.80879  1.0000
  Fe  Fe120     1.0  0.37005  0.44591  0.80494  1.0000
  S   S243      1.0  0.39912  0.43050  0.78734  1.0000
  S   S244      1.0  0.33956  0.43559  0.81610  1.0000
  Fe  Fe121     1.0  0.41522  0.44201  0.80334  1.0000
  S   S245      1.0  0.44420  0.42473  0.81342  1.0000
  Fe  Fe122     1.0  0.39861  0.46170  0.76798  1.0000
  C   C707      1.0  0.20656  0.45032  0.89708  1.0000
  S   S246      1.0  0.38624  0.45468  0.82278  1.0000
  S   S247      1.0  0.36837  0.47648  0.78403  1.0000
  C   C708      1.0  0.42481  0.47683  0.83164  1.0000
  C   C709      1.0  0.46584  0.43517  0.80028  1.0000
  H   H713      1.0  0.42485  0.46508  0.84511  1.0000
  H   H714      1.0  0.07436  0.36351  0.85229  1.0000
  H   H715      1.0  0.14201  0.45895  0.83760  1.0000
  H   H716      1.0  0.37872  0.62222  0.78226  1.0000
  C   C710      1.0  0.46626  0.44658  0.78172  1.0000
  C   C711      1.0  0.02787  0.41621  0.84249  1.0000
  C   C712      1.0  0.40168  0.65916  0.84403  1.0000
  C   C713      1.0  0.48184  0.45758  0.77223  1.0000
  H   H717      1.0  0.45440  0.44717  0.77474  1.0000
  C   C714      1.0  0.32607  0.37849  0.86213  1.0000
  C   C715      1.0  0.34638  0.38151  0.85529  1.0000
  C   C716      1.0  0.35091  0.39883  0.84102  1.0000
  C   C717      1.0  0.33517  0.41298  0.83322  1.0000
  C   C718      1.0  0.31497  0.40970  0.83980  1.0000
  C   C719      1.0  0.31040  0.39269  0.85431  1.0000
  H   H718      1.0  0.35862  0.37055  0.86122  1.0000
  H   H719      1.0  0.36653  0.40119  0.83604  1.0000
  H   H720      1.0  0.30272  0.42056  0.83382  1.0000
  H   H721      1.0  0.29477  0.39052  0.85930  1.0000
  C   C720      1.0  0.18453  0.44353  0.88032  1.0000
  C   C721      1.0  0.18998  0.45707  0.88800  1.0000
  C   C722      1.0  0.11171  0.42790  0.95757  1.0000
  H   H722      1.0  0.18100  0.47253  0.88749  1.0000
  S   S248      1.0  0.22119  0.33978  0.89472  1.0000
  H   H723      1.0  0.29454  0.34845  0.95827  1.0000
  C   C723      1.0  0.12878  0.39362  0.95291  1.0000
  C   C724      1.0  0.11437  0.41171  0.94873  1.0000
  S   S249      1.0  0.32066  0.35721  0.88077  1.0000
  H   H724      1.0  0.10509  0.41318  0.93881  1.0000
  S   S250      1.0  0.26064  0.37471  0.88582  1.0000
  H   H725      1.0  0.40484  0.55746  0.76694  1.0000
  S   S251      1.0  0.44473  0.65043  0.78242  1.0000
  C   C725      1.0  0.13556  0.34466  0.85642  1.0000
  H   H726      1.0  0.38907  0.43438  0.74774  1.0000
  C   C726      1.0  0.43248  0.54704  0.79977  1.0000
  C   C727      1.0  0.41295  0.55426  0.81016  1.0000
  C   C728      1.0  0.39676  0.54434  0.81275  1.0000
  C   C729      1.0  0.40004  0.52720  0.80495  1.0000
  C   C730      1.0  0.41947  0.52039  0.79419  1.0000
  C   C731      1.0  0.43564  0.53021  0.79168  1.0000
  H   H727      1.0  0.41047  0.56711  0.81666  1.0000
  H   H728      1.0  0.38174  0.54974  0.82107  1.0000
  H   H729      1.0  0.42215  0.50758  0.78775  1.0000
  H   H730      1.0  0.45069  0.52466  0.78350  1.0000
  H   H731      1.0  0.25565  0.35883  0.85461  1.0000
  N   N60       1.0  0.38121  0.58373  0.76150  1.0000
  H   H732      1.0  0.42757  0.46871  0.82003  1.0000
  C   C732      1.0  0.08014  0.43014  0.84586  1.0000
  C   C733      1.0  0.06355  0.44371  0.83897  1.0000
  C   C734      1.0  0.06461  0.44992  0.81937  1.0000
  C   C735      1.0  0.08243  0.44292  0.80661  1.0000
  C   C736      1.0  0.09885  0.42903  0.81353  1.0000
  C   C737      1.0  0.09760  0.42247  0.83313  1.0000
  H   H733      1.0  0.04983  0.44940  0.84877  1.0000
  H   H734      1.0  0.05167  0.46023  0.81421  1.0000
  H   H735      1.0  0.11255  0.42333  0.80371  1.0000
  H   H736      1.0  0.10996  0.41109  0.83831  1.0000
  H   H737      1.0  0.19293  0.41355  0.87400  1.0000
  H   H738      1.0  0.09811  0.45591  0.86764  1.0000
  S   S252      1.0  0.25763  0.33194  0.96938  1.0000
  C   C738      1.0  0.44657  0.41567  0.75452  1.0000
  H   H739      1.0  0.20255  0.39852  0.94622  1.0000
  S   S253      1.0  0.23287  0.36325  0.92889  1.0000
  S   S254      1.0  0.17005  0.35940  0.85246  1.0000
  C   C739      1.0  0.28801  0.34830  0.97315  1.0000
  C   C740      1.0  0.48203  0.43355  0.80882  1.0000
  Fe  Fe123     1.0  0.47254  0.62497  0.77956  1.0000
  H   H740      1.0  0.21039  0.46060  0.90350  1.0000
  H   H741      1.0  0.15105  0.37742  0.96991  1.0000
  Fe  Fe124     1.0  0.43387  0.63028  0.81069  1.0000
  H   H742      1.0  0.07743  0.39106  0.81136  1.0000
  H   H743      1.0  0.46150  0.44130  0.74248  1.0000
  H   H744      1.0  0.16330  0.45781  0.94768  1.0000
  N   N61       1.0  0.10989  0.47151  0.83981  1.0000
  N   N62       1.0  0.15715  0.44057  0.93108  1.0000
  H   H745      1.0  0.09284  0.37925  0.83862  1.0000
  H   H746      1.0  0.43113  0.39034  0.76228  1.0000
  Fe  Fe125     1.0  0.28806  0.35763  0.89806  1.0000
  C   C741      1.0  0.16771  0.44367  0.94264  1.0000
  H   H747      1.0  0.14475  0.34336  0.91700  1.0000
  C   C742      1.0  0.14070  0.45702  0.92450  1.0000
  S   S255      1.0  0.12189  0.44753  0.97949  1.0000
  Fe  Fe126     1.0  0.26221  0.34654  0.93805  1.0000
  S   S256      1.0  0.13843  0.41423  0.85570  1.0000
  S   S257      1.0  0.16293  0.39072  0.88992  1.0000
  H   H748      1.0  0.19051  0.35839  0.98766  1.0000
  H   H749      1.0  0.12980  0.45083  0.92025  1.0000
  H   H750      1.0  0.13160  0.46508  0.93606  1.0000
  H   H751      1.0  0.14740  0.46812  0.91207  1.0000
  N   N63       1.0  0.31177  0.42157  0.88336  1.0000
  C   C743      1.0  0.32212  0.43486  0.86926  1.0000
  C   C744      1.0  0.29084  0.42447  0.88654  1.0000
  C   C745      1.0  0.31155  0.45117  0.85750  1.0000
  C   C746      1.0  0.27979  0.44058  0.87502  1.0000
  C   C747      1.0  0.29028  0.45392  0.86033  1.0000
  C   C748      1.0  0.32302  0.40462  0.89565  1.0000
  H   H752      1.0  0.33873  0.43248  0.86653  1.0000
  H   H753      1.0  0.28255  0.41415  0.89787  1.0000
  H   H754      1.0  0.31996  0.46111  0.84580  1.0000
  H   H755      1.0  0.26323  0.44254  0.87741  1.0000
  H   H756      1.0  0.28199  0.46623  0.85103  1.0000
  H   H757      1.0  0.31595  0.39091  0.89984  1.0000
  H   H758      1.0  0.33915  0.39962  0.88813  1.0000
  H   H759      1.0  0.32301  0.40935  0.90862  1.0000
  N   N64       1.0  0.23181  0.35101  0.84678  1.0000
  C   C749      1.0  0.06346  0.39788  0.82025  1.0000
  H   H760      1.0  0.21018  0.33890  0.83994  1.0000
  H   H761      1.0  0.40934  0.48708  0.83225  1.0000
  C   C750      1.0  0.07745  0.37925  0.84837  1.0000
  C   C751      1.0  0.13991  0.39139  0.96661  1.0000
  C   C752      1.0  0.21759  0.37071  0.84827  1.0000
  C   C753      1.0  0.17869  0.40711  0.93050  1.0000
  H   H762      1.0  0.12681  0.35987  0.85757  1.0000
  H   H763      1.0  0.17714  0.34573  0.92328  1.0000
  H   H764      1.0  0.11956  0.46714  0.86567  1.0000
  C   C754      1.0  0.37615  0.61448  0.77264  1.0000
  H   H765      1.0  0.20618  0.36880  0.86204  1.0000
  H   H766      1.0  0.22571  0.38284  0.84756  1.0000
  H   H767      1.0  0.20907  0.37604  0.83666  1.0000
  N   N65       1.0  0.44061  0.48871  0.82841  1.0000
  C   C755      1.0  0.45868  0.48498  0.81543  1.0000
  C   C756      1.0  0.43736  0.50315  0.83878  1.0000
  C   C757      1.0  0.47417  0.49569  0.81264  1.0000
  C   C758      1.0  0.26979  0.34124  0.98203  1.0000
  C   C759      1.0  0.47101  0.51043  0.82316  1.0000
  C   C760      1.0  0.20269  0.34458  0.98540  1.0000
  H   H768      1.0  0.46098  0.47404  0.80685  1.0000
  H   H769      1.0  0.42285  0.50643  0.84876  1.0000
  H   H770      1.0  0.05003  0.41492  0.79629  1.0000
  S   S258      1.0  0.05394  0.49147  0.74527  1.0000
  C   C761      1.0  0.18415  0.42858  0.94829  1.0000
  H   H771      1.0  0.49673  0.57917  0.77981  1.0000
  C   C762      1.0  0.12349  0.42609  0.97059  1.0000
  S   S259      1.0  0.42462  0.64136  0.83812  1.0000
  H   H772      1.0  0.18285  0.39294  0.92553  1.0000
  C   C763      1.0  0.45248  0.51427  0.83628  1.0000
  H   H773      1.0  0.39144  0.58474  0.78547  1.0000
  Fe  Fe127     1.0  0.25020  0.38768  0.91187  1.0000
  C   C764      1.0  0.12951  0.46510  0.83017  1.0000
  C   C765      1.0  0.09787  0.48069  0.81087  1.0000
  C   C766      1.0  0.13369  0.46606  0.81064  1.0000
  C   C767      1.0  0.11772  0.47386  0.80098  1.0000
  C   C768      1.0  0.04797  0.41135  0.81163  1.0000
  C   C769      1.0  0.09414  0.47907  0.83046  1.0000
  C   C770      1.0  0.18963  0.41019  0.94218  1.0000
  H   H774      1.0  0.48262  0.51934  0.82071  1.0000
  H   H775      1.0  0.14915  0.46054  0.80311  1.0000
  H   H776      1.0  0.31267  0.35940  0.97682  1.0000
  C   C771      1.0  0.43881  0.40096  0.75069  1.0000
  H   H777      1.0  0.09476  0.48332  0.86459  1.0000
  H   H778      1.0  0.08530  0.48632  0.80350  1.0000
  Fe  Fe128     1.0  0.24568  0.34848  0.90387  1.0000
  N   N66       1.0  0.06126  0.39382  0.83952  1.0000
  H   H779      1.0  0.01414  0.42363  0.85124  1.0000
  C   C772      1.0  0.10540  0.46937  0.86044  1.0000
  H   H780      1.0  0.48833  0.49287  0.80207  1.0000
  Fe  Fe129     1.0  0.00956  0.48048  0.78881  1.0000
  Fe  Fe130     1.0  0.02701  0.47791  0.74778  1.0000
  H   H781      1.0  0.00091  0.53093  0.79716  1.0000
  Fe  Fe131     1.0  0.43036  0.63224  0.77083  1.0000
  H   H782      1.0  0.44961  0.52626  0.84398  1.0000
  C   C773      1.0  0.16254  0.42265  0.92490  1.0000
  H   H783      1.0  0.15434  0.42030  0.91558  1.0000
  H   H784      1.0  0.22130  0.40127  0.89087  1.0000
  H   H785      1.0  0.48192  0.42455  0.82313  1.0000
  C   C774      1.0  0.36639  0.62577  0.75792  1.0000
  C   C775      1.0  0.37111  0.59459  0.74735  1.0000
  S   S260      1.0  0.23719  0.42110  0.91120  1.0000
  C   C776      1.0  0.19640  0.42370  0.88075  1.0000
  S   S261      1.0  0.41703  0.61407  0.79940  1.0000
  S   S262      1.0  0.27853  0.37246  0.92311  1.0000
  C   C777      1.0  0.21281  0.41689  0.88995  1.0000
  C   C778      1.0  0.21773  0.43009  0.89837  1.0000
  Fe  Fe132     1.0  0.15023  0.38189  0.86970  1.0000
  H   H786      1.0  0.19267  0.43119  0.95723  1.0000
  H   H787      1.0  0.48153  0.46706  0.75815  1.0000
  H   H788      1.0  0.07833  0.38352  0.86134  1.0000
  H   H789      1.0  0.07848  0.48348  0.83820  1.0000
  H   H790      1.0  0.36156  0.64232  0.75599  1.0000
  H   H791      1.0  0.42663  0.60319  0.74969  1.0000
  C   C779      1.0  0.25078  0.34717  0.85081  1.0000
  C   C780      1.0  0.36371  0.61578  0.74525  1.0000
  C   C781      1.0  0.38344  0.59332  0.77428  1.0000
  C   C782      1.0  0.03007  0.42057  0.82284  1.0000
  H   H792      1.0  0.49428  0.56480  0.80407  1.0000
  C   C783      1.0  0.17337  0.33082  0.92575  1.0000
  H   H793      1.0  0.12053  0.47420  0.78594  1.0000
  H   H794      1.0  0.39199  0.55709  0.74950  1.0000
  H   H795      1.0  0.10878  0.33190  0.86110  1.0000
  C   C784      1.0  0.15706  0.34059  0.85316  1.0000
  H   H796      1.0  0.04206  0.39966  0.86591  1.0000
  H   H797      1.0  0.01803  0.43131  0.81633  1.0000
  H   H798      1.0  0.14650  0.40616  0.98545  1.0000
  S   S263      1.0  0.00338  0.50178  0.76142  1.0000
  H   H799      1.0  0.44517  0.41642  0.76910  1.0000
  C   C785      1.0  0.38957  0.56167  0.76316  1.0000
  H   H800      1.0  0.49196  0.63292  0.80595  1.0000
  C   C786      1.0  0.12539  0.32894  0.85815  1.0000
  C   C787      1.0  0.15510  0.32938  0.92210  1.0000
  H   H801      1.0  0.21418  0.34916  0.97228  1.0000
  S   S264      1.0  0.41302  0.64714  0.74745  1.0000
  S   S265      1.0  0.27411  0.32985  0.91406  1.0000
  N   N67       1.0  0.19438  0.32786  0.98385  1.0000
  C   C788      1.0  0.26383  0.32788  0.85083  1.0000
  H   H802      1.0  0.38991  0.66029  0.81999  1.0000
  H   H803      1.0  0.24331  0.38636  0.98915  1.0000
  Fe  Fe133     1.0  0.32531  0.91903  0.07316  1.0000
  S   S266      1.0  0.33203  0.90769  0.10228  1.0000
  S   S267      1.0  0.29507  0.92989  0.06427  1.0000
  Fe  Fe134     1.0  0.37022  0.90786  0.05338  1.0000
  S   S268      1.0  0.38122  0.89553  0.08060  1.0000
  S   S269      1.0  0.38927  0.90547  0.02434  1.0000
  Fe  Fe135     1.0  0.35349  0.88108  0.09080  1.0000
  S   S270      1.0  0.35278  0.84806  0.10492  1.0000
  Fe  Fe136     1.0  0.35900  0.92329  0.08954  1.0000
  S   S271      1.0  0.36583  0.94523  0.10322  1.0000
  S   S272      1.0  0.34440  0.89123  0.06295  1.0000
  S   S273      1.0  0.35043  0.93686  0.06119  1.0000
  Fe  Fe137     1.0  0.32362  0.75292  0.03951  1.0000
  S   S274      1.0  0.30659  0.75823  0.01648  1.0000
  Fe  Fe138     1.0  0.35111  0.77204  0.05190  1.0000
  S   S275      1.0  0.35166  0.74856  0.07926  1.0000
  S   S276      1.0  0.36708  0.79870  0.04140  1.0000
  Fe  Fe139     1.0  0.31786  0.75289  0.08084  1.0000
  S   S277      1.0  0.29395  0.75567  0.10767  1.0000
  S   S278      1.0  0.35766  0.74890  0.03416  1.0000
  S   S279      1.0  0.31709  0.77820  0.05494  1.0000
  S   S280      1.0  0.00827  0.97735  0.19729  1.0000
  Fe  Fe140     1.0  0.16514  0.88053  0.09576  1.0000
  S   S281      1.0  0.18747  0.90151  0.08220  1.0000
  S   S282      1.0  0.13067  0.89040  0.10491  1.0000
  Fe  Fe141     1.0  0.19904  0.84183  0.09390  1.0000
  S   S283      1.0  0.22399  0.85957  0.08057  1.0000
  S   S284      1.0  0.20508  0.80739  0.10059  1.0000
  Fe  Fe142     1.0  0.20693  0.87921  0.10149  1.0000
  S   S285      1.0  0.22394  0.88694  0.11906  1.0000
  Fe  Fe143     1.0  0.20224  0.87974  0.06251  1.0000
  S   S286      1.0  0.21556  0.89035  0.03132  1.0000
  S   S287      1.0  0.18364  0.85972  0.11653  1.0000
  S   S288      1.0  0.17821  0.86054  0.07444  1.0000
  Fe  Fe144     1.0  0.03474  0.95050  0.19755  1.0000
  C   C789      1.0  0.38373  0.99090  0.22834  1.0000
  S   S289      1.0  0.03280  0.92113  0.21930  1.0000
  Fe  Fe145     1.0  0.01494  0.97887  0.16611  1.0000
  C   C790      1.0  0.28807  0.72053  0.99215  1.0000
  Fe  Fe146     1.0  0.06120  0.97085  0.16185  1.0000
  S   S290      1.0  0.09287  0.96756  0.14258  1.0000
  H   H804      1.0  0.15324  0.90264  0.01131  1.0000
  S   S291      1.0  0.03938  0.95010  0.16686  1.0000
  N   N68       1.0  0.25348  0.78649  0.05164  1.0000
  Fe  Fe147     1.0  0.44379  0.93459  0.20978  1.0000
  S   S292      1.0  0.44171  0.96848  0.20042  1.0000
  H   H805      1.0  0.36179  0.91053  0.16574  1.0000
  Fe  Fe148     1.0  0.42843  0.93258  0.17617  1.0000
  S   S293      1.0  0.42478  0.96656  0.16419  1.0000
  S   S294      1.0  0.42167  0.91001  0.16325  1.0000
  Fe  Fe149     1.0  0.45517  0.96235  0.17138  1.0000
  C   C791      1.0  0.01038  0.95346  0.10086  1.0000
  H   H806      1.0  0.46460  0.89628  0.10613  1.0000
  Fe  Fe150     1.0  0.35534  0.72562  0.06185  1.0000
  S   S295      1.0  0.46007  0.92815  0.18113  1.0000
  S   S296      1.0  0.41251  0.93554  0.20595  1.0000
  H   H807      1.0  0.01846  0.93773  0.10483  1.0000
  H   H808      1.0  0.00217  0.66800  0.10671  1.0000
  H   H809      1.0  0.00357  0.94391  0.15763  1.0000
  H   H810      1.0  0.48897  0.92011  0.20651  1.0000
  H   H811      1.0  0.28940  0.91991  0.03128  1.0000
  C   C792      1.0  0.21750  0.88585  0.99576  1.0000
  H   H812      1.0  0.02853  0.97527  0.12545  1.0000
  H   H813      1.0  0.30421  0.88988  0.05324  1.0000
  H   H814      1.0  0.25048  0.75800  0.07165  1.0000
  C   C793      1.0  0.00711  0.67124  0.11791  1.0000
  S   S297      1.0  0.32142  0.72782  0.06578  1.0000
  H   H815      1.0  0.34376  0.84018  0.02867  1.0000
  H   H816      1.0  0.28259  0.79138  0.03417  1.0000
  C   C794      1.0  0.12007  0.91277  0.11402  1.0000
  C   C795      1.0  0.13221  0.92637  0.11320  1.0000
  C   C796      1.0  0.12350  0.94351  0.12147  1.0000
  C   C797      1.0  0.10270  0.94700  0.13083  1.0000
  C   C798      1.0  0.09048  0.93362  0.13133  1.0000
  C   C799      1.0  0.09912  0.91661  0.12286  1.0000
  H   H817      1.0  0.14835  0.92359  0.10637  1.0000
  H   H818      1.0  0.13302  0.95386  0.12097  1.0000
  H   H819      1.0  0.07443  0.93624  0.13831  1.0000
  H   H820      1.0  0.08965  0.90617  0.12345  1.0000
  H   H821      1.0  0.15802  0.92582  0.15571  1.0000
  C   C800      1.0  0.26654  0.79819  0.03890  1.0000
  H   H822      1.0  0.37363  0.95774  0.19456  1.0000
  C   C801      1.0  0.20941  0.87983  0.01524  1.0000
  C   C802      1.0  0.19621  0.86597  0.02153  1.0000
  C   C803      1.0  0.36634  0.95874  0.18318  1.0000
  C   C804      1.0  0.34901  0.92392  0.16321  1.0000
  H   H823      1.0  0.40346  0.74633  0.01448  1.0000
  H   H824      1.0  0.19000  0.86106  0.03643  1.0000
  C   C805      1.0  0.37235  0.90564  0.01073  1.0000
  C   C806      1.0  0.26966  0.77017  0.10450  1.0000
  C   C807      1.0  0.26736  0.78972  0.09243  1.0000
  C   C808      1.0  0.24756  0.80169  0.09155  1.0000
  C   C809      1.0  0.23013  0.79379  0.10220  1.0000
  C   C810      1.0  0.23258  0.77409  0.11381  1.0000
  C   C811      1.0  0.25224  0.76252  0.11527  1.0000
  H   H825      1.0  0.28080  0.79587  0.08435  1.0000
  H   H826      1.0  0.24582  0.81681  0.08239  1.0000
  H   H827      1.0  0.21918  0.76786  0.12199  1.0000
  H   H828      1.0  0.25395  0.74749  0.12470  1.0000
  H   H829      1.0  0.16532  0.89987  0.04110  1.0000
  C   C812      1.0  0.36038  0.97779  0.17159  1.0000
  C   C813      1.0  0.45054  0.90358  0.11526  1.0000
  H   H830      1.0  0.18050  0.84782  0.01337  1.0000
  H   H831      1.0  0.33060  0.85752  0.05575  1.0000
  H   H832      1.0  0.16915  0.89450  0.14238  1.0000
  H   H833      1.0  0.19346  0.93847  0.01378  1.0000
  C   C814      1.0  0.38275  0.93504  0.11859  1.0000
  C   C815      1.0  0.38922  0.94855  0.12547  1.0000
  C   C816      1.0  0.40104  0.94098  0.13928  1.0000
  C   C817      1.0  0.40671  0.91985  0.14608  1.0000
  C   C818      1.0  0.40069  0.90628  0.13884  1.0000
  C   C819      1.0  0.38873  0.91387  0.12507  1.0000
  H   H834      1.0  0.38466  0.96495  0.12040  1.0000
  H   H835      1.0  0.40563  0.95154  0.14466  1.0000
  H   H836      1.0  0.40509  0.88988  0.14402  1.0000
  H   H837      1.0  0.38369  0.90336  0.11984  1.0000
  C   C820      1.0  0.35833  0.83346  0.08765  1.0000
  C   C821      1.0  0.36924  0.84024  0.06922  1.0000
  C   C822      1.0  0.37222  0.82929  0.05516  1.0000
  C   C823      1.0  0.36417  0.81160  0.05943  1.0000
  C   C824      1.0  0.35346  0.80467  0.07792  1.0000
  C   C825      1.0  0.35084  0.81540  0.09207  1.0000
  H   H838      1.0  0.37562  0.85382  0.06580  1.0000
  H   H839      1.0  0.38068  0.83466  0.04094  1.0000
  H   H840      1.0  0.34721  0.79103  0.08137  1.0000
  H   H841      1.0  0.34280  0.80988  0.10639  1.0000
  C   C826      1.0  0.27529  0.91821  0.07981  1.0000
  C   C827      1.0  0.27625  0.90895  0.09870  1.0000
  C   C828      1.0  0.26013  0.89984  0.11092  1.0000
  C   C829      1.0  0.24337  0.89948  0.10409  1.0000
  C   C830      1.0  0.24264  0.90834  0.08511  1.0000
  C   C831      1.0  0.25840  0.91802  0.07308  1.0000
  H   H842      1.0  0.28913  0.90924  0.10402  1.0000
  H   H843      1.0  0.26074  0.89296  0.12561  1.0000
  H   H844      1.0  0.22975  0.90809  0.07975  1.0000
  H   H845      1.0  0.25746  0.92540  0.05856  1.0000
  C   C832      1.0  0.30958  0.88205  0.04153  1.0000
  C   C833      1.0  0.16426  0.91246  0.00422  1.0000
  H   H846      1.0  0.46181  0.97459  0.12134  1.0000
  C   C834      1.0  0.23307  0.79492  0.05713  1.0000
  C   C835      1.0  0.35205  0.91664  0.01431  1.0000
  H   H847      1.0  0.31143  0.67674  0.99480  1.0000
  C   C836      1.0  0.37334  0.68467  0.10062  1.0000
  H   H848      1.0  0.34659  0.92461  0.02585  1.0000
  H   H849      1.0  0.27581  0.76305  0.06405  1.0000
  H   H850      1.0  0.33454  0.92054  0.17321  1.0000
  Fe  Fe151     1.0  0.41159  0.96920  0.19446  1.0000
  C   C837      1.0  0.47860  0.92097  0.23616  1.0000
  N   N69       1.0  0.45312  0.92320  0.11719  1.0000
  C   C838      1.0  0.44379  0.94133  0.10717  1.0000
  H   H851      1.0  0.28961  0.71931  0.00643  1.0000
  N   N70       1.0  0.02654  0.66286  0.12090  1.0000
  H   H852      1.0  0.47895  0.94159  0.13898  1.0000
  H   H853      1.0  0.03331  0.94882  0.12490  1.0000
  C   C839      1.0  0.40336  0.76300  0.00893  1.0000
  H   H854      1.0  0.32151  0.69540  0.00047  1.0000
  H   H855      1.0  0.36854  0.67455  0.13108  1.0000
  H   H856      1.0  0.47269  0.90883  0.13671  1.0000
  H   H857      1.0  0.26524  0.75594  0.04791  1.0000
  C   C840      1.0  0.33894  0.73295  0.99766  1.0000
  H   H858      1.0  0.17562  0.92045  0.04211  1.0000
  C   C841      1.0  0.01914  0.67980  0.14670  1.0000
  H   H859      1.0  0.20946  0.82257  0.05550  1.0000
  C   C842      1.0  0.25947  0.81910  0.03193  1.0000
  S   S298      1.0  0.48082  0.97709  0.15223  1.0000
  S   S299      1.0  0.05847  0.96909  0.19277  1.0000
  C   C843      1.0  0.39494  0.97333  0.23824  1.0000
  C   C844      1.0  0.18667  0.93247  0.00559  1.0000
  H   H860      1.0  0.41915  0.76500  0.00126  1.0000
  H   H861      1.0  0.44760  0.89305  0.12945  1.0000
  H   H862      1.0  0.43717  0.90558  0.10895  1.0000
  H   H863      1.0  0.43894  0.97444  0.10090  1.0000
  C   C845      1.0  0.32447  0.86382  0.04304  1.0000
  H   H864      1.0  0.39494  0.88680  0.99304  1.0000
  C   C846      1.0  0.32395  0.86225  0.01152  1.0000
  H   H865      1.0  0.36073  0.69783  0.10108  1.0000
  H   H866      1.0  0.22262  0.78574  0.06727  1.0000
  C   C847      1.0  0.22550  0.81582  0.05053  1.0000
  C   C848      1.0  0.45942  0.96019  0.12003  1.0000
  N   N71       1.0  0.17234  0.92053  0.01454  1.0000
  C   C849      1.0  0.16528  0.91649  0.03527  1.0000
  H   H867      1.0  0.26990  0.82838  0.02197  1.0000
  N   N72       1.0  0.01492  0.96901  0.10593  1.0000
  H   H868      1.0  0.33995  0.96219  0.14303  1.0000
  H   H869      1.0  0.34741  0.92574  0.14845  1.0000
  C   C850      1.0  0.35078  0.97904  0.15710  1.0000
  C   C851      1.0  0.46556  0.92318  0.12854  1.0000
  C   C852      1.0  0.23887  0.82798  0.03798  1.0000
  C   C853      1.0  0.44665  0.96009  0.10858  1.0000
  H   H870      1.0  0.02398  0.68270  0.15813  1.0000
  S   S300      1.0  0.37944  0.69629  0.06150  1.0000
  N   N73       1.0  0.11279  0.91001  0.16898  1.0000
  C   C854      1.0  0.11883  0.89260  0.16189  1.0000
  C   C855      1.0  0.12668  0.92170  0.16709  1.0000
  C   C856      1.0  0.13917  0.88673  0.15228  1.0000
  C   C857      1.0  0.14717  0.91623  0.15763  1.0000
  C   C858      1.0  0.15341  0.89864  0.15015  1.0000
  C   C859      1.0  0.09147  0.91588  0.17919  1.0000
  H   H871      1.0  0.10781  0.88345  0.16312  1.0000
  H   H872      1.0  0.12179  0.93570  0.17242  1.0000
  H   H873      1.0  0.14366  0.87340  0.14599  1.0000
  H   H874      1.0  0.30280  0.88663  0.99785  1.0000
  C   C860      1.0  0.37783  0.67148  0.11759  1.0000
  H   H875      1.0  0.08072  0.90983  0.17458  1.0000
  H   H876      1.0  0.09011  0.91002  0.19474  1.0000
  H   H877      1.0  0.08632  0.93286  0.17624  1.0000
  N   N74       1.0  0.28536  0.83320  0.11497  1.0000
  C   C861      1.0  0.29146  0.81265  0.12202  1.0000
  C   C862      1.0  0.26504  0.84167  0.11524  1.0000
  C   C863      1.0  0.27697  0.80013  0.13010  1.0000
  C   C864      1.0  0.25012  0.82965  0.12327  1.0000
  C   C865      1.0  0.25616  0.80876  0.13082  1.0000
  C   C866      1.0  0.30085  0.84599  0.10675  1.0000
  H   H878      1.0  0.30762  0.80579  0.12135  1.0000
  H   H879      1.0  0.26024  0.85780  0.10923  1.0000
  H   H880      1.0  0.28190  0.78375  0.13534  1.0000
  H   H881      1.0  0.23401  0.83651  0.12347  1.0000
  H   H882      1.0  0.24480  0.79914  0.13672  1.0000
  H   H883      1.0  0.31064  0.84191  0.09333  1.0000
  H   H884      1.0  0.29382  0.86265  0.10373  1.0000
  H   H885      1.0  0.31084  0.84361  0.11683  1.0000
  N   N75       1.0  0.35339  0.94247  0.16576  1.0000
  N   N76       1.0  0.30221  0.89020  0.02532  1.0000
  C   C867      1.0  0.30879  0.88027  0.01063  1.0000
  C   C868      1.0  0.03167  0.96459  0.11584  1.0000
  C   C869      1.0  0.48833  0.97109  0.21781  1.0000
  C   C870      1.0  0.26154  0.76477  0.05915  1.0000
  C   C871      1.0  0.33901  0.91814  0.00245  1.0000
  H   H886      1.0  0.36784  0.92630  0.18888  1.0000
  H   H887      1.0  0.34421  0.72730  0.01080  1.0000
  H   H888      1.0  0.27105  0.90583  0.03065  1.0000
  C   C872      1.0  0.46901  0.94163  0.13002  1.0000
  H   H889      1.0  0.28709  0.91755  0.00896  1.0000
  C   C873      1.0  0.34720  0.96114  0.15448  1.0000
  H   H890      1.0  0.40351  0.96091  0.23141  1.0000
  C   C874      1.0  0.19085  0.85842  0.00843  1.0000
  C   C875      1.0  0.32132  0.74848  0.99653  1.0000
  C   C876      1.0  0.38501  0.68061  0.08310  1.0000
  C   C877      1.0  0.04620  0.91761  0.23702  1.0000
  N   N77       1.0  0.38904  0.77262  0.99626  1.0000
  H   H891      1.0  0.04680  0.94957  0.23251  1.0000
  C   C878      1.0  0.28659  0.90926  0.02400  1.0000
  H   H892      1.0  0.43374  0.94139  0.09831  1.0000
  H   H893      1.0  0.23332  0.84426  0.03300  1.0000
  C   C879      1.0  0.33186  0.85403  0.02783  1.0000
  H   H894      1.0  0.26297  0.74690  0.99324  1.0000
  C   C880      1.0  0.36280  0.94110  0.18000  1.0000
  C   C881      1.0  0.03271  0.66715  0.13495  1.0000
  S   S301      1.0  0.45296  0.92043  0.23766  1.0000
  H   H895      1.0  0.04640  0.96613  0.10539  1.0000
  H   H896      1.0  0.14950  0.92551  0.03932  1.0000
  H   H897      1.0  0.47307  0.96767  0.22319  1.0000
  H   H898      1.0  0.32975  0.85496  0.99949  1.0000
  H   H899      1.0  0.39875  0.77004  0.02153  1.0000
  C   C882      1.0  0.99919  0.68811  0.14397  1.0000
  C   C883      1.0  0.00430  0.98876  0.10131  1.0000
  C   C884      1.0  0.40132  0.66348  0.08267  1.0000
  H   H900      1.0  0.38668  0.80272  0.99990  1.0000
  H   H901      1.0  0.32358  0.92729  0.00490  1.0000
  H   H902      1.0  0.36324  0.99151  0.17391  1.0000
  C   C885      1.0  0.37933  0.89555  0.99568  1.0000
  C   C886      1.0  0.49326  0.92087  0.21903  1.0000
  H   H903      1.0  0.49013  0.96883  0.18946  1.0000
  C   C887      1.0  0.38213  0.79346  0.99283  1.0000
  H   H904      1.0  0.38197  0.94813  0.99094  1.0000
  H   H905      1.0  0.22780  0.89650  0.99075  1.0000
  S   S302      1.0  0.38469  0.99310  0.20426  1.0000
  H   H906      1.0  0.38895  0.74444  0.98983  1.0000
  H   H907      1.0  0.34620  0.99376  0.14791  1.0000
  H   H908      1.0  0.39979  0.66083  0.16751  1.0000
  H   H909      1.0  0.19115  0.70336  0.39409  1.0000
  C   C888      1.0  0.05930  0.67084  0.32351  1.0000
  H   H910      1.0  0.13396  0.78288  0.48440  1.0000
  H   H911      1.0  0.29159  0.71129  0.45686  1.0000
  H   H912      1.0  0.26153  0.73866  0.46768  1.0000
  C   C889      1.0  0.09605  0.85873  0.33327  1.0000
  H   H913      1.0  0.00495  0.89599  0.28295  1.0000
  S   S303      1.0  0.13230  0.72159  0.34888  1.0000
  C   C890      1.0  0.12122  0.82880  0.34466  1.0000
  H   H914      1.0  0.44837  0.96016  0.30383  1.0000
  C   C891      1.0  0.44946  0.90832  0.30348  1.0000
  C   C892      1.0  0.11086  0.67047  0.43773  1.0000
  C   C893      1.0  0.14134  0.70811  0.41779  1.0000
  C   C894      1.0  0.07723  0.68340  0.34061  1.0000
  H   H915      1.0  0.41551  0.91756  0.27550  1.0000
  C   C895      1.0  0.19604  0.66509  0.45880  1.0000
  H   H916      1.0  0.06639  0.87940  0.27055  1.0000
  C   C896      1.0  0.48435  0.92188  0.25230  1.0000
  H   H917      1.0  0.28421  0.68921  0.43960  1.0000
  S   S304      1.0  0.23746  0.71201  0.37623  1.0000
  H   H918      1.0  0.39601  0.94077  0.29734  1.0000
  H   H919      1.0  0.08722  0.95602  0.37746  1.0000
  H   H920      1.0  0.41128  0.96311  0.31790  1.0000
  H   H921      1.0  0.21029  0.76429  0.46365  1.0000
  C   C897      1.0  0.17532  0.70052  0.39719  1.0000
  C   C898      1.0  0.45528  0.96867  0.30955  1.0000
  H   H922      1.0  0.11167  0.71613  0.43615  1.0000
  N   N78       1.0  0.41912  0.93286  0.31340  1.0000
  S   S305      1.0  0.28504  0.68626  0.40107  1.0000
  H   H923      1.0  0.41266  0.94324  0.33919  1.0000
  H   H924      1.0  0.12054  0.82082  0.33397  1.0000
  H   H925      1.0  0.47310  0.92254  0.26542  1.0000
  Fe  Fe152     1.0  0.11931  0.78609  0.41984  1.0000
  S   S306      1.0  0.14969  0.78967  0.40049  1.0000
  S   S307      1.0  0.10020  0.76526  0.41822  1.0000
  Fe  Fe153     1.0  0.12146  0.81469  0.44336  1.0000
  S   S308      1.0  0.15199  0.82099  0.42556  1.0000
  S   S309      1.0  0.10428  0.82621  0.46982  1.0000
  Fe  Fe154     1.0  0.13830  0.82314  0.40103  1.0000
  S   S310      1.0  0.14206  0.84595  0.37305  1.0000
  Fe  Fe155     1.0  0.16031  0.78705  0.42687  1.0000
  S   S311      1.0  0.18843  0.76578  0.43623  1.0000
  S   S312      1.0  0.10695  0.81963  0.41871  1.0000
  S   S313      1.0  0.13061  0.78068  0.44630  1.0000
  Fe  Fe156     1.0  0.06896  0.93294  0.29983  1.0000
  S   S314      1.0  0.04573  0.92736  0.32714  1.0000
  S   S315      1.0  0.07945  0.90710  0.28460  1.0000
  C   C899      1.0  0.44623  0.98914  0.31022  1.0000
  Fe  Fe157     1.0  0.06507  0.94031  0.33848  1.0000
  S   S316      1.0  0.07152  0.92578  0.36756  1.0000
  C   C900      1.0  0.00283  0.91212  0.27600  1.0000
  S   S317      1.0  0.08966  0.94356  0.31178  1.0000
  C   C901      1.0  0.40803  0.94766  0.32534  1.0000
  H   H926      1.0  0.18763  0.67791  0.46538  1.0000
  C   C902      1.0  0.18597  0.70099  0.32959  1.0000
  C   C903      1.0  0.28138  0.68523  0.45490  1.0000
  H   H927      1.0  0.10661  0.67042  0.42496  1.0000
  C   C904      1.0  0.41089  0.93141  0.29933  1.0000
  N   N79       1.0  0.16155  0.70957  0.41282  1.0000
  C   C905      1.0  0.28546  0.69778  0.46471  1.0000
  C   C906      1.0  0.20545  0.71192  0.34575  1.0000
  H   H928      1.0  0.10327  0.94900  0.34543  1.0000
  C   C907      1.0  0.12351  0.86897  0.37193  1.0000
  C   C908      1.0  0.12175  0.88182  0.35417  1.0000
  C   C909      1.0  0.10591  0.89934  0.35271  1.0000
  C   C910      1.0  0.09198  0.90432  0.36906  1.0000
  C   C911      1.0  0.09410  0.89179  0.38688  1.0000
  C   C912      1.0  0.10973  0.87404  0.38831  1.0000
  H   H929      1.0  0.13238  0.87796  0.34146  1.0000
  H   H930      1.0  0.10442  0.90880  0.33893  1.0000
  H   H931      1.0  0.08343  0.89562  0.39959  1.0000
  H   H932      1.0  0.11111  0.86432  0.40209  1.0000
  H   H933      1.0  0.17629  0.68365  0.40082  1.0000
  H   H934      1.0  0.25013  0.67472  0.31363  1.0000
  H   H935      1.0  0.00397  0.92853  0.33156  1.0000
  H   H936      1.0  0.33921  0.68774  0.41943  1.0000
  H   H937      1.0  0.13551  0.70039  0.41023  1.0000
  H   H938      1.0  0.35761  0.68186  0.39850  1.0000
  C   C913      1.0  0.22210  0.69616  0.34106  1.0000
  H   H939      1.0  0.14828  0.82278  0.46312  1.0000
  C   C914      1.0  0.09655  0.68037  0.45147  1.0000
  C   C915      1.0  0.16886  0.71929  0.42237  1.0000
  C   C916      1.0  0.22526  0.72747  0.39273  1.0000
  C   C917      1.0  0.21187  0.74596  0.38729  1.0000
  C   C918      1.0  0.20120  0.75814  0.40047  1.0000
  C   C919      1.0  0.20359  0.75176  0.41921  1.0000
  C   C920      1.0  0.21729  0.73341  0.42463  1.0000
  C   C921      1.0  0.22813  0.72123  0.41138  1.0000
  H   H940      1.0  0.20983  0.75098  0.37283  1.0000
  H   H941      1.0  0.19133  0.77262  0.39600  1.0000
  H   H942      1.0  0.21917  0.72835  0.43913  1.0000
  H   H943      1.0  0.23845  0.70692  0.41566  1.0000
  H   H944      1.0  0.49178  0.97251  0.24504  1.0000
  C   C922      1.0  0.12018  0.82678  0.48428  1.0000
  C   C923      1.0  0.05120  0.93425  0.24065  1.0000
  H   H945      1.0  0.06671  0.86174  0.38452  1.0000
  C   C924      1.0  0.09192  0.84521  0.36649  1.0000
  C   C925      1.0  0.07135  0.78402  0.45783  1.0000
  C   C926      1.0  0.12783  0.71675  0.43256  1.0000
  C   C927      1.0  0.06990  0.76345  0.46477  1.0000
  S   S318      1.0  0.05202  0.96460  0.28919  1.0000
  C   C928      1.0  0.07867  0.87431  0.33631  1.0000
  H   H946      1.0  0.05486  0.88776  0.35747  1.0000
  H   H947      1.0  0.17582  0.67159  0.43953  1.0000
  N   N80       1.0  0.10243  0.84441  0.34827  1.0000
  C   C929      1.0  0.01148  0.92507  0.28146  1.0000
  H   H948      1.0  0.46487  0.89998  0.30484  1.0000
  C   C930      1.0  0.07454  0.86067  0.37005  1.0000
  C   C931      1.0  0.99741  0.95346  0.25857  1.0000
  C   C932      1.0  0.10535  0.96239  0.34895  1.0000
  C   C933      1.0  0.38493  0.98788  0.26612  1.0000
  H   H949      1.0  0.10458  0.85839  0.31882  1.0000
  S   S319      1.0  0.04725  0.97268  0.33158  1.0000
  C   C934      1.0  0.14149  0.82414  0.47757  1.0000
  H   H950      1.0  0.31724  0.66297  0.43873  1.0000
  C   C935      1.0  0.06793  0.87533  0.35484  1.0000
  H   H951      1.0  0.13479  0.83620  0.33947  1.0000
  C   C936      1.0  0.09916  0.98353  0.37145  1.0000
  C   C937      1.0  0.47366  0.95953  0.31552  1.0000
  C   C938      1.0  0.06568  0.75554  0.48432  1.0000
  C   C939      1.0  0.18728  0.71431  0.33996  1.0000
  C   C940      1.0  0.13507  0.72686  0.44224  1.0000
  C   C941      1.0  0.06694  0.91135  0.26607  1.0000
  S   S320      1.0  0.48498  0.93407  0.31418  1.0000
  H   H952      1.0  0.40443  0.95821  0.26434  1.0000
  H   H953      1.0  0.20672  0.72224  0.35374  1.0000
  Fe  Fe158     1.0  0.07036  0.97493  0.30385  1.0000
  H   H954      1.0  0.33065  0.68622  0.39924  1.0000
  H   H955      1.0  0.12451  0.73402  0.45337  1.0000
  C   C942      1.0  0.48319  0.97097  0.32194  1.0000
  C   C943      1.0  0.09638  0.96632  0.36699  1.0000
  C   C944      1.0  0.12268  0.73445  0.36765  1.0000
  C   C945      1.0  0.12999  0.75169  0.36705  1.0000
  C   C946      1.0  0.12302  0.76144  0.38243  1.0000
  C   C947      1.0  0.10852  0.75413  0.39831  1.0000
  C   C948      1.0  0.10072  0.73733  0.39858  1.0000
  C   C949      1.0  0.10797  0.72736  0.38340  1.0000
  H   H956      1.0  0.14118  0.75739  0.35478  1.0000
  H   H957      1.0  0.12866  0.77473  0.38185  1.0000
  H   H958      1.0  0.08924  0.73181  0.41068  1.0000
  H   H959      1.0  0.10178  0.71449  0.38372  1.0000
  H   H960      1.0  0.10832  0.67666  0.31117  1.0000
  H   H961      1.0  0.17420  0.72640  0.34354  1.0000
  C   C950      1.0  0.43819  0.92160  0.31552  1.0000
  H   H962      1.0  0.07217  0.75362  0.45501  1.0000
  C   C951      1.0  0.24513  0.73792  0.46993  1.0000
  Fe  Fe159     1.0  0.03032  0.95999  0.31754  1.0000
  H   H963      1.0  0.02039  0.91899  0.29234  1.0000
  S   S321      1.0  0.28217  0.66607  0.36713  1.0000
  C   C952      1.0  0.23872  0.66749  0.32535  1.0000
  C   C953      1.0  0.09405  0.66621  0.29458  1.0000
  H   H964      1.0  0.04575  0.67225  0.33493  1.0000
  H   H965      1.0  0.16922  0.70730  0.38410  1.0000
  C   C954      1.0  0.42173  0.91827  0.28704  1.0000
  C   C955      1.0  0.39537  0.97174  0.25708  1.0000
  Fe  Fe160     1.0  0.13476  0.68766  0.35994  1.0000
  H   H966      1.0  0.18485  0.72040  0.41847  1.0000
  H   H967      1.0  0.09207  0.98684  0.38539  1.0000
  H   H968      1.0  0.16155  0.73609  0.44452  1.0000
  N   N81       1.0  0.22067  0.68317  0.33088  1.0000
  H   H969      1.0  0.07386  0.88576  0.32436  1.0000
  C   C956      1.0  0.28158  0.69294  0.48463  1.0000
  H   H970      1.0  0.09739  0.83436  0.37841  1.0000
  C   C957      1.0  0.47406  0.99150  0.32269  1.0000
  H   H971      1.0  0.12359  0.81702  0.35778  1.0000
  H   H972      1.0  0.07463  0.79035  0.44267  1.0000
  C   C958      1.0  0.11688  0.97587  0.33549  1.0000
  C   C959      1.0  0.15576  0.72810  0.43720  1.0000
  C   C960      1.0  0.10223  0.68106  0.46777  1.0000
  H   H973      1.0  0.17179  0.70259  0.32524  1.0000
  H   H974      1.0  0.44983  0.89676  0.27943  1.0000
  H   H975      1.0  0.07060  0.81218  0.46503  1.0000
  H   H976      1.0  0.24156  0.74140  0.45567  1.0000
  H   H977      1.0  0.44509  0.92323  0.32623  1.0000
  C   C961      1.0  0.06147  0.93113  0.25525  1.0000
  C   C962      1.0  0.06216  0.89471  0.26224  1.0000
  H   H978      1.0  0.39115  0.94885  0.32822  1.0000
  Fe  Fe161     1.0  0.26069  0.68513  0.38707  1.0000
  C   C963      1.0  0.44106  0.90658  0.28924  1.0000
  Fe  Fe162     1.0  0.30571  0.66433  0.38310  1.0000
  H   H979      1.0  0.24324  0.72202  0.47730  1.0000
  S   S322      1.0  0.38652  0.98567  0.28953  1.0000
  H   H980      1.0  0.16185  0.75493  0.47303  1.0000
  H   H981      1.0  0.23620  0.69445  0.34557  1.0000
  N   N82       1.0  0.11949  0.99276  0.33996  1.0000
  C   C964      1.0  0.27021  0.66259  0.48482  1.0000
  H   H982      1.0  0.06550  0.94397  0.25788  1.0000
  H   H983      1.0  0.22304  0.67177  0.47628  1.0000
  C   C965      1.0  0.05160  0.89787  0.24789  1.0000
  H   H984      1.0  0.17051  0.82184  0.48416  1.0000
  C   C966      1.0  0.09419  0.67336  0.31024  1.0000
  S   S323      1.0  0.16262  0.67206  0.37158  1.0000
  S   S324      1.0  0.33775  0.66738  0.36648  1.0000
  N   N83       1.0  0.07700  0.67542  0.32452  1.0000
  C   C967      1.0  0.00842  0.94592  0.27292  1.0000
  C   C968      1.0  0.34251  0.67941  0.40787  1.0000
  C   C969      1.0  0.06887  0.79636  0.47055  1.0000
  H   H985      1.0  0.20171  0.67513  0.31706  1.0000
  H   H986      1.0  0.09291  0.67944  0.34346  1.0000
  C   C970      1.0  0.20293  0.68546  0.32508  1.0000
  H   H987      1.0  0.01476  0.95612  0.27734  1.0000
  C   C971      1.0  0.18928  0.66161  0.44424  1.0000
  C   C972      1.0  0.27418  0.66734  0.46496  1.0000
  H   H988      1.0  0.08132  0.68797  0.44919  1.0000
  N   N84       1.0  0.23194  0.75239  0.48149  1.0000
  H   H989      1.0  0.06728  0.67630  0.35389  1.0000
  H   H990      1.0  0.04775  0.88498  0.24512  1.0000
  H   H991      1.0  0.10795  0.66365  0.28369  1.0000
  H   H992      1.0  0.07190  0.70033  0.33772  1.0000
  C   C973      1.0  0.21440  0.76476  0.47643  1.0000
  C   C974      1.0  0.05863  0.66367  0.30804  1.0000
  S   S325      1.0  0.08508  0.69482  0.48421  1.0000
  C   C975      1.0  0.15901  0.75669  0.48749  1.0000
  C   C976      1.0  0.12187  0.67115  0.47066  1.0000
  H   H993      1.0  0.12642  0.67156  0.48311  1.0000
  H   H994      1.0  0.12351  0.97287  0.32139  1.0000
  S   S326      1.0  0.11344  0.67191  0.38455  1.0000
  S   S327      1.0  0.13975  0.66528  0.34169  1.0000
  C   C977      1.0  0.07615  0.66131  0.29352  1.0000
  C   C978      1.0  0.13061  0.66078  0.44062  1.0000
  H   H995      1.0  0.18775  0.78820  0.48342  1.0000
  C   C979      1.0  0.20158  0.77839  0.48756  1.0000
  S   S328      1.0  0.18432  0.79714  0.60893  1.0000
  H   H996      1.0  0.20797  0.73125  0.60424  1.0000
  S   S329      1.0  0.08244  0.70937  0.53144  1.0000
  C   C980      1.0  0.14690  0.72028  0.60188  1.0000
  H   H997      1.0  0.34097  0.70898  0.61633  1.0000
  Fe  Fe163     1.0  0.10470  0.73007  0.52370  1.0000
  S   S330      1.0  0.09442  0.76328  0.52417  1.0000
  C   C981      1.0  0.33827  0.66612  0.58340  1.0000
  C   C982      1.0  0.00231  0.90798  0.73357  1.0000
  Fe  Fe164     1.0  0.24546  0.68988  0.56234  1.0000
  S   S331      1.0  0.27046  0.74499  0.57546  1.0000
  Fe  Fe165     1.0  0.15971  0.81044  0.59219  1.0000
  N   N85       1.0  0.31542  0.70984  0.60513  1.0000
  Fe  Fe166     1.0  0.27059  0.71893  0.56313  1.0000
  C   C983      1.0  0.00668  0.89694  0.71948  1.0000
  S   S332      1.0  0.26223  0.69055  0.58358  1.0000
  C   C984      1.0  0.30023  0.70017  0.60599  1.0000
  Fe  Fe167     1.0  0.11850  0.80600  0.58934  1.0000
  S   S333      1.0  0.12756  0.82062  0.60817  1.0000
  S   S334      1.0  0.09870  0.78250  0.59982  1.0000
  H   H998      1.0  0.13830  0.89945  0.60907  1.0000
  H   H999      1.0  0.16125  0.76052  0.54924  1.0000
  Fe  Fe168     1.0  0.10629  0.68646  0.54575  1.0000
  Fe  Fe169     1.0  0.12642  0.84840  0.58415  1.0000
  S   S335      1.0  0.11485  0.88154  0.58676  1.0000
  S   S336      1.0  0.11453  0.83467  0.56651  1.0000
  Fe  Fe170     1.0  0.00592  0.97166  0.66223  1.0000
  S   S337      1.0  0.01434  0.94450  0.68483  1.0000
  C   C985      1.0  0.20147  0.72291  0.59732  1.0000
  Fe  Fe171     1.0  0.04720  0.98336  0.65340  1.0000
  S   S338      1.0  0.05953  0.95679  0.67520  1.0000
  H   H1000     1.0  0.13772  0.77831  0.54625  1.0000
  Fe  Fe172     1.0  0.04464  0.93851  0.66428  1.0000
  S   S339      1.0  0.05665  0.90523  0.66250  1.0000
  Fe  Fe173     1.0  0.02832  0.96509  0.69366  1.0000
  S   S340      1.0  0.02089  0.96467  0.72482  1.0000
  S   S341      1.0  0.03502  0.96436  0.64080  1.0000
  C   C986      1.0  0.02567  0.92783  0.61869  1.0000
  Fe  Fe174     1.0  0.14769  0.82312  0.55401  1.0000
  C   C987      1.0  0.22941  0.76273  0.57571  1.0000
  C   C988      1.0  0.22458  0.77905  0.60721  1.0000
  C   C989      1.0  0.14349  0.77240  0.49377  1.0000
  C   C990      1.0  0.14683  0.76280  0.54447  1.0000
  S   S342      1.0  0.15956  0.83930  0.56957  1.0000
  H   H1001     1.0  0.17757  0.84170  0.60281  1.0000
  Fe  Fe175     1.0  0.10091  0.69810  0.50530  1.0000
  H   H1002     1.0  0.06788  0.90542  0.73096  1.0000
  C   C991      1.0  0.21533  0.69056  0.53311  1.0000
  C   C992      1.0  0.16874  0.88119  0.58492  1.0000
  C   C993      1.0  0.20703  0.69188  0.51762  1.0000
  H   H1003     1.0  0.13181  0.84631  0.65419  1.0000
  H   H1004     1.0  0.16044  0.82530  0.63471  1.0000
  H   H1005     1.0  0.25647  0.76504  0.60635  1.0000
  S   S343      1.0  0.16229  0.82096  0.52367  1.0000
  H   H1006     1.0  0.16218  0.67684  0.54186  1.0000
  C   C994      1.0  0.09748  0.88794  0.60741  1.0000
  C   C995      1.0  0.09040  0.87285  0.62275  1.0000
  C   C996      1.0  0.07772  0.87838  0.63952  1.0000
  C   C997      1.0  0.07199  0.89899  0.64103  1.0000
  C   C998      1.0  0.07887  0.91411  0.62562  1.0000
  C   C999      1.0  0.09157  0.90858  0.60886  1.0000
  H   H1007     1.0  0.09484  0.85692  0.62176  1.0000
  H   H1008     1.0  0.07239  0.86661  0.65139  1.0000
  H   H1009     1.0  0.07466  0.93002  0.62668  1.0000
  H   H1010     1.0  0.09707  0.92032  0.59705  1.0000
  C   C1000     1.0  0.18755  0.68751  0.52078  1.0000
  S   S344      1.0  0.12118  0.72102  0.49615  1.0000
  C   C1001     1.0  0.18491  0.68008  0.55477  1.0000
  H   H1011     1.0  0.31642  0.72807  0.57715  1.0000
  C   C1002     1.0  0.04215  0.89997  0.71239  1.0000
  H   H1012     1.0  0.19758  0.77779  0.57611  1.0000
  H   H1013     1.0  0.23134  0.75655  0.56344  1.0000
  H   H1014     1.0  0.17680  0.75536  0.61060  1.0000
  H   H1015     1.0  0.13776  0.75126  0.55370  1.0000
  C   C1003     1.0  0.06608  0.66083  0.56445  1.0000
  S   S345      1.0  0.15080  0.79346  0.57551  1.0000
  H   H1016     1.0  0.18352  0.87141  0.57923  1.0000
  H   H1017     1.0  0.05761  0.89710  0.70375  1.0000
  H   H1018     1.0  0.17187  0.89625  0.58450  1.0000
  N   N86       1.0  0.15134  0.76097  0.52469  1.0000
  H   H1019     1.0  0.33834  0.67585  0.63897  1.0000
  H   H1020     1.0  0.11753  0.82878  0.52975  1.0000
  Fe  Fe176     1.0  0.27936  0.70043  0.52875  1.0000
  C   C1004     1.0  0.06612  0.99003  0.72777  1.0000
  C   C1005     1.0  0.20794  0.78287  0.59870  1.0000
  C   C1006     1.0  0.24364  0.76759  0.59981  1.0000
  H   H1021     1.0  0.23034  0.69400  0.53066  1.0000
  H   H1022     1.0  0.12094  0.88369  0.64122  1.0000
  C   C1007     1.0  0.09288  0.76843  0.54609  1.0000
  C   C1008     1.0  0.09136  0.78864  0.54704  1.0000
  C   C1009     1.0  0.09240  0.79298  0.56381  1.0000
  C   C1010     1.0  0.09456  0.77721  0.57982  1.0000
  C   C1011     1.0  0.09488  0.75707  0.57924  1.0000
  C   C1012     1.0  0.09423  0.75263  0.56228  1.0000
  H   H1023     1.0  0.08988  0.80094  0.53468  1.0000
  H   H1024     1.0  0.09132  0.80863  0.56437  1.0000
  H   H1025     1.0  0.09609  0.74484  0.59169  1.0000
  H   H1026     1.0  0.09486  0.73703  0.56173  1.0000
  C   C1013     1.0  0.13377  0.87447  0.63312  1.0000
  H   H1027     1.0  0.27030  0.67171  0.50989  1.0000
  C   C1014     1.0  0.13995  0.77440  0.51246  1.0000
  C   C1015     1.0  0.15577  0.84171  0.62941  1.0000
  C   C1016     1.0  0.21035  0.77480  0.58283  1.0000
  C   C1017     1.0  0.16840  0.71566  0.59821  1.0000
  C   C1018     1.0  0.06251  0.80182  0.50261  1.0000
  C   C1019     1.0  0.27363  0.67548  0.49462  1.0000
  C   C1020     1.0  0.13978  0.85348  0.64032  1.0000
  N   N87       1.0  0.17893  0.72798  0.60160  1.0000
  C   C1021     1.0  0.05356  0.98231  0.72074  1.0000
  H   H1028     1.0  0.48728  0.99154  0.73229  1.0000
  H   H1029     1.0  0.05612  0.98346  0.70567  1.0000
  C   C1022     1.0  0.31203  0.67264  0.63075  1.0000
  N   N88       1.0  0.15935  0.87167  0.60431  1.0000
  H   H1030     1.0  0.17493  0.73409  0.52861  1.0000
  C   C1023     1.0  0.13619  0.73764  0.60904  1.0000
  H   H1031     1.0  0.33172  0.73401  0.58992  1.0000
  H   H1032     1.0  0.36115  0.68109  0.58517  1.0000
  C   C1024     1.0  0.14373  0.88334  0.61495  1.0000
  H   H1033     1.0  0.03029  0.88476  0.69742  1.0000
  C   C1025     1.0  0.00234  0.95985  0.60781  1.0000
  H   H1034     1.0  0.09507  0.83132  0.50822  1.0000
  H   H1035     1.0  0.22281  0.78520  0.61948  1.0000
  S   S346      1.0  0.12710  0.70846  0.54016  1.0000
  C   C1026     1.0  0.12428  0.82770  0.51520  1.0000
  C   C1027     1.0  0.16853  0.74529  0.60826  1.0000
  H   H1036     1.0  0.28971  0.70683  0.59653  1.0000
  S   S347      1.0  0.12292  0.67314  0.52030  1.0000
  H   H1037     1.0  0.20754  0.72688  0.58173  1.0000
  H   H1038     1.0  0.05829  0.93099  0.71807  1.0000
  S   S348      1.0  0.29970  0.70233  0.54685  1.0000
  H   H1039     1.0  0.15809  0.88366  0.57542  1.0000
  H   H1040     1.0  0.17660  0.70207  0.59273  1.0000
  H   H1041     1.0  0.11951  0.74138  0.61208  1.0000
  N   N89       1.0  0.03772  0.91062  0.72638  1.0000
  Fe  Fe177     1.0  0.14174  0.69710  0.51329  1.0000
  C   C1028     1.0  0.32870  0.70154  0.61711  1.0000
  H   H1042     1.0  0.13873  0.76406  0.61739  1.0000
  C   C1029     1.0  0.16633  0.74521  0.51878  1.0000
  C   C1030     1.0  0.03761  0.97335  0.73325  1.0000
  C   C1031     1.0  0.17062  0.74308  0.50000  1.0000
  H   H1043     1.0  0.06479  0.73948  0.48985  1.0000
  C   C1032     1.0  0.01803  0.91498  0.73667  1.0000
  C   C1033     1.0  0.14563  0.82462  0.50854  1.0000
  C   C1034     1.0  0.16542  0.85109  0.61131  1.0000
  S   S349      1.0  0.25125  0.71986  0.54342  1.0000
  C   C1035     1.0  0.24612  0.75924  0.58417  1.0000
  H   H1044     1.0  0.28688  0.67331  0.61868  1.0000
  H   H1045     1.0  0.20713  0.70620  0.60245  1.0000
  H   H1046     1.0  0.48098  0.66290  0.64836  1.0000
  C   C1036     1.0  0.02673  0.89292  0.70875  1.0000
  C   C1037     1.0  0.20411  0.68490  0.55171  1.0000
  H   H1047     1.0  0.13859  0.71044  0.59923  1.0000
  C   C1038     1.0  0.14702  0.75030  0.61218  1.0000
  S   S350      1.0  0.27214  0.67026  0.54657  1.0000
  C   C1039     1.0  0.20679  0.77934  0.50394  1.0000
  H   H1048     1.0  0.02090  0.92545  0.63441  1.0000
  H   H1049     1.0  0.12761  0.78646  0.51724  1.0000
  H   H1050     1.0  0.07802  0.80379  0.50238  1.0000
  H   H1051     1.0  0.01072  0.96824  0.61222  1.0000
  H   H1052     1.0  0.22888  0.76715  0.52175  1.0000
  C   C1040     1.0  0.06284  0.76845  0.49666  1.0000
  Fe  Fe178     1.0  0.28997  0.67373  0.56605  1.0000
  H   H1053     1.0  0.21557  0.69653  0.50328  1.0000
  H   H1054     1.0  0.05968  0.76214  0.51185  1.0000
  H   H1055     1.0  0.30398  0.74166  0.59589  1.0000
  H   H1056     1.0  0.33295  0.67817  0.57211  1.0000
  H   H1057     1.0  0.25094  0.74305  0.50167  1.0000
  S   S351      1.0  0.01712  0.99303  0.67281  1.0000
  C   C1041     1.0  0.31706  0.72936  0.59142  1.0000
  C   C1042     1.0  0.11156  0.82901  0.50300  1.0000
  S   S352      1.0  0.17595  0.69133  0.50173  1.0000
  H   H1058     1.0  0.03220  0.91257  0.61496  1.0000
  S   S353      1.0  0.21351  0.68427  0.57132  1.0000
  H   H1059     1.0  0.19710  0.79010  0.51253  1.0000
  H   H1060     1.0  0.05295  0.81720  0.49820  1.0000
  C   C1043     1.0  0.32719  0.68284  0.63011  1.0000
  H   H1061     1.0  0.05549  0.79510  0.51751  1.0000
  C   C1044     1.0  0.17676  0.68118  0.53934  1.0000
  C   C1045     1.0  0.35432  0.66767  0.59071  1.0000
  S   S354      1.0  0.09978  0.66523  0.57426  1.0000
  H   H1062     1.0  0.03831  0.93648  0.61355  1.0000
  C   C1046     1.0  0.05412  0.91796  0.72981  1.0000
  N   N90       1.0  0.00807  0.93896  0.61009  1.0000
  S   S355      1.0  0.28633  0.70921  0.49661  1.0000
  C   C1047     1.0  0.29839  0.68136  0.61867  1.0000
  C   C1048     1.0  0.22461  0.76651  0.50908  1.0000
  H   H1063     1.0  0.17638  0.67529  0.56909  1.0000
  H   H1064     1.0  0.18265  0.73077  0.49525  1.0000
  N   N91       1.0  0.06448  0.78858  0.48970  1.0000
  H   H1065     1.0  0.48254  0.98869  0.70260  1.0000
  H   H1066     1.0  0.06932  0.67284  0.55211  1.0000
  H   H1067     1.0  0.00064  0.91172  0.60804  1.0000
  C   C1049     1.0  0.23704  0.75297  0.49765  1.0000
  H   H1068     1.0  0.44959  0.66232  0.73815  1.0000
  C   C1050     1.0  0.15412  0.82337  0.48959  1.0000
  H   H1069     1.0  0.01436  0.92406  0.74729  1.0000
  H   H1070     1.0  0.21788  0.88363  0.96760  1.0000
  C   C1051     1.0  0.28705  0.87956  0.88132  1.0000
  C   C1052     1.0  0.30097  0.84240  0.88674  1.0000
  H   H1071     1.0  0.32339  0.81034  0.92195  1.0000
  H   H1072     1.0  0.31344  0.80980  0.89276  1.0000
  Fe  Fe179     1.0  0.38024  0.90486  0.90995  1.0000
  S   S356      1.0  0.37651  0.88236  0.93791  1.0000
  S   S357      1.0  0.41023  0.91545  0.89742  1.0000
  Fe  Fe180     1.0  0.33815  0.90555  0.90510  1.0000
  S   S358      1.0  0.33023  0.88368  0.93288  1.0000
  S   S359      1.0  0.31782  0.91792  0.88420  1.0000
  Fe  Fe181     1.0  0.34487  0.90165  0.94422  1.0000
  S   S360      1.0  0.32984  0.91167  0.97176  1.0000
  Fe  Fe182     1.0  0.36232  0.86618  0.92440  1.0000
  S   S361      1.0  0.36778  0.83175  0.93152  1.0000
  S   S362      1.0  0.34949  0.92547  0.91717  1.0000
  S   S363      1.0  0.36933  0.88670  0.89561  1.0000
  Fe  Fe183     1.0  0.34569  0.76586  0.88370  1.0000
  S   S364      1.0  0.32709  0.76453  0.91327  1.0000
  S   S365      1.0  0.35905  0.79340  0.86783  1.0000
  Fe  Fe184     1.0  0.33931  0.72539  0.88136  1.0000
  S   S366      1.0  0.32005  0.71984  0.91114  1.0000
  S   S367      1.0  0.34395  0.70793  0.85858  1.0000
  Fe  Fe185     1.0  0.30500  0.75314  0.90399  1.0000
  S   S368      1.0  0.27166  0.76488  0.91611  1.0000
  Fe  Fe186     1.0  0.34329  0.73164  0.91883  1.0000
  S   S369      1.0  0.35401  0.71786  0.94634  1.0000
  S   S370      1.0  0.32195  0.75785  0.87362  1.0000
  S   S371      1.0  0.36425  0.73389  0.88968  1.0000
  Fe  Fe187     1.0  0.21150  0.91313  0.91947  1.0000
  H   H1073     1.0  0.36386  0.81966  0.97726  1.0000
  S   S372      1.0  0.22405  0.93731  0.92446  1.0000
  Fe  Fe188     1.0  0.17732  0.90051  0.91005  1.0000
  S   S373      1.0  0.19127  0.86701  0.91809  1.0000
  S   S374      1.0  0.14614  0.90881  0.90271  1.0000
  H   H1074     1.0  0.43202  0.70506  0.84355  1.0000
  Fe  Fe189     1.0  0.22104  0.87640  0.90208  1.0000
  S   S375      1.0  0.24415  0.85931  0.88116  1.0000
  S   S376      1.0  0.18068  0.90730  0.93642  1.0000
  S   S377      1.0  0.20680  0.90955  0.89221  1.0000
  Fe  Fe190     1.0  0.05608  0.96421  0.82416  1.0000
  S   S378      1.0  0.08555  0.95785  0.80255  1.0000
  S   S379      1.0  0.03333  0.94373  0.83878  1.0000
  C   C1053     1.0  0.17059  0.91613  0.98443  1.0000
  C   C1054     1.0  0.03455  0.97167  0.75280  1.0000
  H   H1075     1.0  0.30007  0.87553  0.91241  1.0000
  H   H1076     1.0  0.41515  0.90304  0.93920  1.0000
  H   H1077     1.0  0.35800  0.76970  0.84063  1.0000
  Fe  Fe191     1.0  0.09868  0.97252  0.81858  1.0000
  S   S380      1.0  0.13100  0.96420  0.82334  1.0000
  C   C1055     1.0  0.31583  0.82441  0.91377  1.0000
  S   S381      1.0  0.07021  0.97584  0.84166  1.0000
  H   H1078     1.0  0.31018  0.69919  0.95434  1.0000
  C   C1056     1.0  0.36938  0.68076  0.83751  1.0000
  C   C1057     1.0  0.31229  0.84301  0.91917  1.0000
  H   H1079     1.0  0.30080  0.76739  0.97862  1.0000
  C   C1058     1.0  0.36119  0.95581  0.84965  1.0000
  H   H1080     1.0  0.35825  0.68611  0.82862  1.0000
  H   H1081     1.0  0.35002  0.74953  0.83560  1.0000
  H   H1082     1.0  0.25991  0.75057  0.96007  1.0000
  H   H1083     1.0  0.16642  0.88724  0.86942  1.0000
  C   C1059     1.0  0.34932  0.72409  0.98195  1.0000
  H   H1084     1.0  0.04917  0.92350  0.74328  1.0000
  C   C1060     1.0  0.39467  0.96017  0.83219  1.0000
  C   C1061     1.0  0.40290  0.93966  0.83958  1.0000
  H   H1085     1.0  0.48304  0.66436  0.74260  1.0000
  C   C1062     1.0  0.28445  0.72464  0.95539  1.0000
  C   C1063     1.0  0.36889  0.93523  0.85722  1.0000
  Fe  Fe192     1.0  0.07468  0.99014  0.78735  1.0000
  C   C1064     1.0  0.38386  0.93618  0.94319  1.0000
  H   H1086     1.0  0.42066  0.73648  0.85696  1.0000
  H   H1087     1.0  0.40919  0.66147  0.86928  1.0000
  C   C1065     1.0  0.49448  0.98544  0.75960  1.0000
  H   H1088     1.0  0.38430  0.93263  0.92989  1.0000
  C   C1066     1.0  0.30276  0.86103  0.90827  1.0000
  C   C1067     1.0  0.03050  0.92579  0.79268  1.0000
  C   C1068     1.0  0.14254  0.92355  0.88027  1.0000
  C   C1069     1.0  0.12319  0.92732  0.87602  1.0000
  C   C1070     1.0  0.11959  0.93948  0.85845  1.0000
  C   C1071     1.0  0.13538  0.94785  0.84499  1.0000
  C   C1072     1.0  0.15489  0.94372  0.84907  1.0000
  C   C1073     1.0  0.15847  0.93162  0.86670  1.0000
  H   H1089     1.0  0.11086  0.92097  0.88643  1.0000
  H   H1090     1.0  0.10458  0.94241  0.85534  1.0000
  H   H1091     1.0  0.16716  0.95015  0.83866  1.0000
  H   H1092     1.0  0.17345  0.92877  0.86985  1.0000
  C   C1074     1.0  0.26378  0.79105  0.90632  1.0000
  C   C1075     1.0  0.24847  0.80352  0.91725  1.0000
  C   C1076     1.0  0.24247  0.82457  0.90967  1.0000
  C   C1077     1.0  0.25139  0.83305  0.89097  1.0000
  C   C1078     1.0  0.26619  0.82045  0.87985  1.0000
  C   C1079     1.0  0.27267  0.79958  0.88762  1.0000
  H   H1093     1.0  0.24155  0.79699  0.93172  1.0000
  H   H1094     1.0  0.23101  0.83419  0.91835  1.0000
  H   H1095     1.0  0.27283  0.82686  0.86526  1.0000
  H   H1096     1.0  0.28422  0.78998  0.87901  1.0000
  C   C1080     1.0  0.06292  0.98857  0.74731  1.0000
  C   C1081     1.0  0.27296  0.73620  0.98477  1.0000
  C   C1082     1.0  0.38032  0.68166  0.86516  1.0000
  C   C1083     1.0  0.36591  0.68864  0.85372  1.0000
  C   C1084     1.0  0.38809  0.97464  0.87428  1.0000
  H   H1097     1.0  0.31723  0.84348  0.93153  1.0000
  C   C1085     1.0  0.18526  0.92820  0.97518  1.0000
  H   H1098     1.0  0.37777  0.68765  0.87767  1.0000
  C   C1086     1.0  0.36906  0.80310  0.98026  1.0000
  C   C1087     1.0  0.36713  0.82116  0.91302  1.0000
  C   C1088     1.0  0.36373  0.83371  0.89559  1.0000
  C   C1089     1.0  0.36220  0.82506  0.88132  1.0000
  C   C1090     1.0  0.36359  0.80390  0.88464  1.0000
  C   C1091     1.0  0.36723  0.79131  0.90197  1.0000
  C   C1092     1.0  0.36915  0.79991  0.91609  1.0000
  H   H1099     1.0  0.36186  0.85009  0.89317  1.0000
  H   H1100     1.0  0.35923  0.83486  0.86798  1.0000
  H   H1101     1.0  0.36860  0.77490  0.90452  1.0000
  H   H1102     1.0  0.37197  0.79007  0.92943  1.0000
  C   C1093     1.0  0.29189  0.92493  0.89525  1.0000
  C   C1094     1.0  0.28615  0.92579  0.91445  1.0000
  C   C1095     1.0  0.26524  0.93039  0.92330  1.0000
  C   C1096     1.0  0.25012  0.93356  0.91307  1.0000
  C   C1097     1.0  0.25590  0.93268  0.89389  1.0000
  C   C1098     1.0  0.27675  0.92886  0.88489  1.0000
  H   H1103     1.0  0.29777  0.92297  0.92249  1.0000
  H   H1104     1.0  0.26079  0.93095  0.93817  1.0000
  H   H1105     1.0  0.24424  0.93514  0.88596  1.0000
  H   H1106     1.0  0.28113  0.92841  0.86999  1.0000
  H   H1107     1.0  0.41935  0.93374  0.83609  1.0000
  C   C1099     1.0  0.31026  0.82408  0.89739  1.0000
  H   H1108     1.0  0.16009  0.83109  0.91052  1.0000
  C   C1100     1.0  0.32470  0.74646  0.96398  1.0000
  H   H1109     1.0  0.04476  0.97780  0.77496  1.0000
  H   H1110     1.0  0.28131  0.87679  0.87001  1.0000
  C   C1101     1.0  0.10715  0.97258  0.88926  1.0000
  H   H1111     1.0  0.14485  0.86681  0.89571  1.0000
  H   H1112     1.0  0.43132  0.91095  0.94973  1.0000
  C   C1102     1.0  0.09256  0.98401  0.87868  1.0000
  C   C1103     1.0  0.03635  0.93473  0.80451  1.0000
  C   C1104     1.0  0.02600  0.93310  0.82353  1.0000
  H   H1113     1.0  0.37343  0.98533  0.87553  1.0000
  C   C1105     1.0  0.34209  0.73067  0.96511  1.0000
  H   H1114     1.0  0.04914  0.94247  0.79900  1.0000
  H   H1115     1.0  0.00681  0.98669  0.83935  1.0000
  H   H1116     1.0  0.35110  0.96065  0.97687  1.0000
  H   H1117     1.0  0.31846  0.75117  0.95148  1.0000
  C   C1106     1.0  0.42582  0.94689  0.87108  1.0000
  C   C1107     1.0  0.40842  0.94080  0.88403  1.0000
  C   C1108     1.0  0.38965  0.95482  0.88575  1.0000
  H   H1118     1.0  0.43750  0.97115  0.84893  1.0000
  H   H1119     1.0  0.14927  0.98888  0.85955  1.0000
  H   H1120     1.0  0.44043  0.93612  0.86975  1.0000
  H   H1121     1.0  0.37625  0.95048  0.89579  1.0000
  C   C1109     1.0  0.12761  0.97456  0.88246  1.0000
  H   H1122     1.0  0.03889  0.92664  0.77811  1.0000
  H   H1123     1.0  0.42539  0.92577  0.92733  1.0000
  H   H1124     1.0  0.29813  0.88991  0.87458  1.0000
  C   C1110     1.0  0.29959  0.70936  0.96308  1.0000
  C   C1111     1.0  0.13326  0.98775  0.86495  1.0000
  C   C1112     1.0  0.27126  0.73829  0.96622  1.0000
  C   C1113     1.0  0.41910  0.91662  0.94147  1.0000
  H   H1125     1.0  0.16463  0.90908  0.97642  1.0000
  H   H1126     1.0  0.00174  0.92117  0.84536  1.0000
  C   C1114     1.0  0.31448  0.75545  0.97955  1.0000
  N   N92       1.0  0.29700  0.86047  0.89243  1.0000
  S   S382      1.0  0.22856  0.88083  0.92761  1.0000
  C   C1115     1.0  0.39809  0.66687  0.86037  1.0000
  H   H1127     1.0  0.20512  0.94543  0.97871  1.0000
  C   C1116     1.0  0.38727  0.66616  0.83259  1.0000
  C   C1117     1.0  0.40022  0.93357  0.96795  1.0000
  N   N93       1.0  0.37405  0.96799  0.83730  1.0000
  H   H1128     1.0  0.37166  0.88888  0.97260  1.0000
  C   C1118     1.0  0.00949  0.92291  0.83055  1.0000
  H   H1129     1.0  0.47861  0.98955  0.76673  1.0000
  C   C1119     1.0  0.42420  0.96669  0.85932  1.0000
  C   C1120     1.0  0.04729  0.97912  0.75985  1.0000
  C   C1121     1.0  0.19336  0.93644  0.98580  1.0000
  N   N94       1.0  0.30137  0.70760  0.98118  1.0000
  H   H1130     1.0  0.41117  0.69899  0.82432  1.0000
  C   C1122     1.0  0.01385  0.91584  0.79964  1.0000
  H   H1131     1.0  0.02224  0.96470  0.76256  1.0000
  H   H1132     1.0  0.27351  0.88732  0.89070  1.0000
  S   S383      1.0  0.19049  0.85623  0.97277  1.0000
  C   C1123     1.0  0.38991  0.92717  0.85226  1.0000
  Fe  Fe193     1.0  0.19735  0.87466  0.94289  1.0000
  C   C1124     1.0  0.38252  0.94531  0.97725  1.0000
  N   N95       1.0  0.40067  0.92911  0.95115  1.0000
  C   C1125     1.0  0.34612  0.90846  0.98709  1.0000
  H   H1133     1.0  0.35863  0.92574  0.86713  1.0000
  H   H1134     1.0  0.36456  0.76616  0.81664  1.0000
  H   H1135     1.0  0.39620  0.91144  0.85859  1.0000
  C   C1126     1.0  0.36519  0.95228  0.96939  1.0000
  H   H1136     1.0  0.28308  0.72614  0.94101  1.0000
  H   H1137     1.0  0.41330  0.92757  0.97461  1.0000
  C   C1127     1.0  0.37026  0.77010  0.97468  1.0000
  S   S384      1.0  0.00731  0.90407  0.78480  1.0000
  C   C1128     1.0  0.00317  0.91464  0.81853  1.0000
  S   S385      1.0  0.44310  0.99348  0.79854  1.0000
  H   H1138     1.0  0.29696  0.84208  0.87390  1.0000
  H   H1139     1.0  0.07663  0.98251  0.88372  1.0000
  H   H1140     1.0  0.34488  0.96202  0.85397  1.0000
  H   H1141     1.0  0.35224  0.95261  0.94626  1.0000
  N   N96       1.0  0.19342  0.86353  0.86915  1.0000
  C   C1129     1.0  0.17312  0.87160  0.87553  1.0000
  C   C1130     1.0  0.20199  0.84397  0.87727  1.0000
  C   C1131     1.0  0.16079  0.86001  0.89036  1.0000
  C   C1132     1.0  0.19012  0.83192  0.89212  1.0000
  C   C1133     1.0  0.16937  0.84004  0.89870  1.0000
  C   C1134     1.0  0.20623  0.87648  0.85438  1.0000
  H   H1142     1.0  0.38868  0.76109  0.85114  1.0000
  H   H1143     1.0  0.21820  0.83770  0.87254  1.0000
  H   H1144     1.0  0.35288  0.79859  0.96148  1.0000
  H   H1145     1.0  0.19715  0.81662  0.89879  1.0000
  C   C1135     1.0  0.36582  0.94771  0.95224  1.0000
  H   H1146     1.0  0.19783  0.88587  0.84318  1.0000
  H   H1147     1.0  0.21062  0.88687  0.86083  1.0000
  H   H1148     1.0  0.22063  0.86714  0.84746  1.0000
  N   N97       1.0  0.38189  0.74370  0.83498  1.0000
  C   C1136     1.0  0.39358  0.74751  0.84515  1.0000
  C   C1137     1.0  0.38818  0.72667  0.82735  1.0000
  C   C1138     1.0  0.41176  0.73369  0.84844  1.0000
  C   C1139     1.0  0.40646  0.71273  0.83005  1.0000
  C   C1140     1.0  0.41816  0.71614  0.84088  1.0000
  C   C1141     1.0  0.36270  0.75803  0.83178  1.0000
  C   C1142     1.0  0.36569  0.98977  0.83038  1.0000
  H   H1149     1.0  0.37872  0.72346  0.81957  1.0000
  H   H1150     1.0  0.33147  0.68878  0.97789  1.0000
  C   C1143     1.0  0.38343  0.76095  0.98723  1.0000
  H   H1151     1.0  0.13912  0.96542  0.89042  1.0000
  H   H1152     1.0  0.35184  0.99165  0.82483  1.0000
  C   C1144     1.0  0.21191  0.87854  0.98261  1.0000
  H   H1153     1.0  0.36268  0.71177  0.98301  1.0000
  H   H1154     1.0  0.40502  0.97000  0.82300  1.0000
  H   H1155     1.0  0.36577  0.76086  0.96756  1.0000
  C   C1145     1.0  0.36617  0.89685  0.98397  1.0000
  C   C1146     1.0  0.36299  0.79129  0.97127  1.0000
  H   H1156     1.0  0.10273  0.96190  0.90253  1.0000
  H   H1157     1.0  0.19075  0.93078  0.95986  1.0000
  C   C1147     1.0  0.40524  0.98048  0.86082  1.0000
  C   C1148     1.0  0.31714  0.69127  0.98903  1.0000
  C   C1149     1.0  0.19847  0.86489  0.98893  1.0000
  H   H1158     1.0  0.86904  0.16395  0.99906  1.0000
  H   H1159     1.0  0.53664  0.04250  0.21775  1.0000
  H   H1160     1.0  0.50159  0.04048  0.14857  1.0000
  H   H1161     1.0  0.98199  0.04810  0.19396  1.0000
  C   C1150     1.0  0.92890  0.00494  0.10513  1.0000
  Fe  Fe194     1.0  0.64511  0.15376  0.02601  1.0000
  S   S386      1.0  0.65340  0.11938  0.03092  1.0000
  Fe  Fe195     1.0  0.64131  0.15357  0.06723  1.0000
  S   S387      1.0  0.64921  0.11932  0.07597  1.0000
  S   S388      1.0  0.63438  0.17343  0.08810  1.0000
  Fe  Fe196     1.0  0.67326  0.12164  0.04895  1.0000
  S   S389      1.0  0.70586  0.10466  0.04652  1.0000
  Fe  Fe197     1.0  0.62848  0.12026  0.05739  1.0000
  S   S390      1.0  0.60519  0.10028  0.06754  1.0000
  S   S391      1.0  0.66730  0.15597  0.04180  1.0000
  S   S392      1.0  0.61832  0.15448  0.05091  1.0000
  H   H1162     1.0  0.88275  0.16600  0.15328  1.0000
  Fe  Fe198     1.0  0.77266  0.20624  0.03203  1.0000
  H   H1163     1.0  0.63379  0.10390  0.11972  1.0000
  Fe  Fe199     1.0  0.81005  0.17212  0.03818  1.0000
  C   C1151     1.0  0.89266  0.16510  0.13940  1.0000
  S   S393      1.0  0.84367  0.16116  0.03895  1.0000
  Fe  Fe200     1.0  0.76750  0.16515  0.05738  1.0000
  S   S394      1.0  0.74718  0.14993  0.08318  1.0000
  H   H1164     1.0  0.63428  0.07878  0.10134  1.0000
  S   S395      1.0  0.78437  0.18828  0.05821  1.0000
  Fe  Fe201     1.0  0.94045  0.10578  0.11945  1.0000
  S   S396      1.0  0.91211  0.11348  0.14148  1.0000
  S   S397      1.0  0.96495  0.12460  0.10843  1.0000
  Fe  Fe202     1.0  0.92889  0.06731  0.11745  1.0000
  S   S398      1.0  0.89969  0.07156  0.13956  1.0000
  S   S399      1.0  0.94096  0.03907  0.10541  1.0000
  Fe  Fe203     1.0  0.89575  0.10465  0.12384  1.0000
  S   S400      1.0  0.86416  0.12317  0.12035  1.0000
  Fe  Fe204     1.0  0.91863  0.07994  0.15508  1.0000
  S   S401      1.0  0.91980  0.06580  0.18577  1.0000
  S   S402      1.0  0.92371  0.09972  0.10044  1.0000
  S   S403      1.0  0.94823  0.07295  0.13423  1.0000
  H   H1165     1.0  0.91117  0.17882  0.15911  1.0000
  C   C1152     1.0  0.97916  0.06458  0.18669  1.0000
  S   S404      1.0  0.54445  0.12025  0.14294  1.0000
  Fe  Fe205     1.0  0.53192  0.05189  0.18181  1.0000
  C   C1153     1.0  0.93928  0.02156  0.15883  1.0000
  S   S405      1.0  0.53625  0.07992  0.18825  1.0000
  Fe  Fe206     1.0  0.61038  0.31830  0.07929  1.0000
  H   H1166     1.0  0.57291  0.16014  0.06340  1.0000
  C   C1154     1.0  0.96336  0.16318  0.21092  1.0000
  H   H1167     1.0  0.92326  0.15189  0.16153  1.0000
  Fe  Fe207     1.0  0.65124  0.28830  0.07128  1.0000
  C   C1155     1.0  0.83876  0.14866  0.99381  1.0000
  S   S406      1.0  0.92801  0.13081  0.22658  1.0000
  S   S407      1.0  0.80015  0.19251  0.01192  1.0000
  H   H1168     1.0  0.94185  0.16403  0.11597  1.0000
  H   H1169     1.0  0.90773  0.01841  0.14694  1.0000
  H   H1170     1.0  0.71053  0.23192  0.08709  1.0000
  C   C1156     1.0  0.84944  0.15116  0.06159  1.0000
  C   C1157     1.0  0.86933  0.14016  0.06315  1.0000
  C   C1158     1.0  0.87415  0.13171  0.08108  1.0000
  C   C1159     1.0  0.85915  0.13444  0.09754  1.0000
  C   C1160     1.0  0.83938  0.14578  0.09595  1.0000
  C   C1161     1.0  0.83446  0.15392  0.07805  1.0000
  H   H1171     1.0  0.88100  0.13801  0.05045  1.0000
  H   H1172     1.0  0.88942  0.12297  0.08211  1.0000
  H   H1173     1.0  0.82773  0.14811  0.10861  1.0000
  H   H1174     1.0  0.81913  0.16248  0.07701  1.0000
  N   N98       1.0  0.91300  0.16573  0.13597  1.0000
  C   C1162     1.0  0.91559  0.11918  0.20033  1.0000
  C   C1163     1.0  0.72103  0.26478  0.03584  1.0000
  C   C1164     1.0  0.73522  0.24679  0.04114  1.0000
  C   C1165     1.0  0.71333  0.24099  0.07274  1.0000
  N   N99       1.0  0.56204  0.17242  0.08836  1.0000
  C   C1166     1.0  0.58810  0.10596  0.08832  1.0000
  C   C1167     1.0  0.59078  0.12059  0.09656  1.0000
  C   C1168     1.0  0.57734  0.12477  0.11343  1.0000
  C   C1169     1.0  0.56120  0.11435  0.12208  1.0000
  C   C1170     1.0  0.55840  0.09983  0.11377  1.0000
  C   C1171     1.0  0.57189  0.09560  0.09690  1.0000
  H   H1175     1.0  0.60330  0.12858  0.09006  1.0000
  H   H1176     1.0  0.57955  0.13598  0.11987  1.0000
  H   H1177     1.0  0.54566  0.09214  0.12010  1.0000
  H   H1178     1.0  0.56972  0.08437  0.09044  1.0000
  C   C1172     1.0  0.62644  0.19885  0.07661  1.0000
  C   C1173     1.0  0.61999  0.21448  0.08672  1.0000
  C   C1174     1.0  0.61313  0.23478  0.07755  1.0000
  C   C1175     1.0  0.61241  0.23937  0.05836  1.0000
  C   C1176     1.0  0.61884  0.22368  0.04832  1.0000
  C   C1177     1.0  0.62604  0.20351  0.05737  1.0000
  H   H1179     1.0  0.62015  0.21088  0.10165  1.0000
  H   H1180     1.0  0.60783  0.24675  0.08547  1.0000
  C   C1178     1.0  0.63212  0.31774  0.99703  1.0000
  H   H1181     1.0  0.63129  0.19160  0.04940  1.0000
  C   C1179     1.0  0.71749  0.11504  0.05861  1.0000
  C   C1180     1.0  0.73886  0.11288  0.05408  1.0000
  C   C1181     1.0  0.74804  0.12318  0.06207  1.0000
  C   C1182     1.0  0.73595  0.13512  0.07504  1.0000
  C   C1183     1.0  0.71466  0.13653  0.08022  1.0000
  C   C1184     1.0  0.70541  0.12677  0.07176  1.0000
  H   H1182     1.0  0.74823  0.10379  0.04394  1.0000
  H   H1183     1.0  0.76450  0.12183  0.05818  1.0000
  H   H1184     1.0  0.56891  0.05748  0.15828  1.0000
  H   H1185     1.0  0.57194  0.05541  0.13434  1.0000
  C   C1185     1.0  0.56607  0.99464  0.21742  1.0000
  C   C1186     1.0  0.93026  0.07732  0.21336  1.0000
  C   C1187     1.0  0.92120  0.08387  0.19760  1.0000
  C   C1188     1.0  0.91362  0.10481  0.19130  1.0000
  C   C1189     1.0  0.66718  0.21683  0.09375  1.0000
  N   N100      1.0  0.91071  0.01517  0.22791  1.0000
  H   H1186     1.0  0.96611  0.17247  0.19616  1.0000
  H   H1187     1.0  0.90575  0.10993  0.17980  1.0000
  C   C1190     1.0  0.96978  0.13247  0.15848  1.0000
  C   C1191     1.0  0.96319  0.12675  0.14494  1.0000
  C   C1192     1.0  0.97392  0.12991  0.12597  1.0000
  C   C1193     1.0  0.72787  0.14632  0.01075  1.0000
  S   S408      1.0  0.61926  0.28382  0.08547  1.0000
  C   C1194     1.0  0.73121  0.23474  0.05954  1.0000
  H   H1188     1.0  0.94968  0.12012  0.14917  1.0000
  H   H1189     1.0  0.61280  0.22039  0.99783  1.0000
  H   H1190     1.0  0.58873  0.03785  0.14919  1.0000
  H   H1191     1.0  0.93927  0.08649  0.23453  1.0000
  C   C1195     1.0  0.88709  0.02289  0.11031  1.0000
  C   C1196     1.0  0.90146  0.03454  0.10907  1.0000
  C   C1197     1.0  0.92243  0.02548  0.10647  1.0000
  H   H1192     1.0  0.62746  0.30984  0.01158  1.0000
  H   H1193     1.0  0.81999  0.12698  0.99686  1.0000
  H   H1194     1.0  0.87087  0.02978  0.11231  1.0000
  H   H1195     1.0  0.89637  0.05048  0.10996  1.0000
  H   H1196     1.0  0.73402  0.16038  0.00809  1.0000
  H   H1197     1.0  0.70234  0.22717  0.03840  1.0000
  C   C1198     1.0  0.67168  0.22097  0.07392  1.0000
  H   H1198     1.0  0.67916  0.22002  0.03780  1.0000
  H   H1199     1.0  0.70754  0.17720  0.10105  1.0000
  H   H1200     1.0  0.69629  0.13022  0.01215  1.0000
  H   H1201     1.0  0.93617  0.06122  0.21837  1.0000
  C   C1199     1.0  0.56108  0.16130  0.07623  1.0000
  C   C1200     1.0  0.53154  0.16251  0.10970  1.0000
  C   C1201     1.0  0.54530  0.15049  0.08057  1.0000
  C   C1202     1.0  0.53045  0.15115  0.09743  1.0000
  S   S409      1.0  0.49910  0.05509  0.19731  1.0000
  H   H1202     1.0  0.52060  0.16231  0.12325  1.0000
  H   H1203     1.0  0.54506  0.14108  0.07126  1.0000
  H   H1204     1.0  0.51857  0.14223  0.10136  1.0000
  C   C1203     1.0  0.91803  0.16115  0.10429  1.0000
  C   C1204     1.0  0.88447  0.16265  0.12526  1.0000
  C   C1205     1.0  0.89730  0.16053  0.10765  1.0000
  H   H1205     1.0  0.92835  0.15893  0.09086  1.0000
  H   H1206     1.0  0.86844  0.16167  0.12811  1.0000
  H   H1207     1.0  0.89125  0.15798  0.09678  1.0000
  Fe  Fe208     1.0  0.78166  0.16934  0.01459  1.0000
  N   N101      1.0  0.83154  0.09971  0.09875  1.0000
  C   C1206     1.0  0.82317  0.10256  0.11685  1.0000
  C   C1207     1.0  0.82006  0.10706  0.08518  1.0000
  C   C1208     1.0  0.80297  0.11345  0.12163  1.0000
  C   C1209     1.0  0.79975  0.11785  0.08954  1.0000
  C   C1210     1.0  0.79122  0.12113  0.10784  1.0000
  C   C1211     1.0  0.85260  0.08794  0.09402  1.0000
  H   H1208     1.0  0.83231  0.09687  0.12759  1.0000
  H   H1209     1.0  0.82664  0.10479  0.07084  1.0000
  H   H1210     1.0  0.79654  0.11603  0.13589  1.0000
  H   H1211     1.0  0.79059  0.12370  0.07884  1.0000
  H   H1212     1.0  0.77551  0.12966  0.11124  1.0000
  H   H1213     1.0  0.86199  0.08845  0.10370  1.0000
  H   H1214     1.0  0.85237  0.07166  0.09514  1.0000
  H   H1215     1.0  0.86050  0.09452  0.07940  1.0000
  S   S410      1.0  0.60353  0.32048  0.05111  1.0000
  C   C1212     1.0  0.54503  0.02736  0.22294  1.0000
  H   H1216     1.0  0.94665  0.16672  0.21740  1.0000
  H   H1217     1.0  0.92757  0.03586  0.16018  1.0000
  C   C1213     1.0  0.55525  0.01421  0.21051  1.0000
  Fe  Fe209     1.0  0.50249  0.08482  0.20106  1.0000
  H   H1218     1.0  0.95017  0.02008  0.16781  1.0000
  C   C1214     1.0  0.91325  0.00471  0.15685  1.0000
  H   H1219     1.0  0.61513  0.32457  0.13031  1.0000
  C   C1215     1.0  0.68000  0.20091  0.10362  1.0000
  H   H1220     1.0  0.50771  0.00536  0.14337  1.0000
  H   H1221     1.0  0.65408  0.22629  0.10131  1.0000
  N   N102      1.0  0.71981  0.14610  0.99471  1.0000
  C   C1216     1.0  0.98762  0.14059  0.15324  1.0000
  C   C1217     1.0  0.69722  0.18944  0.09359  1.0000
  H   H1222     1.0  0.94814  0.02297  0.14387  1.0000
  S   S411      1.0  0.64295  0.32267  0.06729  1.0000
  H   H1223     1.0  0.90467  0.04580  0.23215  1.0000
  Fe  Fe210     1.0  0.52666  0.09613  0.16086  1.0000
  H   H1224     1.0  0.71486  0.18515  0.06611  1.0000
  C   C1218     1.0  0.70127  0.19399  0.07375  1.0000
  N   N103      1.0  0.68844  0.20947  0.06419  1.0000
  H   H1225     1.0  0.93783  0.02591  0.22509  1.0000
  S   S412      1.0  0.75785  0.23961  0.02462  1.0000
  C   C1219     1.0  0.92505  0.11265  0.21579  1.0000
  N   N104      1.0  0.59494  0.06788  0.13839  1.0000
  C   C1220     1.0  0.59437  0.08181  0.14849  1.0000
  C   C1221     1.0  0.60916  0.06663  0.12174  1.0000
  C   C1222     1.0  0.60842  0.09485  0.14202  1.0000
  C   C1223     1.0  0.62342  0.07945  0.11484  1.0000
  C   C1224     1.0  0.62306  0.09360  0.12510  1.0000
  C   C1225     1.0  0.58044  0.05401  0.14536  1.0000
  H   H1226     1.0  0.58276  0.08320  0.16145  1.0000
  H   H1227     1.0  0.60926  0.05598  0.11347  1.0000
  H   H1228     1.0  0.60765  0.10614  0.14987  1.0000
  C   C1226     1.0  0.69910  0.25892  0.06743  1.0000
  S   S413      1.0  0.75357  0.18433  0.03302  1.0000
  C   C1227     1.0  0.57956  0.18231  0.08427  1.0000
  C   C1228     1.0  0.92563  0.16391  0.11866  1.0000
  C   C1229     1.0  0.93149  0.01311  0.22530  1.0000
  H   H1229     1.0  0.67676  0.19768  0.11900  1.0000
  H   H1230     1.0  0.74213  0.22090  0.06374  1.0000
  S   S414      1.0  0.79382  0.14771  0.03917  1.0000
  C   C1230     1.0  0.93222  0.09167  0.22242  1.0000
  H   H1231     1.0  0.96131  0.13018  0.17312  1.0000
  C   C1231     1.0  0.54764  0.17296  0.10501  1.0000
  H   H1232     1.0  0.96666  0.06783  0.17897  1.0000
  H   H1233     1.0  0.59260  0.17105  0.08962  1.0000
  H   H1234     1.0  0.58475  0.18821  0.06877  1.0000
  H   H1235     1.0  0.68352  0.29991  0.00928  1.0000
  S   S415      1.0  0.55392  0.02175  0.18650  1.0000
  H   H1236     1.0  0.70523  0.14569  0.09026  1.0000
  H   H1237     1.0  0.72414  0.27415  0.02165  1.0000
  C   C1232     1.0  0.92146  0.16702  0.15139  1.0000
  H   H1238     1.0  0.88622  0.00046  0.23077  1.0000
  H   H1239     1.0  0.83554  0.14773  0.00897  1.0000
  H   H1240     1.0  0.93685  0.17118  0.14600  1.0000
  C   C1233     1.0  0.69342  0.21475  0.04339  1.0000
  H   H1241     1.0  0.54886  0.18100  0.11505  1.0000
  H   H1242     1.0  0.68890  0.12846  0.07536  1.0000
  S   S416      1.0  0.60361  0.26458  0.04679  1.0000
  H   H1243     1.0  0.90961  0.13535  0.19550  1.0000
  H   H1244     1.0  0.66187  0.23372  0.06639  1.0000
  C   C1234     1.0  0.70287  0.27072  0.04890  1.0000
  H   H1245     1.0  0.70271  0.20126  0.03747  1.0000
  H   H1246     1.0  0.57565  0.19560  0.09110  1.0000
  H   H1247     1.0  0.97968  0.00889  0.08850  1.0000
  H   H1248     1.0  0.61860  0.22709  0.03346  1.0000
  S   S417      1.0  0.67664  0.26619  0.08411  1.0000
  H   H1249     1.0  0.69211  0.28473  0.04482  1.0000
  S   S418      1.0  0.52499  0.06750  0.15325  1.0000
  C   C1235     1.0  0.96685  0.17596  0.23715  1.0000
  S   S419      1.0  0.64819  0.28810  0.04253  1.0000
  Fe  Fe211     1.0  0.61544  0.28644  0.05624  1.0000
  H   H1250     1.0  0.96746  0.14667  0.21032  1.0000
  S   S420      1.0  0.77793  0.15756  0.99078  1.0000
  C   C1236     1.0  0.89678  0.03489  0.22994  1.0000
  N   N105      1.0  0.97593  0.16721  0.22179  1.0000
  H   H1251     1.0  0.99291  0.09911  0.17998  1.0000
  H   H1252     1.0  0.59500  0.24938  0.01404  1.0000
  H   H1253     1.0  0.63578  0.13661  0.99860  1.0000
  H   H1254     1.0  0.97392  0.07358  0.19796  1.0000
  C   C1237     1.0  0.99153  0.13834  0.12070  1.0000
  C   C1238     1.0  0.70348  0.13704  0.99786  1.0000
  N   N106      1.0  0.92942  0.00385  0.16440  1.0000
  C   C1239     1.0  0.90271  0.99893  0.22837  1.0000
  H   H1255     1.0  0.94498  0.99790  0.10327  1.0000
  C   C1240     1.0  0.89371  0.00219  0.10915  1.0000
  H   H1256     1.0  0.71570  0.14601  0.02402  1.0000
  S   S421      1.0  0.64422  0.17578  0.99780  1.0000
  H   H1257     1.0  0.84681  0.18431  0.99699  1.0000
  H   H1258     1.0  0.74044  0.13269  0.01310  1.0000
  H   H1259     1.0  0.89062  0.04212  0.21693  1.0000
  Fe  Fe212     1.0  0.63681  0.32201  0.03949  1.0000
  C   C1241     1.0  0.68791  0.30542  0.99403  1.0000
  C   C1242     1.0  0.60434  0.25902  0.00222  1.0000
  C   C1243     1.0  0.94482  0.99432  0.22334  1.0000
  H   H1260     1.0  0.59547  0.27510  0.00120  1.0000
  H   H1261     1.0  0.61903  0.25813  0.00602  1.0000
  S   S422      1.0  0.99632  0.14638  0.17069  1.0000
  H   H1262     1.0  0.64179  0.32537  0.12769  1.0000
  C   C1244     1.0  0.99688  0.16212  0.21636  1.0000
  H   H1263     1.0  0.74794  0.31369  0.40983  1.0000
  C   C1245     1.0  0.81734  0.31609  0.34825  1.0000
  H   H1264     1.0  0.53795  0.03117  0.25173  1.0000
  C   C1246     1.0  0.79835  0.29220  0.40397  1.0000
  C   C1247     1.0  0.88554  0.22126  0.44734  1.0000
  H   H1265     1.0  0.97024  0.19279  0.32384  1.0000
  Fe  Fe213     1.0  0.85312  0.24702  0.36024  1.0000
  S   S423      1.0  0.87785  0.25863  0.33604  1.0000
  S   S424      1.0  0.81907  0.25524  0.36088  1.0000
  Fe  Fe214     1.0  0.88265  0.22546  0.38620  1.0000
  S   S425      1.0  0.90968  0.23491  0.36420  1.0000
  C   C1248     1.0  0.79632  0.32472  0.35231  1.0000
  Fe  Fe215     1.0  0.88890  0.26565  0.35854  1.0000
  S   S426      1.0  0.90012  0.29337  0.35855  1.0000
  Fe  Fe216     1.0  0.89653  0.22668  0.34382  1.0000
  S   S427      1.0  0.91997  0.21114  0.32163  1.0000
  S   S428      1.0  0.86270  0.25681  0.38197  1.0000
  S   S429      1.0  0.87102  0.21442  0.36646  1.0000
  Fe  Fe217     1.0  0.96261  0.07381  0.27173  1.0000
  S   S430      1.0  0.93108  0.09383  0.27648  1.0000
  S   S431      1.0  0.97054  0.03978  0.27302  1.0000
  Fe  Fe218     1.0  0.98394  0.10943  0.26267  1.0000
  S   S432      1.0  0.95448  0.13268  0.26567  1.0000
  H   H1266     1.0  0.89785  0.25086  0.39963  1.0000
  Fe  Fe219     1.0  0.94400  0.10959  0.29171  1.0000
  S   S433      1.0  0.92609  0.11878  0.31921  1.0000
  Fe  Fe220     1.0  0.94439  0.11509  0.25020  1.0000
  N   N107      1.0  0.95114  0.02632  0.32217  1.0000
  S   S434      1.0  0.97437  0.08722  0.28972  1.0000
  S   S435      1.0  0.97507  0.09411  0.24439  1.0000
  H   H1267     1.0  0.85042  0.23772  0.41968  1.0000
  H   H1268     1.0  0.91885  0.24046  0.41099  1.0000
  C   C1249     1.0  0.84902  0.24988  0.44356  1.0000
  H   H1269     1.0  0.89972  0.21025  0.44879  1.0000
  C   C1250     1.0  0.92036  0.18592  0.32055  1.0000
  C   C1251     1.0  0.90613  0.17462  0.33309  1.0000
  C   C1252     1.0  0.90778  0.15409  0.33245  1.0000
  C   C1253     1.0  0.92365  0.14480  0.31927  1.0000
  C   C1254     1.0  0.93788  0.15615  0.30681  1.0000
  C   C1255     1.0  0.93611  0.17666  0.30733  1.0000
  H   H1270     1.0  0.89393  0.18163  0.34334  1.0000
  H   H1271     1.0  0.89676  0.14540  0.34218  1.0000
  H   H1272     1.0  0.95058  0.14899  0.29709  1.0000
  H   H1273     1.0  0.94723  0.18529  0.29769  1.0000
  H   H1274     1.0  0.91933  0.26348  0.39200  1.0000
  H   H1275     1.0  0.74611  0.27859  0.40949  1.0000
  C   C1256     1.0  0.78897  0.29056  0.35989  1.0000
  C   C1257     1.0  0.81011  0.28199  0.35641  1.0000
  C   C1258     1.0  0.82418  0.29485  0.35032  1.0000
  H   H1276     1.0  0.96335  0.13953  0.33929  1.0000
  C   C1259     1.0  0.50826  0.01693  0.29027  1.0000
  H   H1277     1.0  0.77799  0.28066  0.36432  1.0000
  H   H1278     1.0  0.84042  0.28836  0.34715  1.0000
  H   H1279     1.0  0.85664  0.30002  0.36359  1.0000
  H   H1280     1.0  0.93482  0.12818  0.36488  1.0000
  C   C1260     1.0  0.87643  0.23402  0.46040  1.0000
  S   S436      1.0  0.84720  0.26573  0.47353  1.0000
  C   C1261     1.0  0.87220  0.29503  0.42876  1.0000
  H   H1281     1.0  0.82848  0.32571  0.34385  1.0000
  H   H1282     1.0  0.89994  0.32409  0.37800  1.0000
  S   S437      1.0  0.88903  0.20851  0.41485  1.0000
  C   C1262     1.0  0.88137  0.29408  0.44345  1.0000
  H   H1283     1.0  0.94335  0.05903  0.31425  1.0000
  C   C1263     1.0  0.77887  0.26723  0.40590  1.0000
  H   H1284     1.0  0.90699  0.27926  0.45678  1.0000
  C   C1264     1.0  0.76200  0.30203  0.40833  1.0000
  C   C1265     1.0  0.92572  0.00827  0.32249  1.0000
  C   C1266     1.0  0.76085  0.28220  0.40819  1.0000
  N   N108      1.0  0.89957  0.26817  0.41830  1.0000
  C   C1267     1.0  0.51432  0.05075  0.28632  1.0000
  C   C1268     1.0  0.85828  0.24851  0.45836  1.0000
  C   C1269     1.0  0.84354  0.32308  0.38014  1.0000
  H   H1285     1.0  0.77837  0.25195  0.40514  1.0000
  C   C1270     1.0  0.79774  0.27221  0.40384  1.0000
  C   C1271     1.0  0.91916  0.00969  0.27314  1.0000
  C   C1272     1.0  0.91572  0.03107  0.27048  1.0000
  C   C1273     1.0  0.93167  0.04058  0.26953  1.0000
  C   C1274     1.0  0.95107  0.02872  0.27148  1.0000
  C   C1275     1.0  0.95480  0.00747  0.27317  1.0000
  C   C1276     1.0  0.93837  0.04470  0.31694  1.0000
  C   C1277     1.0  0.97401  0.17597  0.32970  1.0000
  H   H1286     1.0  0.92874  0.05702  0.26777  1.0000
  C   C1278     1.0  0.78206  0.31193  0.35804  1.0000
  C   C1279     1.0  0.90952  0.25514  0.40455  1.0000
  N   N109      1.0  0.95711  0.16935  0.34506  1.0000
  C   C1280     1.0  0.95389  0.14989  0.34833  1.0000
  C   C1281     1.0  0.94502  0.18247  0.35638  1.0000
  C   C1282     1.0  0.93782  0.14333  0.36288  1.0000
  C   C1283     1.0  0.92885  0.17639  0.37111  1.0000
  C   C1284     1.0  0.92519  0.15673  0.37428  1.0000
  H   H1287     1.0  0.80652  0.29428  0.47521  1.0000
  C   C1285     1.0  0.51723  0.03000  0.29524  1.0000
  H   H1288     1.0  0.94741  0.19798  0.35365  1.0000
  C   C1286     1.0  0.54565  0.02091  0.24223  1.0000
  H   H1289     1.0  0.91897  0.18697  0.37981  1.0000
  H   H1290     1.0  0.91240  0.15203  0.38536  1.0000
  S   S438      1.0  0.89847  0.99825  0.27536  1.0000
  H   H1291     1.0  0.81315  0.29603  0.40178  1.0000
  H   H1292     1.0  0.88390  0.03258  0.24252  1.0000
  C   C1287     1.0  0.50262  0.05815  0.27250  1.0000
  H   H1293     1.0  0.82786  0.32317  0.38022  1.0000
  C   C1288     1.0  0.88159  0.28188  0.41624  1.0000
  H   H1294     1.0  0.90056  0.04030  0.26959  1.0000
  C   C1289     1.0  0.89981  0.28018  0.44534  1.0000
  C   C1290     1.0  0.87651  0.22300  0.43226  1.0000
  C   C1291     1.0  0.85977  0.31009  0.37062  1.0000
  H   H1295     1.0  0.87432  0.28253  0.40497  1.0000
  C   C1292     1.0  0.85803  0.23705  0.43064  1.0000
  H   H1296     1.0  0.83480  0.26080  0.44212  1.0000
  H   H1297     1.0  0.97341  0.04036  0.32594  1.0000
  H   H1298     1.0  0.92306  0.25641  0.43414  1.0000
  C   C1293     1.0  0.90880  0.26729  0.43252  1.0000
  H   H1299     1.0  0.97162  0.18578  0.26028  1.0000
  C   C1294     1.0  0.97209  0.02574  0.32341  1.0000
  H   H1300     1.0  0.81189  0.26086  0.40135  1.0000
  H   H1301     1.0  0.51112  0.00072  0.29691  1.0000
  H   H1302     1.0  0.89778  0.02712  0.31472  1.0000
  H   H1303     1.0  0.82490  0.31060  0.46498  1.0000
  N   N110      1.0  0.78059  0.30674  0.40641  1.0000
  H   H1304     1.0  0.50050  0.07421  0.26524  1.0000
  C   C1295     1.0  0.55582  0.00105  0.24925  1.0000
  H   H1305     1.0  0.90889  0.05990  0.31011  1.0000
  H   H1306     1.0  0.98841  0.17200  0.33498  1.0000
  H   H1307     1.0  0.88352  0.23268  0.47194  1.0000
  C   C1296     1.0  0.88007  0.31038  0.36984  1.0000
  H   H1308     1.0  0.52135  0.06103  0.28989  1.0000
  H   H1309     1.0  0.87401  0.30378  0.45358  1.0000
  C   C1297     1.0  0.91884  0.04529  0.31454  1.0000
  H   H1310     1.0  0.52675  0.02388  0.30563  1.0000
  H   H1311     1.0  0.85780  0.30567  0.42719  1.0000
  C   C1298     1.0  0.94500  0.00827  0.32507  1.0000
  C   C1299     1.0  0.97886  0.17938  0.24779  1.0000
  H   H1312     1.0  0.97682  0.01308  0.33519  1.0000
  H   H1313     1.0  0.99192  0.12208  0.29240  1.0000
  H   H1314     1.0  0.76579  0.31845  0.36090  1.0000
  H   H1315     1.0  0.97678  0.16843  0.31769  1.0000
  C   C1300     1.0  0.91258  0.02693  0.31720  1.0000
  H   H1316     1.0  0.98294  0.02295  0.30992  1.0000
  C   C1301     1.0  0.80957  0.30951  0.47448  1.0000
  C   C1302     1.0  0.88419  0.32386  0.37856  1.0000
  C   C1303     1.0  0.93886  0.99794  0.27407  1.0000
  H   H1317     1.0  0.96990  0.99828  0.27438  1.0000
  H   H1318     1.0  0.95023  0.17985  0.24159  1.0000
  H   H1319     1.0  0.81042  0.31003  0.48890  1.0000
  N   N111      1.0  0.79313  0.32597  0.46786  1.0000
  C   C1304     1.0  0.89969  0.99511  0.61270  1.0000
  S   S439      1.0  0.56528  0.01490  0.70087  1.0000
  H   H1320     1.0  0.86823  0.08184  0.59283  1.0000
  Fe  Fe221     1.0  0.58385  0.01981  0.67118  1.0000
  S   S440      1.0  0.57974  0.05174  0.65340  1.0000
  C   C1305     1.0  0.60007  0.02392  0.73190  1.0000
  C   C1306     1.0  0.93205  0.26773  0.55671  1.0000
  C   C1307     1.0  0.99147  0.06564  0.65389  1.0000
  H   H1321     1.0  0.86181  0.03522  0.62439  1.0000
  S   S441      1.0  0.60331  0.09090  0.72316  1.0000
  H   H1322     1.0  0.90341  0.06743  0.57884  1.0000
  N   N112      1.0  0.91165  0.23554  0.57464  1.0000
  C   C1308     1.0  0.60257  0.06501  0.72660  1.0000
  C   C1309     1.0  0.51906  0.05295  0.66560  1.0000
  C   C1310     1.0  0.55726  0.06832  0.71459  1.0000
  S   S442      1.0  0.59832  0.99829  0.73542  1.0000
  H   H1323     1.0  0.89325  0.25470  0.59365  1.0000
  H   H1324     1.0  0.88434  0.31885  0.56267  1.0000
  H   H1325     1.0  0.98536  0.14282  0.64001  1.0000
  C   C1311     1.0  0.58963  0.02118  0.61795  1.0000
  C   C1312     1.0  0.90015  0.21905  0.58341  1.0000
  Fe  Fe222     1.0  0.86232  0.26111  0.49777  1.0000
  S   S443      1.0  0.85388  0.24107  0.52676  1.0000
  H   H1326     1.0  0.90208  0.03152  0.65118  1.0000
  Fe  Fe223     1.0  0.89093  0.27936  0.50961  1.0000
  S   S444      1.0  0.88510  0.26107  0.53939  1.0000
  S   S445      1.0  0.91222  0.30137  0.50029  1.0000
  Fe  Fe224     1.0  0.88772  0.23481  0.52625  1.0000
  S   S446      1.0  0.91047  0.20541  0.53394  1.0000
  Fe  Fe225     1.0  0.85216  0.26916  0.53713  1.0000
  S   S447      1.0  0.82782  0.28322  0.55929  1.0000
  S   S448      1.0  0.89623  0.25272  0.49628  1.0000
  S   S449      1.0  0.85788  0.28962  0.50826  1.0000
  Fe  Fe226     1.0  0.93367  0.06461  0.60931  1.0000
  S   S450      1.0  0.94055  0.09455  0.59076  1.0000
  S   S451      1.0  0.93467  0.03784  0.59737  1.0000
  Fe  Fe227     1.0  0.93139  0.07736  0.64577  1.0000
  S   S452      1.0  0.93736  0.10865  0.63031  1.0000
  S   S453      1.0  0.93069  0.06279  0.67669  1.0000
  Fe  Fe228     1.0  0.91577  0.10846  0.61285  1.0000
  S   S454      1.0  0.88957  0.13451  0.60564  1.0000
  Fe  Fe229     1.0  0.96152  0.09202  0.60978  1.0000
  S   S455      1.0  0.90749  0.07843  0.63027  1.0000
  S   S456      1.0  0.95680  0.06080  0.62625  1.0000
  C   C1313     1.0  0.93389  0.07845  0.69012  1.0000
  C   C1314     1.0  0.93386  0.09930  0.68254  1.0000
  C   C1315     1.0  0.93689  0.11145  0.69331  1.0000
  H   H1327     1.0  0.54488  0.17014  0.72743  1.0000
  H   H1328     1.0  0.87626  0.09762  0.60395  1.0000
  H   H1329     1.0  0.93099  0.10626  0.66858  1.0000
  H   H1330     1.0  0.93653  0.12764  0.68743  1.0000
  S   S457      1.0  0.94382  0.11822  0.72493  1.0000
  H   H1331     1.0  0.93623  0.05389  0.71482  1.0000
  C   C1316     1.0  0.76888  0.31074  0.53728  1.0000
  C   C1317     1.0  0.98085  0.14128  0.68839  1.0000
  C   C1318     1.0  0.92712  0.23388  0.55883  1.0000
  H   H1332     1.0  0.63087  0.01331  0.60476  1.0000
  H   H1333     1.0  0.85885  0.10913  0.58825  1.0000
  C   C1319     1.0  0.55975  0.01733  0.60966  1.0000
  H   H1334     1.0  0.93988  0.28036  0.54964  1.0000
  C   C1320     1.0  0.54923  0.08535  0.72282  1.0000
  H   H1335     1.0  0.86876  0.02044  0.65994  1.0000
  C   C1321     1.0  0.90421  0.18602  0.55398  1.0000
  C   C1322     1.0  0.92003  0.16992  0.55963  1.0000
  C   C1323     1.0  0.91576  0.15432  0.57576  1.0000
  C   C1324     1.0  0.89558  0.15468  0.58625  1.0000
  C   C1325     1.0  0.87974  0.17081  0.58064  1.0000
  C   C1326     1.0  0.88403  0.18648  0.56453  1.0000
  H   H1336     1.0  0.93569  0.16953  0.55154  1.0000
  H   H1337     1.0  0.92806  0.14196  0.57998  1.0000
  H   H1338     1.0  0.86408  0.17110  0.58869  1.0000
  H   H1339     1.0  0.87173  0.19882  0.56023  1.0000
  H   H1340     1.0  0.58245  0.09150  0.67185  1.0000
  C   C1327     1.0  0.78436  0.29625  0.52879  1.0000
  C   C1328     1.0  0.80251  0.28792  0.53545  1.0000
  C   C1329     1.0  0.80491  0.29335  0.55119  1.0000
  C   C1330     1.0  0.78911  0.30721  0.56019  1.0000
  C   C1331     1.0  0.50537  0.14396  0.72008  1.0000
  H   H1341     1.0  0.78235  0.29132  0.51708  1.0000
  H   H1342     1.0  0.81445  0.27690  0.52868  1.0000
  C   C1332     1.0  0.91623  0.26933  0.57279  1.0000
  C   C1333     1.0  0.93047  0.31728  0.51934  1.0000
  C   C1334     1.0  0.94003  0.10277  0.71171  1.0000
  C   C1335     1.0  0.99368  0.13566  0.71707  1.0000
  H   H1343     1.0  0.59629  0.02849  0.62517  1.0000
  C   C1336     1.0  0.62354  0.99976  0.60921  1.0000
  C   C1337     1.0  0.94015  0.08189  0.71933  1.0000
  C   C1338     1.0  0.51047  0.07386  0.66138  1.0000
  C   C1339     1.0  0.89659  0.31062  0.53538  1.0000
  C   C1340     1.0  0.91318  0.31020  0.51969  1.0000
  H   H1344     1.0  0.99447  0.03327  0.64061  1.0000
  C   C1341     1.0  0.91356  0.02571  0.60646  1.0000
  C   C1342     1.0  0.91739  0.00342  0.66691  1.0000
  H   H1345     1.0  0.88323  0.30511  0.53576  1.0000
  C   C1343     1.0  0.99633  0.13301  0.63122  1.0000
  C   C1344     1.0  0.91637  0.00504  0.60606  1.0000
  H   H1346     1.0  0.57579  0.05744  0.68976  1.0000
  H   H1347     1.0  0.77052  0.31691  0.49245  1.0000
  H   H1348     1.0  0.54336  0.02148  0.61025  1.0000
  H   H1349     1.0  0.89159  0.05250  0.61366  1.0000
  C   C1345     1.0  0.88175  0.01027  0.66535  1.0000
  C   C1346     1.0  0.91458  0.32521  0.55032  1.0000
  H   H1350     1.0  0.79076  0.31109  0.57262  1.0000
  H   H1351     1.0  0.97892  0.08813  0.67130  1.0000
  C   C1347     1.0  0.97373  0.99918  0.73311  1.0000
  H   H1352     1.0  0.96537  0.15070  0.69294  1.0000
  H   H1353     1.0  0.98175  0.12711  0.72491  1.0000
  C   C1348     1.0  0.93132  0.32444  0.53480  1.0000
  H   H1354     1.0  0.94234  0.07513  0.73362  1.0000
  C   C1349     1.0  0.55314  0.06054  0.65646  1.0000
  C   C1350     1.0  0.54030  0.04634  0.66338  1.0000
  C   C1351     1.0  0.96978  0.01707  0.71940  1.0000
  H   H1355     1.0  0.55481  0.05323  0.72257  1.0000
  C   C1352     1.0  0.52320  0.08822  0.65491  1.0000
  C   C1353     1.0  0.54462  0.08153  0.65219  1.0000
  H   H1356     1.0  0.54663  0.03016  0.66684  1.0000
  H   H1357     1.0  0.91177  0.28322  0.57828  1.0000
  C   C1354     1.0  0.90051  0.01661  0.66034  1.0000
  H   H1358     1.0  0.55450  0.09259  0.64693  1.0000
  C   C1355     1.0  0.93748  0.24997  0.54959  1.0000
  C   C1356     1.0  0.61028  0.03412  0.71444  1.0000
  C   C1357     1.0  0.61158  0.05465  0.71179  1.0000
  H   H1359     1.0  0.98587  0.14576  0.67268  1.0000
  C   C1358     1.0  0.51715  0.15519  0.70435  1.0000
  S   S458      1.0  0.51455  0.15768  0.68114  1.0000
  H   H1360     1.0  0.61751  0.02611  0.70306  1.0000
  H   H1361     1.0  0.61954  0.06249  0.69830  1.0000
  C   C1359     1.0  0.57219  0.00215  0.60016  1.0000
  C   C1360     1.0  0.90594  0.25309  0.58149  1.0000
  N   N113      1.0  0.89023  0.09950  0.57484  1.0000
  C   C1361     1.0  0.89257  0.11884  0.56494  1.0000
  C   C1362     1.0  0.90499  0.08276  0.57078  1.0000
  C   C1363     1.0  0.91001  0.12181  0.55050  1.0000
  C   C1364     1.0  0.92261  0.08513  0.55642  1.0000
  C   C1365     1.0  0.92513  0.10482  0.54626  1.0000
  C   C1366     1.0  0.87251  0.09682  0.59074  1.0000
  H   H1362     1.0  0.88111  0.13215  0.56846  1.0000
  C   C1367     1.0  0.53165  0.16428  0.70707  1.0000
  H   H1363     1.0  0.91194  0.13725  0.54300  1.0000
  H   H1364     1.0  0.93448  0.07178  0.55365  1.0000
  H   H1365     1.0  0.93894  0.10693  0.53538  1.0000
  H   H1366     1.0  0.95608  0.99702  0.68944  1.0000
  H   H1367     1.0  0.52621  0.01786  0.73449  1.0000
  H   H1368     1.0  0.51662  0.10443  0.65169  1.0000
  C   C1368     1.0  0.50797  0.14206  0.73844  1.0000
  H   H1369     1.0  0.57147  0.13542  0.69387  1.0000
  C   C1369     1.0  0.56914  0.07064  0.69613  1.0000
  S   S459      1.0  0.61331  0.00157  0.67909  1.0000
  S   S460      1.0  0.74698  0.32189  0.52767  1.0000
  C   C1370     1.0  0.77128  0.31626  0.55300  1.0000
  C   C1371     1.0  0.88001  0.00597  0.61926  1.0000
  C   C1372     1.0  0.57015  0.12659  0.68408  1.0000
  H   H1370     1.0  0.94942  0.24876  0.53682  1.0000
  C   C1373     1.0  0.53396  0.16269  0.72543  1.0000
  H   H1371     1.0  0.97299  0.12331  0.62397  1.0000
  H   H1372     1.0  0.54778  0.11752  0.71916  1.0000
  H   H1373     1.0  0.55759  0.13541  0.67667  1.0000
  H   H1374     1.0  0.93129  0.22020  0.55309  1.0000
  C   C1374     1.0  0.93685  0.06982  0.70862  1.0000
  C   C1375     1.0  0.89390  0.03654  0.61333  1.0000
  H   H1375     1.0  0.54014  0.08375  0.73721  1.0000
  H   H1376     1.0  0.89350  0.21858  0.59875  1.0000
  H   H1377     1.0  0.91028  0.20378  0.58228  1.0000
  H   H1378     1.0  0.96019  0.03005  0.69284  1.0000
  H   H1379     1.0  0.58502  0.12503  0.67354  1.0000
  C   C1376     1.0  0.57311  0.08995  0.68618  1.0000
  H   H1380     1.0  0.54086  0.17289  0.69495  1.0000
  H   H1381     1.0  0.88749  0.22139  0.57610  1.0000
  H   H1382     1.0  0.75922  0.32709  0.55987  1.0000
  C   C1377     1.0  0.87707  0.02677  0.61939  1.0000
  N   N114      1.0  0.56575  0.10644  0.69459  1.0000
  C   C1378     1.0  0.55365  0.10443  0.71254  1.0000
  C   C1379     1.0  0.98926  0.12186  0.62220  1.0000
  N   N115      1.0  0.60168  0.00621  0.60870  1.0000
  H   H1383     1.0  0.94332  0.31698  0.50721  1.0000
  C   C1380     1.0  0.56853  0.02707  0.61847  1.0000
  C   C1381     1.0  0.96110  0.99747  0.70175  1.0000
  C   C1382     1.0  0.89716  0.31844  0.55055  1.0000
  H   H1384     1.0  0.50851  0.03024  0.70919  1.0000
  H   H1385     1.0  0.55908  0.03892  0.62590  1.0000
  H   H1386     1.0  0.93152  0.99666  0.60070  1.0000
  H   H1387     1.0  0.93213  0.00802  0.66271  1.0000
  C   C1383     1.0  0.59328  0.99692  0.59963  1.0000
  H   H1388     1.0  0.97948  0.12495  0.69206  1.0000
  H   H1389     1.0  0.97150  0.03153  0.72114  1.0000
  H   H1390     1.0  0.97661  0.06208  0.65564  1.0000
  H   H1391     1.0  0.50933  0.04183  0.67087  1.0000
  N   N116      1.0  0.99536  0.14399  0.69807  1.0000
  H   H1392     1.0  0.84773  0.99641  0.68867  1.0000
  C   C1384     1.0  0.96344  0.01624  0.70357  1.0000
  S   S461      1.0  0.99477  0.09466  0.59965  1.0000
  C   C1385     1.0  0.99269  0.08035  0.66289  1.0000
  N   N117      1.0  0.50303  0.04522  0.73206  1.0000
  H   H1393     1.0  0.85072  0.32700  0.55566  1.0000
  H   H1394     1.0  0.56560  0.99421  0.59341  1.0000
  Fe  Fe230     1.0  0.59386  0.99412  0.70845  1.0000
  S   S462      1.0  0.57548  0.99411  0.66428  1.0000
  H   H1395     1.0  0.82435  0.27433  0.84839  1.0000
  C   C1386     1.0  0.49885  0.06660  0.75380  1.0000
  Fe  Fe231     1.0  0.59230  0.11647  0.78326  1.0000
  S   S463      1.0  0.55954  0.11563  0.79881  1.0000
  S   S464      1.0  0.61589  0.12666  0.79227  1.0000
  Fe  Fe232     1.0  0.56612  0.08522  0.79087  1.0000
  S   S465      1.0  0.55423  0.05759  0.80950  1.0000
  N   N118      1.0  0.60843  0.25231  0.98441  1.0000
  S   S466      1.0  0.59949  0.08473  0.77779  1.0000
  C   C1387     1.0  0.78735  0.26530  0.91242  1.0000
  C   C1388     1.0  0.59790  0.19306  0.81653  1.0000
  Fe  Fe233     1.0  0.61691  0.16625  0.87666  1.0000
  S   S467      1.0  0.61021  0.17163  0.90605  1.0000
  S   S468      1.0  0.59252  0.15543  0.86960  1.0000
  Fe  Fe234     1.0  0.65827  0.17810  0.86591  1.0000
  S   S469      1.0  0.65516  0.18459  0.89420  1.0000
  S   S470      1.0  0.68725  0.18258  0.84420  1.0000
  Fe  Fe235     1.0  0.64289  0.15579  0.90596  1.0000
  S   S471      1.0  0.64977  0.13247  0.93209  1.0000
  Fe  Fe236     1.0  0.62291  0.19994  0.89191  1.0000
  S   S472      1.0  0.60935  0.22868  0.90296  1.0000
  S   S473      1.0  0.64873  0.14773  0.87771  1.0000
  S   S474      1.0  0.62684  0.19617  0.86227  1.0000
  Fe  Fe237     1.0  0.79103  0.21466  0.85550  1.0000
  S   S475      1.0  0.78123  0.19705  0.88508  1.0000
  S   S476      1.0  0.77436  0.24642  0.84396  1.0000
  Fe  Fe238     1.0  0.82720  0.17981  0.84526  1.0000
  S   S477      1.0  0.82040  0.15944  0.87429  1.0000
  S   S478      1.0  0.85092  0.17222  0.81934  1.0000
  Fe  Fe239     1.0  0.78739  0.17028  0.87165  1.0000
  S   S479      1.0  0.76479  0.14938  0.88142  1.0000
  Fe  Fe240     1.0  0.81486  0.18833  0.88478  1.0000
  S   S480      1.0  0.82554  0.19331  0.90850  1.0000
  S   S481      1.0  0.79454  0.18858  0.84191  1.0000
  S   S482      1.0  0.82441  0.20788  0.85592  1.0000
  H   H1396     1.0  0.59157  0.16818  0.76789  1.0000
  S   S483      1.0  0.67193  0.29761  0.90304  1.0000
  C   C1389     1.0  0.83411  0.13791  0.96760  1.0000
  Fe  Fe241     1.0  0.95276  0.09977  0.75209  1.0000
  S   S484      1.0  0.93566  0.07811  0.77545  1.0000
  H   H1397     1.0  0.62179  0.29789  0.98571  1.0000
  H   H1398     1.0  0.66258  0.08778  0.86033  1.0000
  S   S485      1.0  0.97553  0.06789  0.79506  1.0000
  C   C1390     1.0  0.64094  0.14412  0.98403  1.0000
  Fe  Fe242     1.0  0.96653  0.05667  0.77391  1.0000
  S   S486      1.0  0.97738  0.02319  0.77359  1.0000
  Fe  Fe243     1.0  0.94608  0.09144  0.79455  1.0000
  S   S487      1.0  0.92730  0.09759  0.82294  1.0000
  S   S488      1.0  0.98257  0.07722  0.74894  1.0000
  S   S489      1.0  0.96077  0.11489  0.77122  1.0000
  C   C1391     1.0  0.81048  0.18479  0.93088  1.0000
  C   C1392     1.0  0.79921  0.16972  0.93379  1.0000
  C   C1393     1.0  0.78873  0.16181  0.95219  1.0000
  C   C1394     1.0  0.78926  0.16918  0.96763  1.0000
  C   C1395     1.0  0.79985  0.18484  0.96450  1.0000
  C   C1396     1.0  0.81060  0.19250  0.94621  1.0000
  H   H1399     1.0  0.79912  0.16369  0.92197  1.0000
  H   H1400     1.0  0.78065  0.14962  0.95449  1.0000
  N   N119      1.0  0.80196  0.26725  0.87367  1.0000
  H   H1401     1.0  0.81924  0.20420  0.94401  1.0000
  C   C1397     1.0  0.87276  0.15227  0.82093  1.0000
  C   C1398     1.0  0.87633  0.13999  0.83841  1.0000
  C   C1399     1.0  0.89321  0.12330  0.83894  1.0000
  C   C1400     1.0  0.90650  0.11880  0.82204  1.0000
  C   C1401     1.0  0.90294  0.13114  0.80462  1.0000
  C   C1402     1.0  0.88621  0.14787  0.80409  1.0000
  H   H1402     1.0  0.86604  0.14328  0.85146  1.0000
  H   H1403     1.0  0.89594  0.11381  0.85246  1.0000
  H   H1404     1.0  0.91312  0.12783  0.79152  1.0000
  H   H1405     1.0  0.88359  0.15737  0.79054  1.0000
  C   C1403     1.0  0.96241  0.01172  0.82500  1.0000
  C   C1404     1.0  0.92484  0.00100  0.79234  1.0000
  H   H1406     1.0  0.61922  0.20887  0.96800  1.0000
  C   C1405     1.0  0.74922  0.28139  0.85355  1.0000
  C   C1406     1.0  0.83294  0.11525  0.84672  1.0000
  H   H1407     1.0  0.75038  0.28722  0.83843  1.0000
  C   C1407     1.0  0.62219  0.24822  0.88909  1.0000
  C   C1408     1.0  0.61914  0.26610  0.89559  1.0000
  C   C1409     1.0  0.63046  0.28123  0.88530  1.0000
  C   C1410     1.0  0.64423  0.27880  0.86812  1.0000
  C   C1411     1.0  0.64686  0.26119  0.86131  1.0000
  C   C1412     1.0  0.63604  0.24576  0.87194  1.0000
  H   H1408     1.0  0.60811  0.26816  0.90862  1.0000
  H   H1409     1.0  0.65763  0.25923  0.84808  1.0000
  H   H1410     1.0  0.63849  0.23196  0.86686  1.0000
  C   C1413     1.0  0.70888  0.17258  0.85430  1.0000
  C   C1414     1.0  0.72765  0.17811  0.84437  1.0000
  C   C1415     1.0  0.74479  0.17118  0.85269  1.0000
  C   C1416     1.0  0.74341  0.15830  0.87080  1.0000
  C   C1417     1.0  0.72475  0.15236  0.88053  1.0000
  C   C1418     1.0  0.70746  0.15965  0.87239  1.0000
  H   H1411     1.0  0.72882  0.18803  0.83034  1.0000
  H   H1412     1.0  0.75908  0.17563  0.84490  1.0000
  H   H1413     1.0  0.72360  0.14225  0.89447  1.0000
  H   H1414     1.0  0.69310  0.15504  0.88003  1.0000
  C   C1419     1.0  0.51486  0.05297  0.76150  1.0000
  C   C1420     1.0  0.65156  0.17348  0.96077  1.0000
  C   C1421     1.0  0.65287  0.16395  0.94615  1.0000
  C   C1422     1.0  0.64836  0.14443  0.95038  1.0000
  C   C1423     1.0  0.64263  0.13442  0.96937  1.0000
  C   C1424     1.0  0.85942  0.17406  0.98904  1.0000
  H   H1415     1.0  0.65539  0.18844  0.95736  1.0000
  H   H1416     1.0  0.65772  0.17159  0.93162  1.0000
  H   H1417     1.0  0.63903  0.11936  0.97276  1.0000
  H   H1418     1.0  0.67722  0.30458  0.93880  1.0000
  C   C1425     1.0  0.68271  0.22157  0.89528  1.0000
  C   C1426     1.0  0.69619  0.32303  0.98672  1.0000
  H   H1419     1.0  0.71536  0.20161  0.87359  1.0000
  C   C1427     1.0  0.95969  0.00694  0.78197  1.0000
  C   C1428     1.0  0.93846  0.01464  0.78559  1.0000
  C   C1429     1.0  0.80757  0.24953  0.88639  1.0000
  H   H1420     1.0  0.93252  0.03104  0.78310  1.0000
  C   C1430     1.0  0.60992  0.13247  0.81476  1.0000
  C   C1431     1.0  0.59059  0.13168  0.82685  1.0000
  C   C1432     1.0  0.58557  0.13827  0.84394  1.0000
  C   C1433     1.0  0.59986  0.14561  0.84900  1.0000
  C   C1434     1.0  0.61947  0.14567  0.83730  1.0000
  C   C1435     1.0  0.62445  0.13917  0.82016  1.0000
  H   H1421     1.0  0.57937  0.12642  0.82287  1.0000
  H   H1422     1.0  0.57042  0.13807  0.85306  1.0000
  H   H1423     1.0  0.63061  0.15123  0.84119  1.0000
  H   H1424     1.0  0.63946  0.13973  0.81085  1.0000
  C   C1436     1.0  0.61640  0.22514  0.96771  1.0000
  S   S490      1.0  0.52376  0.15116  0.76423  1.0000
  H   H1425     1.0  0.78128  0.26438  0.92752  1.0000
  C   C1437     1.0  0.52818  0.06229  0.80902  1.0000
  C   C1438     1.0  0.98769  0.11054  0.83561  1.0000
  H   H1426     1.0  0.74269  0.16067  0.97409  1.0000
  H   H1427     1.0  0.52565  0.09491  0.79835  1.0000
  H   H1428     1.0  0.52540  0.03074  0.82009  1.0000
  H   H1429     1.0  0.72970  0.15992  0.94669  1.0000
  H   H1430     1.0  0.67303  0.08819  0.88942  1.0000
  C   C1439     1.0  0.59084  0.03440  0.74656  1.0000
  H   H1431     1.0  0.79839  0.27860  0.84505  1.0000
  C   C1440     1.0  0.85465  0.16304  0.96230  1.0000
  Fe  Fe244     1.0  0.55235  0.12853  0.76995  1.0000
  C   C1441     1.0  0.64553  0.16362  0.97974  1.0000
  H   H1432     1.0  0.84898  0.15275  0.93985  1.0000
  Fe  Fe245     1.0  0.69339  0.31925  0.89438  1.0000
  H   H1433     1.0  0.61099  0.18118  0.78350  1.0000
  H   H1434     1.0  0.61942  0.23462  0.93733  1.0000
  C   C1442     1.0  0.65704  0.09329  0.88841  1.0000
  H   H1435     1.0  0.59865  0.10438  0.92670  1.0000
  C   C1443     1.0  0.56484  0.00372  0.81049  1.0000
  C   C1444     1.0  0.59638  0.01713  0.79630  1.0000
  C   C1445     1.0  0.81206  0.12373  0.85199  1.0000
  H   H1436     1.0  0.55566  0.16423  0.78354  1.0000
  H   H1437     1.0  0.80436  0.23397  0.91589  1.0000
  N   N120      1.0  0.62215  0.10802  0.90170  1.0000
  C   C1446     1.0  0.69583  0.13638  0.98269  1.0000
  H   H1438     1.0  0.74546  0.26101  0.90764  1.0000
  H   H1439     1.0  0.76554  0.23868  0.88531  1.0000
  C   C1447     1.0  0.55536  0.17509  0.80796  1.0000
  C   C1448     1.0  0.75935  0.26140  0.86035  1.0000
  C   C1449     1.0  0.74643  0.26670  0.89255  1.0000
  H   H1440     1.0  0.61412  0.12229  0.92538  1.0000
  H   H1441     1.0  0.73924  0.21696  0.84524  1.0000
  C   C1450     1.0  0.80174  0.13679  0.83825  1.0000
  H   H1442     1.0  0.93832  0.99710  0.82588  1.0000
  H   H1443     1.0  0.60614  0.28279  0.96735  1.0000
  C   C1451     1.0  0.69412  0.25141  0.87266  1.0000
  H   H1444     1.0  0.59549  0.12966  0.91110  1.0000
  C   C1452     1.0  0.51797  0.08219  0.80213  1.0000
  C   C1453     1.0  0.75775  0.25400  0.87990  1.0000
  H   H1445     1.0  0.55985  0.18604  0.83036  1.0000
  C   C1454     1.0  0.61615  0.10705  0.88613  1.0000
  H   H1446     1.0  0.61361  0.27185  0.93721  1.0000
  H   H1447     1.0  0.67494  0.28196  0.95687  1.0000
  H   H1448     1.0  0.68152  0.26122  0.88033  1.0000
  N   N121      1.0  0.83294  0.13283  0.81428  1.0000
  C   C1455     1.0  0.84317  0.11987  0.82766  1.0000
  C   C1456     1.0  0.84383  0.13813  0.79441  1.0000
  H   H1449     1.0  0.85949  0.11344  0.82374  1.0000
  H   H1450     1.0  0.84483  0.15459  0.79060  1.0000
  H   H1451     1.0  0.85979  0.12894  0.79185  1.0000
  H   H1452     1.0  0.83561  0.13536  0.78486  1.0000
  H   H1453     1.0  0.82700  0.12919  0.96216  1.0000
  H   H1454     1.0  0.98928  0.02178  0.82528  1.0000
  C   C1457     1.0  0.70511  0.14486  0.96419  1.0000
  H   H1455     1.0  0.61256  0.01166  0.78921  1.0000
  C   C1458     1.0  0.80988  0.26846  0.85324  1.0000
  C   C1459     1.0  0.52186  0.15190  0.74117  1.0000
  H   H1456     1.0  0.78490  0.29814  0.86987  1.0000
  H   H1457     1.0  0.80387  0.12046  0.86674  1.0000
  C   C1460     1.0  0.72335  0.24800  0.84648  1.0000
  H   H1458     1.0  0.68277  0.12931  0.98531  1.0000
  C   C1461     1.0  0.52474  0.03533  0.75450  1.0000
  C   C1462     1.0  0.84644  0.15114  0.95509  1.0000
  C   C1463     1.0  0.80021  0.24823  0.90592  1.0000
  S   S491      1.0  0.63106  0.31172  0.94525  1.0000
  C   C1464     1.0  0.56673  0.18247  0.81649  1.0000
  H   H1459     1.0  0.69994  0.28494  0.94169  1.0000
  C   C1465     1.0  0.73778  0.29404  0.86618  1.0000
  C   C1466     1.0  0.81253  0.14141  0.81938  1.0000
  H   H1460     1.0  0.80012  0.19083  0.97616  1.0000
  H   H1461     1.0  0.53687  0.02434  0.76069  1.0000
  C   C1467     1.0  0.58426  0.17258  0.78137  1.0000
  Fe  Fe246     1.0  0.98925  0.09019  0.77015  1.0000
  H   H1462     1.0  0.67723  0.28241  0.98746  1.0000
  C   C1468     1.0  0.64219  0.10072  0.90323  1.0000
  C   C1469     1.0  0.60683  0.11641  0.91702  1.0000
  H   H1463     1.0  0.90840  0.00692  0.79506  1.0000
  S   S492      1.0  0.55609  0.09815  0.76336  1.0000
  C   C1470     1.0  0.72936  0.15401  0.97659  1.0000
  H   H1464     1.0  0.68763  0.20461  0.89946  1.0000
  C   C1471     1.0  0.59522  0.17990  0.79033  1.0000
  N   N122      1.0  0.85081  0.16162  0.98146  1.0000
  H   H1465     1.0  0.81289  0.25318  0.84977  1.0000
  H   H1466     1.0  0.62582  0.09985  0.85837  1.0000
  C   C1472     1.0  0.98812  0.09497  0.82693  1.0000
  C   C1473     1.0  0.95329  0.99477  0.82898  1.0000
  C   C1474     1.0  0.83017  0.13667  0.98708  1.0000
  H   H1467     1.0  0.59061  0.03266  0.78811  1.0000
  C   C1475     1.0  0.61313  0.26041  0.95044  1.0000
  H   H1468     1.0  0.59291  0.18936  0.83230  1.0000
  H   H1469     1.0  0.53989  0.17296  0.81511  1.0000
  C   C1476     1.0  0.51858  0.03169  0.73970  1.0000
  H   H1470     1.0  0.97390  0.09265  0.82511  1.0000
  C   C1477     1.0  0.59229  0.05480  0.74400  1.0000
  H   H1471     1.0  0.69917  0.14450  0.95234  1.0000
  H   H1472     1.0  0.56052  0.01377  0.82038  1.0000
  H   H1473     1.0  0.58529  0.06262  0.75550  1.0000
  C   C1478     1.0  0.72211  0.15361  0.96105  1.0000
  H   H1474     1.0  0.99550  0.12261  0.78649  1.0000
  S   S493      1.0  0.58439  0.13231  0.75490  1.0000
  C   C1479     1.0  0.70714  0.26047  0.85649  1.0000
  C   C1480     1.0  0.73668  0.28684  0.88567  1.0000
  H   H1475     1.0  0.80455  0.15208  0.80888  1.0000
  H   H1476     1.0  0.64692  0.10116  0.91572  1.0000
  C   C1481     1.0  0.56422  0.17016  0.79026  1.0000
  C   C1482     1.0  0.63058  0.09981  0.87101  1.0000
  C   C1483     1.0  0.69768  0.32013  0.95505  1.0000
  H   H1477     1.0  0.60017  0.11242  0.88510  1.0000
  H   H1478     1.0  0.78555  0.14354  0.84228  1.0000
  H   H1479     1.0  0.66723  0.22497  0.89209  1.0000
  C   C1484     1.0  0.78205  0.28345  0.89937  1.0000
  C   C1485     1.0  0.60898  0.26654  0.96760  1.0000
  C   C1486     1.0  0.71299  0.21817  0.86892  1.0000
  C   C1487     1.0  0.63462  0.32115  0.96339  1.0000
  C   C1488     1.0  0.72645  0.22672  0.85280  1.0000
  Fe  Fe247     1.0  0.66197  0.31390  0.87603  1.0000
  H   H1480     1.0  0.73033  0.30959  0.86077  1.0000
  S   S494      1.0  0.65922  0.29704  0.85577  1.0000
  C   C1489     1.0  0.78957  0.28417  0.87993  1.0000
  H   H1481     1.0  0.59629  0.01865  0.81068  1.0000
  H   H1482     1.0  0.68154  0.22813  0.90755  1.0000
  H   H1483     1.0  0.70462  0.27706  0.85176  1.0000
  H   H1484     1.0  0.81758  0.23614  0.88153  1.0000
  N   N123      1.0  0.58645  0.18464  0.80771  1.0000
  H   H1485     1.0  0.73371  0.25480  0.83399  1.0000
  N   N124      1.0  0.69706  0.23053  0.87860  1.0000
  H   H1486     1.0  0.59551  0.20998  0.81144  1.0000
  H   H1487     1.0  0.62837  0.29483  0.89060  1.0000
  H   H1488     1.0  0.84125  0.10542  0.85734  1.0000
  C   C1490     1.0  0.51782  0.04607  0.81445  1.0000
  N   N125      1.0  0.58316  0.00319  0.79747  1.0000
  S   S495      1.0  0.72405  0.30330  0.90131  1.0000
  H   H1489     1.0  0.95467  0.02687  0.81871  1.0000
  C   C1491     1.0  0.65118  0.09306  0.87212  1.0000
  H   H1490     1.0  0.58214  0.02699  0.75974  1.0000
  H   H1491     1.0  0.51936  0.05588  0.77311  1.0000
  H   H1492     1.0  0.77156  0.29665  0.90422  1.0000
  C   C1492     1.0  0.61254  0.23179  0.98459  1.0000
  C   C1493     1.0  0.61659  0.23957  0.95053  1.0000
  H   H1493     1.0  0.61464  0.18633  0.81310  1.0000
  C   C1494     1.0  0.62880  0.31102  0.98234  1.0000
  H   H1494     1.0  0.86381  0.17361  0.95241  1.0000
  H   H1495     1.0  0.97316  0.12038  0.84048  1.0000
  Fe  Fe248     1.0  0.58882  0.10047  0.75081  1.0000
  N   N126      1.0  0.68904  0.30319  0.96238  1.0000
  C   C1495     1.0  0.68518  0.29301  0.94937  1.0000
  H   H1496     1.0  0.97906  0.99950  0.74528  1.0000
  H   H1497     1.0  0.49916  0.13302  0.75051  1.0000
  C   C1496     1.0  0.68431  0.29567  0.98159  1.0000
  C   C1497     1.0  0.98184  0.00886  0.82859  1.0000
  H   H1498     1.0  0.86908  0.18379  0.97770  1.0000
  Fe  Fe249     1.0  0.64918  0.32257  0.91577  1.0000
  H   H1499     1.0  0.70150  0.32597  0.93979  1.0000
  C   C1498     1.0  0.49759  0.04962  0.81232  1.0000
  C   C1499     1.0  0.49770  0.08576  0.80016  1.0000
  Fe  Fe250     1.0  0.61616  0.59224  0.17910  1.0000
  S   S496      1.0  0.63649  0.58133  0.15329  1.0000
  S   S497      1.0  0.62745  0.58340  0.20625  1.0000
  Fe  Fe251     1.0  0.57857  0.60563  0.16217  1.0000
  S   S498      1.0  0.59552  0.59588  0.13499  1.0000
  S   S499      1.0  0.54424  0.61547  0.17059  1.0000
  Fe  Fe252     1.0  0.61039  0.56788  0.15347  1.0000
  S   S500      1.0  0.61677  0.53606  0.14839  1.0000
  Fe  Fe253     1.0  0.62031  0.61038  0.13669  1.0000
  S   S501      1.0  0.63778  0.62490  0.10794  1.0000
  S   S502      1.0  0.59142  0.57626  0.18053  1.0000
  S   S503      1.0  0.60192  0.62270  0.16265  1.0000
  S   S504      1.0  0.49982  0.59645  0.11616  1.0000
  C   C1500     1.0  0.64138  0.33461  0.99288  1.0000
  H   H1500     1.0  0.57152  0.43011  0.21996  1.0000
  N   N127      1.0  0.96386  0.60590  0.08124  1.0000
  C   C1501     1.0  0.93377  0.64359  0.10777  1.0000
  C   C1502     1.0  0.62649  0.59461  0.23859  1.0000
  C   C1503     1.0  0.62302  0.37096  0.12491  1.0000
  C   C1504     1.0  0.92289  0.63946  0.09650  1.0000
  H   H1501     1.0  0.60178  0.47697  0.21393  1.0000
  Fe  Fe254     1.0  0.54820  0.45976  0.16878  1.0000
  S   S505      1.0  0.57842  0.43916  0.15945  1.0000
  S   S506      1.0  0.54136  0.49263  0.17151  1.0000
  Fe  Fe255     1.0  0.52436  0.42638  0.17788  1.0000
  S   S507      1.0  0.55221  0.40247  0.17012  1.0000
  C   C1505     1.0  0.61199  0.34826  0.15397  1.0000
  Fe  Fe256     1.0  0.56723  0.41608  0.18519  1.0000
  S   S508      1.0  0.58909  0.39466  0.20251  1.0000
  Fe  Fe257     1.0  0.56118  0.42715  0.14488  1.0000
  S   S509      1.0  0.57611  0.42118  0.11545  1.0000
  S   S510      1.0  0.53841  0.43741  0.19574  1.0000
  S   S511      1.0  0.53190  0.45031  0.15154  1.0000
  Fe  Fe258     1.0  0.97021  0.63648  0.13587  1.0000
  Fe  Fe259     1.0  0.96716  0.60881  0.17545  1.0000
  S   S512      1.0  0.95236  0.60215  0.20657  1.0000
  S   S513      1.0  0.95478  0.60981  0.15046  1.0000
  C   C1506     1.0  0.95710  0.57540  0.21504  1.0000
  C   C1507     1.0  0.96268  0.56233  0.20238  1.0000
  C   C1508     1.0  0.53927  0.54734  0.12918  1.0000
  H   H1502     1.0  0.54313  0.33572  0.12144  1.0000
  C   C1509     1.0  0.99483  0.52529  0.13101  1.0000
  H   H1503     1.0  0.56445  0.57749  0.11145  1.0000
  H   H1504     1.0  0.96282  0.56860  0.18749  1.0000
  C   C1510     1.0  0.50896  0.39555  0.23466  1.0000
  H   H1505     1.0  0.58369  0.56152  0.12439  1.0000
  C   C1511     1.0  0.57866  0.39643  0.11175  1.0000
  C   C1512     1.0  0.56948  0.38163  0.12587  1.0000
  C   C1513     1.0  0.57249  0.36173  0.12311  1.0000
  C   C1514     1.0  0.58458  0.35643  0.10614  1.0000
  C   C1515     1.0  0.59369  0.37119  0.09186  1.0000
  C   C1516     1.0  0.59067  0.39119  0.09465  1.0000
  H   H1506     1.0  0.55995  0.38549  0.13890  1.0000
  H   H1507     1.0  0.56546  0.35038  0.13427  1.0000
  H   H1508     1.0  0.60300  0.36725  0.07867  1.0000
  H   H1509     1.0  0.59779  0.40258  0.08361  1.0000
  C   C1517     1.0  0.72244  0.63897  0.08714  1.0000
  C   C1518     1.0  0.96726  0.53273  0.22827  1.0000
  C   C1519     1.0  0.59862  0.40638  0.21536  1.0000
  H   H1510     1.0  0.89305  0.63525  0.99792  1.0000
  C   C1520     1.0  0.53603  0.35836  0.09673  1.0000
  H   H1511     1.0  0.98188  0.47665  0.21158  1.0000
  H   H1512     1.0  0.93182  0.57348  0.08954  1.0000
  H   H1513     1.0  0.58546  0.44518  0.23908  1.0000
  H   H1514     1.0  0.57405  0.57524  0.22153  1.0000
  C   C1521     1.0  0.61462  0.42379  0.23643  1.0000
  H   H1515     1.0  0.62750  0.38468  0.21332  1.0000
  H   H1516     1.0  0.95407  0.58285  0.10517  1.0000
  C   C1522     1.0  0.57103  0.58813  0.22814  1.0000
  H   H1517     1.0  0.62780  0.34004  0.10959  1.0000
  H   H1518     1.0  0.50590  0.42329  0.14932  1.0000
  C   C1523     1.0  0.96794  0.54103  0.20895  1.0000
  C   C1524     1.0  0.62552  0.49264  0.22989  1.0000
  C   C1525     1.0  0.59605  0.52347  0.15681  1.0000
  C   C1526     1.0  0.57647  0.53345  0.16483  1.0000
  C   C1527     1.0  0.55978  0.52363  0.16987  1.0000
  C   C1528     1.0  0.56273  0.50374  0.16711  1.0000
  C   C1529     1.0  0.58248  0.49349  0.15987  1.0000
  C   C1530     1.0  0.59910  0.50337  0.15466  1.0000
  H   H1519     1.0  0.57402  0.54897  0.16659  1.0000
  H   H1520     1.0  0.54451  0.53163  0.17548  1.0000
  H   H1521     1.0  0.58490  0.47821  0.15768  1.0000
  H   H1522     1.0  0.61426  0.49559  0.14850  1.0000
  C   C1531     1.0  0.53193  0.61010  0.15551  1.0000
  C   C1532     1.0  0.53957  0.61424  0.13586  1.0000
  C   C1533     1.0  0.52942  0.61025  0.12388  1.0000
  C   C1534     1.0  0.60931  0.63587  0.22610  1.0000
  H   H1523     1.0  0.61883  0.48207  0.19095  1.0000
  C   C1535     1.0  0.53147  0.34785  0.11561  1.0000
  H   H1524     1.0  0.55309  0.62087  0.12987  1.0000
  H   H1525     1.0  0.53528  0.61366  0.10866  1.0000
  H   H1526     1.0  0.87628  0.60804  0.99716  1.0000
  H   H1527     1.0  0.66762  0.64011  0.07641  1.0000
  H   H1528     1.0  0.59007  0.53030  0.11487  1.0000
  H   H1529     1.0  0.69816  0.33119  0.99633  1.0000
  H   H1530     1.0  0.91459  0.62707  0.10206  1.0000
  C   C1536     1.0  0.62645  0.40686  0.22898  1.0000
  C   C1537     1.0  0.62700  0.53041  0.20501  1.0000
  H   H1531     1.0  0.61894  0.40269  0.12607  1.0000
  C   C1538     1.0  0.62940  0.50849  0.23576  1.0000
  C   C1539     1.0  0.65015  0.64532  0.10387  1.0000
  C   C1540     1.0  0.61346  0.62204  0.21422  1.0000
  S   S514      1.0  0.99677  0.58742  0.16661  1.0000
  S   S515      1.0  0.97566  0.50632  0.23618  1.0000
  H   H1532     1.0  0.96100  0.62885  0.22931  1.0000
  H   H1533     1.0  0.61022  0.62739  0.20019  1.0000
  C   C1541     1.0  0.62211  0.60136  0.22047  1.0000
  S   S516      1.0  0.97943  0.63761  0.16196  1.0000
  H   H1534     1.0  0.62767  0.54510  0.19512  1.0000
  C   C1542     1.0  0.95318  0.59066  0.09066  1.0000
  S   S517      1.0  0.58776  0.33114  0.10362  1.0000
  H   H1535     1.0  0.55158  0.63934  0.22107  1.0000
  C   C1543     1.0  0.62661  0.33460  0.12517  1.0000
  H   H1536     1.0  0.98405  0.64780  0.23718  1.0000
  C   C1544     1.0  0.60899  0.38389  0.15357  1.0000
  H   H1537     1.0  0.60287  0.65191  0.22116  1.0000
  H   H1538     1.0  0.96974  0.61007  0.10610  1.0000
  H   H1539     1.0  0.62735  0.65260  0.07057  1.0000
  C   C1545     1.0  0.96300  0.61555  0.06285  1.0000
  C   C1546     1.0  0.53202  0.53028  0.12930  1.0000
  H   H1540     1.0  0.81383  0.65707  0.02803  1.0000
  S   S518      1.0  0.64705  0.34218  0.01108  1.0000
  H   H1541     1.0  0.97878  0.62751  0.08487  1.0000
  C   C1547     1.0  0.94455  0.65954  0.10073  1.0000
  N   N128      1.0  0.62013  0.35177  0.13483  1.0000
  H   H1542     1.0  0.62930  0.37384  0.10972  1.0000
  C   C1548     1.0  0.71051  0.64616  0.10329  1.0000
  H   H1543     1.0  0.52868  0.48664  0.21281  1.0000
  C   C1549     1.0  0.58681  0.42361  0.22249  1.0000
  H   H1544     1.0  0.98405  0.52756  0.12222  1.0000
  C   C1550     1.0  0.56214  0.60771  0.21930  1.0000
  C   C1551     1.0  0.57370  0.53051  0.11866  1.0000
  H   H1545     1.0  0.63462  0.65469  0.13016  1.0000
  C   C1552     1.0  0.51687  0.49755  0.21997  1.0000
  H   H1546     1.0  0.52833  0.56057  0.13345  1.0000
  C   C1553     1.0  0.94066  0.58521  0.08186  1.0000
  Fe  Fe260     1.0  0.98574  0.59095  0.14038  1.0000
  C   C1554     1.0  0.55855  0.62416  0.22801  1.0000
  H   H1547     1.0  0.60982  0.33303  0.16187  1.0000
  H   H1548     1.0  0.92928  0.59162  0.05639  1.0000
  C   C1555     1.0  0.61735  0.38733  0.13409  1.0000
  C   C1556     1.0  0.56706  0.56527  0.12419  1.0000
  H   H1549     1.0  0.62853  0.46429  0.21046  1.0000
  C   C1557     1.0  0.60626  0.36427  0.16362  1.0000
  C   C1558     1.0  0.92269  0.65127  0.07810  1.0000
  C   C1559     1.0  0.62304  0.51427  0.19965  1.0000
  C   C1560     1.0  0.51422  0.60180  0.16315  1.0000
  H   H1550     1.0  0.51495  0.39961  0.21947  1.0000
  H   H1551     1.0  0.97261  0.53103  0.19902  1.0000
  C   C1561     1.0  0.93938  0.59524  0.06323  1.0000
  N   N129      1.0  0.55989  0.54719  0.12414  1.0000
  C   C1562     1.0  0.95079  0.61034  0.05357  1.0000
  C   C1563     1.0  0.56697  0.51317  0.11859  1.0000
  C   C1564     1.0  0.54600  0.51306  0.12405  1.0000
  H   H1552     1.0  0.57799  0.49969  0.11489  1.0000
  H   H1553     1.0  0.52467  0.38210  0.07468  1.0000
  H   H1554     1.0  0.55865  0.57129  0.13713  1.0000
  C   C1565     1.0  0.59469  0.43210  0.23334  1.0000
  H   H1555     1.0  0.63282  0.54003  0.22766  1.0000
  H   H1556     1.0  0.55128  0.35450  0.08794  1.0000
  H   H1557     1.0  0.99214  0.60078  0.08930  1.0000
  H   H1558     1.0  0.74878  0.64216  0.06380  1.0000
  C   C1566     1.0  0.51199  0.35317  0.12693  1.0000
  H   H1559     1.0  0.50117  0.50946  0.19687  1.0000
  H   H1560     1.0  0.93358  0.63453  0.12200  1.0000
  C   C1567     1.0  0.51173  0.60195  0.13149  1.0000
  H   H1561     1.0  0.71836  0.62714  0.08282  1.0000
  H   H1562     1.0  0.94941  0.61864  0.03928  1.0000
  H   H1563     1.0  0.51570  0.53030  0.13382  1.0000
  N   N130      1.0  0.62242  0.49565  0.21202  1.0000
  H   H1564     1.0  0.60453  0.39642  0.16090  1.0000
  C   C1568     1.0  0.50138  0.51032  0.21104  1.0000
  H   H1565     1.0  0.62051  0.51675  0.18552  1.0000
  H   H1566     1.0  0.59971  0.36161  0.17880  1.0000
  S   S519      1.0  0.90941  0.64519  0.06425  1.0000
  C   C1569     1.0  0.61766  0.47898  0.20651  1.0000
  H   H1567     1.0  0.84023  0.65075  0.99767  1.0000
  C   C1570     1.0  0.97687  0.61137  0.09073  1.0000
  H   H1568     1.0  0.97128  0.62777  0.05545  1.0000
  C   C1571     1.0  0.73946  0.64737  0.07650  1.0000
  H   H1569     1.0  0.54063  0.49946  0.12470  1.0000
  C   C1572     1.0  0.50423  0.59753  0.15117  1.0000
  C   C1573     1.0  0.52089  0.37391  0.08933  1.0000
  S   S520      1.0  0.98667  0.56697  0.12513  1.0000
  C   C1574     1.0  0.64542  0.65801  0.11674  1.0000
  H   H1570     1.0  0.50836  0.34531  0.14172  1.0000
  C   C1575     1.0  0.61834  0.39796  0.21879  1.0000
  H   H1571     1.0  0.69718  0.63967  0.11136  1.0000
  C   C1576     1.0  0.51704  0.49896  0.23815  1.0000
  H   H1572     1.0  0.55806  0.61015  0.20576  1.0000
  C   C1577     1.0  0.95610  0.56701  0.23443  1.0000
  H   H1573     1.0  0.50841  0.59836  0.17837  1.0000
  H   H1574     1.0  0.64187  0.40046  0.23124  1.0000
  C   C1578     1.0  0.66397  0.64986  0.08644  1.0000
  C   C1579     1.0  0.63004  0.52751  0.22324  1.0000
  N   N131      1.0  0.50164  0.37863  0.10038  1.0000
  H   H1575     1.0  0.97563  0.61575  0.28357  1.0000
  C   C1580     1.0  0.96010  0.55540  0.31858  1.0000
  C   C1581     1.0  0.87839  0.48071  0.34390  1.0000
  H   H1576     1.0  0.96049  0.53935  0.25601  1.0000
  C   C1582     1.0  0.66776  0.65121  0.43235  1.0000
  H   H1577     1.0  0.80733  0.39008  0.34354  1.0000
  C   C1583     1.0  0.91137  0.37626  0.46079  1.0000
  C   C1584     1.0  0.75766  0.34322  0.47333  1.0000
  H   H1578     1.0  0.99286  0.54345  0.34989  1.0000
  Fe  Fe261     1.0  0.60621  0.63578  0.32875  1.0000
  S   S521      1.0  0.62833  0.61921  0.30675  1.0000
  N   N132      1.0  0.83804  0.37265  0.34277  1.0000
  Fe  Fe262     1.0  0.56944  0.62059  0.32575  1.0000
  S   S522      1.0  0.58838  0.60344  0.30341  1.0000
  S   S523      1.0  0.53585  0.61989  0.33792  1.0000
  Fe  Fe263     1.0  0.61170  0.59309  0.32147  1.0000
  S   S524      1.0  0.62377  0.55877  0.32790  1.0000
  Fe  Fe264     1.0  0.60306  0.63071  0.29063  1.0000
  H   H1579     1.0  0.56683  0.63487  0.26620  1.0000
  S   S525      1.0  0.59175  0.60861  0.34490  1.0000
  C   C1585     1.0  0.61321  0.62894  0.24442  1.0000
  Fe  Fe265     1.0  0.83611  0.37689  0.40849  1.0000
  S   S526      1.0  0.84655  0.40412  0.38744  1.0000
  H   H1580     1.0  0.92287  0.48338  0.35108  1.0000
  Fe  Fe266     1.0  0.83444  0.39252  0.44250  1.0000
  S   S527      1.0  0.84469  0.42139  0.42488  1.0000
  H   H1581     1.0  0.51614  0.40058  0.27605  1.0000
  Fe  Fe267     1.0  0.82329  0.42232  0.40709  1.0000
  S   S528      1.0  0.80322  0.45223  0.39701  1.0000
  Fe  Fe268     1.0  0.86744  0.40088  0.40679  1.0000
  S   S529      1.0  0.89998  0.40585  0.39779  1.0000
  S   S530      1.0  0.81076  0.39545  0.42637  1.0000
  S   S531      1.0  0.85907  0.37168  0.42616  1.0000
  Fe  Fe269     1.0  0.73014  0.40489  0.37334  1.0000
  S   S532      1.0  0.74972  0.37745  0.38827  1.0000
  S   S533      1.0  0.72866  0.43784  0.37279  1.0000
  Fe  Fe270     1.0  0.71122  0.37948  0.35857  1.0000
  S   S534      1.0  0.69226  0.38320  0.33724  1.0000
  Fe  Fe271     1.0  0.72164  0.36404  0.39749  1.0000
  S   S535      1.0  0.70116  0.39258  0.38466  1.0000
  S   S536      1.0  0.73887  0.39390  0.34633  1.0000
  Fe  Fe272     1.0  0.58877  0.49174  0.28282  1.0000
  S   S537      1.0  0.61543  0.46568  0.28703  1.0000
  S   S538      1.0  0.59301  0.52441  0.27339  1.0000
  Fe  Fe273     1.0  0.55895  0.46346  0.29045  1.0000
  S   S539      1.0  0.58293  0.43476  0.29587  1.0000
  S   S540      1.0  0.52675  0.46648  0.28714  1.0000
  Fe  Fe274     1.0  0.59318  0.45178  0.31201  1.0000
  H   H1582     1.0  0.99506  0.63516  0.25733  1.0000
  Fe  Fe275     1.0  0.60315  0.45100  0.27055  1.0000
  C   C1586     1.0  0.86857  0.40941  0.48042  1.0000
  S   S541      1.0  0.56705  0.47921  0.30911  1.0000
  S   S542      1.0  0.57867  0.47842  0.26374  1.0000
  S   S543      1.0  0.94035  0.50553  0.28802  1.0000
  H   H1583     1.0  0.52114  0.56787  0.35255  1.0000
  H   H1584     1.0  0.51898  0.51163  0.26754  1.0000
  H   H1585     1.0  0.90460  0.50739  0.34670  1.0000
  Fe  Fe276     1.0  0.94855  0.47303  0.30393  1.0000
  S   S544      1.0  0.92329  0.45518  0.31312  1.0000
  C   C1587     1.0  0.85645  0.40231  0.47245  1.0000
  H   H1586     1.0  0.66086  0.39734  0.36844  1.0000
  H   H1587     1.0  0.78421  0.36498  0.43040  1.0000
  C   C1588     1.0  0.66860  0.40081  0.33807  1.0000
  C   C1589     1.0  0.65575  0.40445  0.35532  1.0000
  C   C1590     1.0  0.62860  0.42474  0.33886  1.0000
  C   C1591     1.0  0.64187  0.42197  0.32154  1.0000
  C   C1592     1.0  0.66177  0.40996  0.32117  1.0000
  H   H1588     1.0  0.63655  0.42834  0.30850  1.0000
  H   H1589     1.0  0.67170  0.40722  0.30779  1.0000
  C   C1593     1.0  0.90767  0.41807  0.37385  1.0000
  C   C1594     1.0  0.89639  0.41934  0.36061  1.0000
  C   C1595     1.0  0.90177  0.43027  0.34188  1.0000
  C   C1596     1.0  0.91850  0.44001  0.33623  1.0000
  C   C1597     1.0  0.93025  0.43828  0.34927  1.0000
  C   C1598     1.0  0.92485  0.42727  0.36807  1.0000
  H   H1590     1.0  0.88358  0.41185  0.36470  1.0000
  H   H1591     1.0  0.89277  0.43141  0.33179  1.0000
  H   H1592     1.0  0.94338  0.44549  0.34493  1.0000
  H   H1593     1.0  0.93380  0.42612  0.37821  1.0000
  C   C1599     1.0  0.78303  0.44823  0.38956  1.0000
  C   C1600     1.0  0.78344  0.42895  0.38679  1.0000
  C   C1601     1.0  0.76696  0.42577  0.38125  1.0000
  C   C1602     1.0  0.74987  0.44171  0.37888  1.0000
  C   C1603     1.0  0.74958  0.46100  0.38157  1.0000
  C   C1604     1.0  0.76619  0.46429  0.38681  1.0000
  H   H1594     1.0  0.79655  0.41656  0.38865  1.0000
  H   H1595     1.0  0.76764  0.41110  0.37857  1.0000
  H   H1596     1.0  0.73647  0.47341  0.37964  1.0000
  H   H1597     1.0  0.76589  0.47923  0.38890  1.0000
  H   H1598     1.0  0.81235  0.33782  0.44160  1.0000
  C   C1605     1.0  0.73992  0.43293  0.46913  1.0000
  C   C1606     1.0  0.85604  0.35127  0.32045  1.0000
  C   C1607     1.0  0.67545  0.49339  0.34386  1.0000
  H   H1599     1.0  0.86029  0.40314  0.45739  1.0000
  H   H1600     1.0  0.90034  0.47098  0.38101  1.0000
  H   H1601     1.0  0.69390  0.43062  0.33092  1.0000
  S   S545      1.0  0.82683  0.35214  0.40099  1.0000
  H   H1602     1.0  0.60928  0.38188  0.35391  1.0000
  C   C1608     1.0  0.74073  0.43988  0.43501  1.0000
  C   C1609     1.0  0.84755  0.33632  0.38907  1.0000
  H   H1603     1.0  0.53300  0.42696  0.31418  1.0000
  C   C1610     1.0  0.52279  0.61672  0.32224  1.0000
  N   N133      1.0  0.50236  0.51296  0.24702  1.0000
  H   H1604     1.0  0.68006  0.50491  0.34818  1.0000
  C   C1611     1.0  0.88944  0.35587  0.48513  1.0000
  C   C1612     1.0  0.52306  0.61167  0.29152  1.0000
  C   C1613     1.0  0.53291  0.61596  0.30351  1.0000
  C   C1614     1.0  0.65208  0.48355  0.33100  1.0000
  H   H1605     1.0  0.57555  0.56089  0.30939  1.0000
  H   H1606     1.0  0.53107  0.61056  0.27718  1.0000
  H   H1607     1.0  0.54832  0.61864  0.29828  1.0000
  C   C1615     1.0  0.61763  0.54764  0.31231  1.0000
  C   C1616     1.0  0.61091  0.52898  0.31894  1.0000
  C   C1617     1.0  0.60409  0.52117  0.30685  1.0000
  C   C1618     1.0  0.60392  0.53211  0.28816  1.0000
  C   C1619     1.0  0.61130  0.55034  0.28144  1.0000
  C   C1620     1.0  0.61818  0.55804  0.29345  1.0000
  H   H1608     1.0  0.61019  0.52100  0.33361  1.0000
  H   H1609     1.0  0.59828  0.50712  0.31218  1.0000
  H   H1610     1.0  0.61157  0.55864  0.26695  1.0000
  H   H1611     1.0  0.62383  0.57215  0.28815  1.0000
  H   H1612     1.0  0.91674  0.38312  0.44593  1.0000
  S   S546      1.0  0.78871  0.35147  0.35027  1.0000
  C   C1621     1.0  0.69307  0.43757  0.34288  1.0000
  C   C1622     1.0  0.70449  0.39763  0.44879  1.0000
  H   H1613     1.0  0.66709  0.63661  0.44313  1.0000
  C   C1623     1.0  0.70863  0.35531  0.46302  1.0000
  H   H1614     1.0  0.91406  0.49136  0.32952  1.0000
  H   H1615     1.0  0.85089  0.47109  0.34445  1.0000
  H   H1616     1.0  0.64941  0.63242  0.34661  1.0000
  C   C1624     1.0  0.51368  0.44599  0.29520  1.0000
  N   N134      1.0  0.89206  0.48061  0.35409  1.0000
  H   H1617     1.0  0.55614  0.55620  0.28833  1.0000
  H   H1618     1.0  0.64909  0.51424  0.33449  1.0000
  C   C1625     1.0  0.63075  0.39273  0.28880  1.0000
  C   C1626     1.0  0.50291  0.51416  0.26602  1.0000
  H   H1619     1.0  0.55288  0.57793  0.35321  1.0000
  C   C1627     1.0  0.51946  0.42861  0.30891  1.0000
  H   H1620     1.0  0.65903  0.45187  0.32938  1.0000
  H   H1621     1.0  0.78443  0.33650  0.39088  1.0000
  C   C1628     1.0  0.50297  0.60833  0.29809  1.0000
  C   C1629     1.0  0.76139  0.35678  0.45577  1.0000
  C   C1630     1.0  0.65802  0.49859  0.33623  1.0000
  S   S547      1.0  0.69764  0.40661  0.48354  1.0000
  C   C1631     1.0  0.50719  0.41366  0.31632  1.0000
  H   H1622     1.0  0.70029  0.46921  0.35210  1.0000
  H   H1623     1.0  0.63841  0.48733  0.32527  1.0000
  C   C1632     1.0  0.98804  0.63262  0.24672  1.0000
  H   H1624     1.0  0.88073  0.48776  0.32885  1.0000
  C   C1633     1.0  0.83986  0.39369  0.48406  1.0000
  H   H1625     1.0  0.63487  0.40806  0.28483  1.0000
  S   S548      1.0  0.58198  0.64894  0.31142  1.0000
  H   H1626     1.0  0.63360  0.57874  0.24330  1.0000
  H   H1627     1.0  0.57632  0.57047  0.33702  1.0000
  S   S549      1.0  0.96485  0.48061  0.32231  1.0000
  H   H1628     1.0  0.85585  0.37734  0.35970  1.0000
  C   C1634     1.0  0.70892  0.38442  0.43634  1.0000
  H   H1629     1.0  0.96025  0.59297  0.33976  1.0000
  C   C1635     1.0  0.63573  0.41632  0.35571  1.0000
  C   C1636     1.0  0.96110  0.54570  0.24105  1.0000
  S   S550      1.0  0.60271  0.43729  0.33992  1.0000
  N   N135      1.0  0.56383  0.62118  0.24497  1.0000
  C   C1637     1.0  0.65562  0.36131  0.32888  1.0000
  H   H1630     1.0  0.66467  0.36763  0.29849  1.0000
  H   H1631     1.0  0.67063  0.35228  0.33087  1.0000
  H   H1632     1.0  0.62833  0.64634  0.39401  1.0000
  H   H1633     1.0  0.94521  0.59995  0.29842  1.0000
  H   H1634     1.0  0.74102  0.45597  0.42713  1.0000
  C   C1638     1.0  0.88938  0.47131  0.37297  1.0000
  S   S551      1.0  0.82502  0.38431  0.47421  1.0000
  C   C1639     1.0  0.86157  0.47122  0.35259  1.0000
  S   S552      1.0  0.60675  0.64608  0.25962  1.0000
  H   H1635     1.0  0.88823  0.33900  0.32021  1.0000
  H   H1636     1.0  0.81180  0.37269  0.36538  1.0000
  C   C1640     1.0  0.90918  0.49126  0.34495  1.0000
  C   C1641     1.0  0.68686  0.47321  0.34596  1.0000
  C   C1642     1.0  0.95350  0.56882  0.33099  1.0000
  H   H1637     1.0  0.92233  0.59878  0.27857  1.0000
  C   C1643     1.0  0.65216  0.37014  0.31060  1.0000
  N   N136      1.0  0.63360  0.38242  0.30804  1.0000
  S   S553      1.0  0.62552  0.43444  0.24905  1.0000
  C   C1644     1.0  0.96544  0.58269  0.33006  1.0000
  S   S554      1.0  0.94488  0.53799  0.32055  1.0000
  Fe  Fe277     1.0  0.95878  0.51264  0.30479  1.0000
  C   C1645     1.0  0.61825  0.38646  0.32337  1.0000
  C   C1646     1.0  0.87424  0.34887  0.32617  1.0000
  H   H1638     1.0  0.71003  0.33894  0.46859  1.0000
  C   C1647     1.0  0.55928  0.56125  0.31443  1.0000
  Fe  Fe278     1.0  0.75580  0.36500  0.36228  1.0000
  C   C1648     1.0  0.52724  0.55942  0.30874  1.0000
  H   H1639     1.0  0.95174  0.57688  0.24434  1.0000
  C   C1649     1.0  0.62120  0.37793  0.34185  1.0000
  H   H1640     1.0  0.68448  0.65092  0.30603  1.0000
  C   C1650     1.0  0.78115  0.35468  0.44421  1.0000
  H   H1641     1.0  0.74896  0.36881  0.45112  1.0000
  C   C1651     1.0  0.98407  0.58322  0.31673  1.0000
  H   H1642     1.0  0.62553  0.41845  0.36916  1.0000
  C   C1652     1.0  0.78234  0.42768  0.46176  1.0000
  H   H1643     1.0  0.71063  0.39071  0.42127  1.0000
  C   C1653     1.0  0.50245  0.61387  0.32876  1.0000
  N   N137      1.0  0.54957  0.56439  0.33223  1.0000
  H   H1644     1.0  0.51140  0.40048  0.32727  1.0000
  C   C1654     1.0  0.54833  0.55868  0.30243  1.0000
  C   C1655     1.0  0.85587  0.37051  0.34833  1.0000
  N   N138      1.0  0.96982  0.62364  0.25565  1.0000
  S   S555      1.0  0.97723  0.46519  0.28218  1.0000
  C   C1656     1.0  0.96565  0.61544  0.27477  1.0000
  C   C1657     1.0  0.64833  0.64622  0.35125  1.0000
  H   H1645     1.0  0.64049  0.38375  0.27814  1.0000
  H   H1646     1.0  0.82378  0.36468  0.32472  1.0000
  C   C1658     1.0  0.85880  0.46161  0.37180  1.0000
  H   H1647     1.0  0.84593  0.45404  0.37868  1.0000
  C   C1659     1.0  0.51753  0.40118  0.24684  1.0000
  H   H1648     1.0  0.89042  0.36168  0.45522  1.0000
  H   H1649     1.0  0.98438  0.51291  0.34480  1.0000
  H   H1650     1.0  0.87109  0.34720  0.39500  1.0000
  H   H1651     1.0  0.88830  0.35682  0.34468  1.0000
  H   H1652     1.0  0.70916  0.43687  0.34338  1.0000
  C   C1660     1.0  0.64004  0.36531  0.34458  1.0000
  H   H1653     1.0  0.57694  0.59961  0.26710  1.0000
  H   H1654     1.0  0.72445  0.43810  0.44002  1.0000
  H   H1655     1.0  0.64287  0.35929  0.35879  1.0000
  S   S556      1.0  0.72901  0.34937  0.37249  1.0000
  C   C1661     1.0  0.93995  0.61433  0.25269  1.0000
  N   N139      1.0  0.75108  0.43482  0.45081  1.0000
  H   H1656     1.0  0.62517  0.60297  0.26460  1.0000
  H   H1657     1.0  0.50095  0.56366  0.33176  1.0000
  H   H1658     1.0  0.56489  0.55100  0.35493  1.0000
  H   H1659     1.0  0.99009  0.46231  0.24165  1.0000
  C   C1662     1.0  0.94847  0.60648  0.28329  1.0000
  H   H1660     1.0  0.72331  0.43509  0.47222  1.0000
  S   S557      1.0  0.71667  0.34656  0.42783  1.0000
  N   N140      1.0  0.68118  0.45870  0.34037  1.0000
  C   C1663     1.0  0.87427  0.35881  0.33997  1.0000
  C   C1664     1.0  0.87283  0.46155  0.38207  1.0000
  H   H1661     1.0  0.65986  0.63633  0.40667  1.0000
  H   H1662     1.0  0.60388  0.39698  0.32141  1.0000
  H   H1663     1.0  0.65588  0.65120  0.29208  1.0000
  C   C1665     1.0  0.66385  0.46353  0.33329  1.0000
  H   H1664     1.0  0.79896  0.42566  0.45873  1.0000
  C   C1666     1.0  0.86789  0.33686  0.38823  1.0000
  C   C1667     1.0  0.71086  0.36323  0.44342  1.0000
  H   H1665     1.0  0.98385  0.54566  0.29552  1.0000
  H   H1666     1.0  0.82104  0.39641  0.35755  1.0000
  S   S558      1.0  0.98837  0.50872  0.28300  1.0000
  N   N141      1.0  0.64925  0.65790  0.42455  1.0000
  C   C1668     1.0  0.97864  0.55600  0.30510  1.0000
  H   H1667     1.0  0.87112  0.45364  0.39689  1.0000
  C   C1669     1.0  0.66443  0.64837  0.35819  1.0000
  H   H1668     1.0  0.93916  0.56842  0.34144  1.0000
  H   H1669     1.0  0.68578  0.42815  0.35634  1.0000
  C   C1670     1.0  0.81865  0.38357  0.35277  1.0000
  H   H1670     1.0  0.85574  0.34335  0.30994  1.0000
  H   H1671     1.0  0.78071  0.43474  0.43246  1.0000
  C   C1671     1.0  0.52893  0.56496  0.33859  1.0000
  C   C1672     1.0  0.51745  0.56248  0.32696  1.0000
  C   C1673     1.0  0.93557  0.60592  0.27215  1.0000
  H   H1672     1.0  0.99526  0.55438  0.25525  1.0000
  H   H1673     1.0  0.52897  0.48881  0.24517  1.0000
  C   C1674     1.0  0.70249  0.38972  0.46835  1.0000
  H   H1674     1.0  0.63160  0.50614  0.25002  1.0000
  Fe  Fe279     1.0  0.97053  0.49836  0.26788  1.0000
  H   H1675     1.0  0.70258  0.41401  0.44322  1.0000
  H   H1676     1.0  0.51837  0.55816  0.29937  1.0000
  H   H1677     1.0  0.74856  0.42952  0.42501  1.0000
  C   C1675     1.0  0.57622  0.58518  0.24549  1.0000
  C   C1676     1.0  0.83799  0.36336  0.32890  1.0000
  C   C1677     1.0  0.62959  0.65382  0.40447  1.0000
  C   C1678     1.0  0.77197  0.43265  0.44699  1.0000
  H   H1678     1.0  0.88140  0.41607  0.47142  1.0000
  H   H1679     1.0  0.61455  0.39488  0.28777  1.0000
  H   H1680     1.0  0.68174  0.64889  0.42083  1.0000
  C   C1679     1.0  0.77372  0.32767  0.47903  1.0000
  C   C1680     1.0  0.70463  0.36852  0.47546  1.0000
  H   H1681     1.0  0.74242  0.34458  0.48257  1.0000
  C   C1681     1.0  0.50976  0.39621  0.26640  1.0000
  C   C1682     1.0  0.56148  0.56598  0.34498  1.0000
  C   C1683     1.0  0.57254  0.60199  0.25376  1.0000
  H   H1682     1.0  0.67785  0.63608  0.35896  1.0000
  C   C1684     1.0  0.62178  0.60829  0.25064  1.0000
  C   C1685     1.0  0.99067  0.56984  0.30424  1.0000
  C   C1686     1.0  0.95740  0.62292  0.24458  1.0000
  Fe  Fe280     1.0  0.99282  0.47597  0.29889  1.0000
  C   C1687     1.0  0.74977  0.42815  0.48422  1.0000
  H   H1683     1.0  0.56584  0.65169  0.24362  1.0000
  C   C1688     1.0  0.79699  0.33919  0.45058  1.0000
  C   C1689     1.0  0.64736  0.64818  0.41173  1.0000
  C   C1690     1.0  0.89657  0.36424  0.46599  1.0000
  H   H1684     1.0  0.93049  0.38894  0.47080  1.0000
  H   H1685     1.0  0.93024  0.61370  0.24377  1.0000
  H   H1686     1.0  0.58330  0.56999  0.25230  1.0000
  H   H1687     1.0  0.76705  0.33580  0.41389  1.0000
  C   C1691     1.0  0.77114  0.42530  0.48049  1.0000
  C   C1692     1.0  0.55952  0.63870  0.25388  1.0000
  C   C1693     1.0  0.91901  0.37955  0.47490  1.0000
  H   H1688     1.0  0.54267  0.64373  0.25890  1.0000
  C   C1694     1.0  0.78162  0.32777  0.40585  1.0000
  H   H1689     1.0  0.53006  0.40938  0.24112  1.0000
  H   H1690     1.0  0.79431  0.32790  0.41217  1.0000
  H   H1691     1.0  0.62492  0.47793  0.23974  1.0000
  H   H1692     1.0  0.87791  0.34655  0.48932  1.0000
  Fe  Fe281     1.0  0.91666  0.44261  0.67294  1.0000
  S   S559      1.0  0.92484  0.46843  0.64859  1.0000
  S   S560      1.0  0.90417  0.41687  0.66990  1.0000
  Fe  Fe282     1.0  0.93198  0.45811  0.69979  1.0000
  S   S561      1.0  0.94148  0.48501  0.67752  1.0000
  C   C1695     1.0  0.99355  0.49440  0.63671  1.0000
  Fe  Fe283     1.0  0.91146  0.48805  0.67007  1.0000
  S   S562      1.0  0.88932  0.51798  0.66476  1.0000
  Fe  Fe284     1.0  0.95394  0.46258  0.65856  1.0000
  N   N142      1.0  0.94895  0.41066  0.62810  1.0000
  S   S563      1.0  0.90089  0.46279  0.69378  1.0000
  S   S564      1.0  0.94689  0.43518  0.68151  1.0000
  C   C1696     1.0  0.92095  0.37410  0.50803  1.0000
  H   H1693     1.0  0.55164  0.42603  0.61963  1.0000
  H   H1694     1.0  0.74086  0.42659  0.49873  1.0000
  H   H1695     1.0  0.93530  0.39601  0.61460  1.0000
  S   S565      1.0  0.96160  0.58151  0.65738  1.0000
  H   H1696     1.0  0.78361  0.34849  0.51709  1.0000
  H   H1697     1.0  0.95297  0.60374  0.71497  1.0000
  C   C1697     1.0  0.97539  0.45689  0.71107  1.0000
  C   C1698     1.0  0.82514  0.44007  0.60397  1.0000
  C   C1699     1.0  0.94652  0.44336  0.59690  1.0000
  H   H1698     1.0  0.57108  0.51484  0.72762  1.0000
  N   N143      1.0  0.83466  0.44318  0.61637  1.0000
  C   C1700     1.0  0.83811  0.33410  0.54855  1.0000
  H   H1699     1.0  0.84661  0.46409  0.62479  1.0000
  H   H1700     1.0  0.79819  0.41739  0.53059  1.0000
  C   C1701     1.0  0.95635  0.42754  0.62687  1.0000
  H   H1701     1.0  0.60716  0.49269  0.70295  1.0000
  Fe  Fe285     1.0  0.57924  0.64308  0.68398  1.0000
  S   S566      1.0  0.60754  0.62288  0.67053  1.0000
  H   H1702     1.0  0.82592  0.47564  0.61263  1.0000
  S   S567      1.0  0.55806  0.62289  0.68560  1.0000
  H   H1703     1.0  0.92257  0.39029  0.50522  1.0000
  Fe  Fe286     1.0  0.58572  0.60436  0.66979  1.0000
  S   S568      1.0  0.59356  0.56996  0.67920  1.0000
  S   S569      1.0  0.58007  0.62174  0.64111  1.0000
  Fe  Fe287     1.0  0.87871  0.40629  0.57903  1.0000
  S   S570      1.0  0.90200  0.39383  0.55537  1.0000
  S   S571      1.0  0.88383  0.43143  0.58973  1.0000
  Fe  Fe288     1.0  0.84699  0.38418  0.57772  1.0000
  S   S572      1.0  0.86735  0.36981  0.55387  1.0000
  S   S573      1.0  0.81516  0.37814  0.59114  1.0000
  Fe  Fe289     1.0  0.89195  0.36409  0.56982  1.0000
  Fe  Fe290     1.0  0.87563  0.40065  0.54135  1.0000
  S   S574      1.0  0.88090  0.41421  0.51011  1.0000
  S   S575      1.0  0.87097  0.37577  0.59510  1.0000
  S   S576      1.0  0.85298  0.41573  0.56365  1.0000
  S   S577      1.0  0.70179  0.40935  0.53403  1.0000
  S   S578      1.0  0.67037  0.37978  0.58231  1.0000
  S   S579      1.0  0.75804  0.41261  0.53203  1.0000
  H   H1704     1.0  0.93241  0.42517  0.58702  1.0000
  Fe  Fe291     1.0  0.58181  0.45974  0.62390  1.0000
  S   S580      1.0  0.57476  0.43269  0.64728  1.0000
  S   S581      1.0  0.59959  0.45765  0.59418  1.0000
  Fe  Fe292     1.0  0.55896  0.49052  0.64841  1.0000
  C   C1702     1.0  0.94101  0.40947  0.61374  1.0000
  S   S582      1.0  0.54575  0.52368  0.64931  1.0000
  Fe  Fe293     1.0  0.58244  0.44928  0.66537  1.0000
  S   S583      1.0  0.60038  0.43082  0.68729  1.0000
  H   H1705     1.0  0.91100  0.37081  0.52248  1.0000
  S   S584      1.0  0.59216  0.47491  0.64148  1.0000
  S   S585      1.0  0.54925  0.47770  0.62866  1.0000
  C   C1703     1.0  0.60294  0.44497  0.70232  1.0000
  C   C1704     1.0  0.60640  0.47662  0.70801  1.0000
  C   C1705     1.0  0.60382  0.46577  0.69582  1.0000
  C   C1706     1.0  0.95042  0.39340  0.64450  1.0000
  H   H1706     1.0  0.60286  0.47341  0.68135  1.0000
  C   C1707     1.0  0.81892  0.34205  0.55883  1.0000
  C   C1708     1.0  0.60152  0.40898  0.56936  1.0000
  Fe  Fe294     1.0  0.55424  0.64213  0.65706  1.0000
  H   H1707     1.0  0.96830  0.53361  0.65590  1.0000
  H   H1708     1.0  0.93343  0.55603  0.65971  1.0000
  H   H1709     1.0  0.99649  0.51475  0.67244  1.0000
  C   C1709     1.0  0.96976  0.61848  0.68818  1.0000
  C   C1710     1.0  0.65084  0.40157  0.58527  1.0000
  C   C1711     1.0  0.63746  0.40177  0.60310  1.0000
  C   C1712     1.0  0.62186  0.41903  0.60606  1.0000
  C   C1713     1.0  0.61946  0.43612  0.59113  1.0000
  C   C1714     1.0  0.63275  0.43590  0.57326  1.0000
  C   C1715     1.0  0.64844  0.41867  0.57032  1.0000
  H   H1710     1.0  0.63923  0.38852  0.61468  1.0000
  H   H1711     1.0  0.61161  0.41899  0.61981  1.0000
  H   H1712     1.0  0.63087  0.44907  0.56162  1.0000
  H   H1713     1.0  0.65857  0.41857  0.55649  1.0000
  C   C1716     1.0  0.77310  0.40380  0.54912  1.0000
  C   C1717     1.0  0.76601  0.39217  0.56714  1.0000
  C   C1718     1.0  0.77878  0.38469  0.58027  1.0000
  C   C1719     1.0  0.79865  0.38868  0.57531  1.0000
  C   C1720     1.0  0.80546  0.40065  0.55748  1.0000
  C   C1721     1.0  0.79270  0.40827  0.54445  1.0000
  H   H1714     1.0  0.75076  0.38894  0.57094  1.0000
  H   H1715     1.0  0.77340  0.37550  0.59412  1.0000
  H   H1716     1.0  0.82061  0.40401  0.55370  1.0000
  H   H1717     1.0  0.94483  0.32963  0.53464  1.0000
  C   C1722     1.0  0.84789  0.39873  0.51166  1.0000
  H   H1718     1.0  0.62194  0.37943  0.57421  1.0000
  H   H1719     1.0  0.82159  0.39026  0.62329  1.0000
  H   H1720     1.0  0.85583  0.55090  0.67376  1.0000
  C   C1723     1.0  0.62539  0.57421  0.72953  1.0000
  H   H1721     1.0  0.84451  0.39745  0.52677  1.0000
  H   H1722     1.0  0.97837  0.49813  0.64544  1.0000
  C   C1724     1.0  0.58099  0.55729  0.66994  1.0000
  C   C1725     1.0  0.56370  0.56795  0.66256  1.0000
  C   C1726     1.0  0.55317  0.55750  0.65602  1.0000
  C   C1727     1.0  0.56003  0.53643  0.65661  1.0000
  C   C1728     1.0  0.57741  0.52575  0.66388  1.0000
  C   C1729     1.0  0.58781  0.53617  0.67065  1.0000
  H   H1723     1.0  0.55822  0.58418  0.66217  1.0000
  H   H1724     1.0  0.53962  0.56576  0.65058  1.0000
  H   H1725     1.0  0.58264  0.50945  0.66458  1.0000
  H   H1726     1.0  0.60113  0.52786  0.67644  1.0000
  H   H1727     1.0  0.90191  0.50710  0.70053  1.0000
  C   C1730     1.0  0.61225  0.64652  0.71365  1.0000
  H   H1728     1.0  0.50877  0.51399  0.65108  1.0000
  C   C1731     1.0  0.98477  0.60062  0.71518  1.0000
  C   C1732     1.0  0.95272  0.56100  0.72149  1.0000
  C   C1733     1.0  0.85515  0.55277  0.70212  1.0000
  C   C1734     1.0  0.57851  0.63215  0.59079  1.0000
  C   C1735     1.0  0.51005  0.61062  0.63577  1.0000
  H   H1729     1.0  0.59166  0.62089  0.58566  1.0000
  S   S586      1.0  0.52253  0.65642  0.65180  1.0000
  C   C1736     1.0  0.82416  0.34374  0.52051  1.0000
  H   H1730     1.0  0.91444  0.54972  0.68072  1.0000
  C   C1737     1.0  0.83503  0.40838  0.63395  1.0000
  H   H1731     1.0  0.96300  0.42830  0.63808  1.0000
  H   H1732     1.0  0.79252  0.37253  0.50840  1.0000
  Fe  Fe295     1.0  0.99482  0.57635  0.64263  1.0000
  H   H1733     1.0  0.60361  0.41909  0.72608  1.0000
  H   H1734     1.0  0.51368  0.64311  0.69192  1.0000
  H   H1735     1.0  0.97182  0.45389  0.69909  1.0000
  C   C1738     1.0  0.54976  0.52373  0.70913  1.0000
  S   S587      1.0  0.62425  0.64959  0.61622  1.0000
  H   H1736     1.0  0.53599  0.61605  0.64297  1.0000
  C   C1739     1.0  0.88902  0.51999  0.70085  1.0000
  C   C1740     1.0  0.95829  0.57415  0.68204  1.0000
  C   C1741     1.0  0.97533  0.56624  0.69034  1.0000
  C   C1742     1.0  0.97253  0.55952  0.71005  1.0000
  C   C1743     1.0  0.87981  0.52811  0.68521  1.0000
  C   C1744     1.0  0.93564  0.56903  0.71325  1.0000
  C   C1745     1.0  0.93844  0.57574  0.69351  1.0000
  C   C1746     1.0  0.55856  0.62945  0.59328  1.0000
  H   H1737     1.0  0.92459  0.53242  0.66468  1.0000
  H   H1738     1.0  0.92521  0.58197  0.68711  1.0000
  C   C1747     1.0  0.89689  0.42097  0.64830  1.0000
  C   C1748     1.0  0.89425  0.40442  0.64247  1.0000
  C   C1749     1.0  0.89010  0.40732  0.62449  1.0000
  C   C1750     1.0  0.88847  0.42684  0.61245  1.0000
  C   C1751     1.0  0.89044  0.44341  0.61858  1.0000
  C   C1752     1.0  0.89446  0.44052  0.63649  1.0000
  H   H1739     1.0  0.89589  0.38927  0.65168  1.0000
  H   H1740     1.0  0.88843  0.39449  0.61987  1.0000
  H   H1741     1.0  0.88903  0.45858  0.60938  1.0000
  H   H1742     1.0  0.89555  0.45349  0.64116  1.0000
  H   H1743     1.0  0.94915  0.39889  0.65747  1.0000
  H   H1744     1.0  0.98867  0.50384  0.70766  1.0000
  H   H1745     1.0  0.84188  0.56530  0.70263  1.0000
  H   H1746     1.0  0.96532  0.38248  0.64167  1.0000
  H   H1747     1.0  0.83943  0.39596  0.64547  1.0000
  H   H1748     1.0  0.92027  0.57018  0.72203  1.0000
  C   C1753     1.0  0.98889  0.62295  0.67799  1.0000
  C   C1754     1.0  0.59150  0.65253  0.72209  1.0000
  H   H1749     1.0  0.98571  0.55344  0.71646  1.0000
  C   C1755     1.0  0.78816  0.36058  0.52122  1.0000
  N   N144      1.0  0.54505  0.48315  0.72125  1.0000
  H   H1750     1.0  0.77900  0.42138  0.49209  1.0000
  H   H1751     1.0  0.61006  0.41392  0.55502  1.0000
  H   H1752     1.0  0.61655  0.64383  0.69942  1.0000
  C   C1756     1.0  0.86298  0.54459  0.68582  1.0000
  H   H1753     1.0  0.52864  0.52744  0.69147  1.0000
  H   H1754     1.0  0.81661  0.34137  0.57387  1.0000
  C   C1757     1.0  0.83959  0.42765  0.63125  1.0000
  C   C1758     1.0  0.82509  0.40517  0.62151  1.0000
  C   C1759     1.0  0.96045  0.45787  0.72789  1.0000
  H   H1755     1.0  0.99039  0.63151  0.66337  1.0000
  S   S588      1.0  0.69588  0.36390  0.53268  1.0000
  C   C1760     1.0  0.56041  0.51001  0.72236  1.0000
  C   C1761     1.0  0.93948  0.42586  0.59802  1.0000
  H   H1756     1.0  0.57206  0.39260  0.62095  1.0000
  S   S589      1.0  0.55014  0.46613  0.67388  1.0000
  H   H1757     1.0  0.93624  0.36374  0.50803  1.0000
  H   H1758     1.0  0.86387  0.48285  0.72501  1.0000
  C   C1762     1.0  0.60604  0.44621  0.73341  1.0000
  H   H1759     1.0  0.57965  0.43758  0.56923  1.0000
  C   C1763     1.0  0.83540  0.39219  0.50366  1.0000
  H   H1760     1.0  0.98348  0.59127  0.72953  1.0000
  C   C1764     1.0  0.52006  0.62180  0.64207  1.0000
  S   S590      1.0  0.85365  0.55487  0.73820  1.0000
  H   H1761     1.0  0.95250  0.50998  0.72574  1.0000
  H   H1762     1.0  0.94517  0.45631  0.58495  1.0000
  C   C1765     1.0  0.59744  0.38366  0.59876  1.0000
  Fe  Fe296     1.0  0.72937  0.35273  0.53328  1.0000
  H   H1763     1.0  0.51908  0.45788  0.62390  1.0000
  H   H1764     1.0  0.96089  0.45761  0.61060  1.0000
  C   C1766     1.0  0.80258  0.35057  0.54967  1.0000
  C   C1767     1.0  0.60817  0.38960  0.58013  1.0000
  C   C1768     1.0  0.62747  0.64410  0.72368  1.0000
  N   N145      1.0  0.57405  0.41643  0.59584  1.0000
  H   H1765     1.0  0.55897  0.44635  0.60022  1.0000
  N   N146      1.0  0.65315  0.43043  0.62819  1.0000
  C   C1769     1.0  0.66770  0.41302  0.62571  1.0000
  C   C1770     1.0  0.65126  0.44696  0.61330  1.0000
  C   C1771     1.0  0.68118  0.41206  0.60808  1.0000
  C   C1772     1.0  0.66455  0.44655  0.59550  1.0000
  C   C1773     1.0  0.67962  0.42898  0.59292  1.0000
  C   C1774     1.0  0.63855  0.43089  0.64651  1.0000
  H   H1766     1.0  0.66867  0.39959  0.63726  1.0000
  H   H1767     1.0  0.63909  0.46040  0.61500  1.0000
  H   H1768     1.0  0.69226  0.39802  0.60593  1.0000
  H   H1769     1.0  0.66269  0.45950  0.58362  1.0000
  H   H1770     1.0  0.68958  0.42816  0.57903  1.0000
  H   H1771     1.0  0.63447  0.44643  0.64968  1.0000
  H   H1772     1.0  0.62425  0.42656  0.64637  1.0000
  H   H1773     1.0  0.64501  0.42015  0.65847  1.0000
  C   C1775     1.0  0.59262  0.58855  0.72077  1.0000
  C   C1776     1.0  0.58144  0.64935  0.59526  1.0000
  H   H1774     1.0  0.61513  0.56429  0.70939  1.0000
  C   C1777     1.0  0.55590  0.43058  0.60388  1.0000
  H   H1775     1.0  0.93753  0.38531  0.64782  1.0000
  C   C1778     1.0  0.58433  0.42229  0.57749  1.0000
  C   C1779     1.0  0.54393  0.46139  0.72650  1.0000
  N   N147      1.0  0.94496  0.53214  0.68131  1.0000
  C   C1780     1.0  0.94042  0.52533  0.70063  1.0000
  C   C1781     1.0  0.96479  0.52824  0.67121  1.0000
  C   C1782     1.0  0.95606  0.51499  0.71038  1.0000
  C   C1783     1.0  0.98079  0.51778  0.68049  1.0000
  C   C1784     1.0  0.97637  0.51143  0.70022  1.0000
  C   C1785     1.0  0.92853  0.54306  0.67116  1.0000
  H   H1776     1.0  0.92473  0.52833  0.70866  1.0000
  Fe  Fe297     1.0  0.59991  0.64195  0.64280  1.0000
  C   C1786     1.0  0.83986  0.46323  0.61328  1.0000
  Fe  Fe298     1.0  0.69473  0.38054  0.55497  1.0000
  Fe  Fe299     1.0  0.54305  0.45190  0.65367  1.0000
  H   H1777     1.0  0.55532  0.45314  0.71597  1.0000
  C   C1787     1.0  0.95522  0.44415  0.61131  1.0000
  S   S591      1.0  0.98425  0.45748  0.63790  1.0000
  H   H1778     1.0  0.81248  0.41868  0.59659  1.0000
  H   H1779     1.0  0.89154  0.35322  0.51371  1.0000
  S   S592      1.0  0.57186  0.65495  0.71056  1.0000
  C   C1788     1.0  0.53459  0.49649  0.70823  1.0000
  H   H1780     1.0  0.82173  0.45219  0.59189  1.0000
  H   H1781     1.0  0.85142  0.46600  0.59970  1.0000
  C   C1789     1.0  0.86451  0.54495  0.71765  1.0000
  H   H1782     1.0  0.63994  0.56330  0.72808  1.0000
  H   H1783     1.0  0.52475  0.49127  0.70235  1.0000
  H   H1784     1.0  0.54255  0.43094  0.59819  1.0000
  H   H1785     1.0  0.60269  0.36870  0.60730  1.0000
  H   H1786     1.0  0.59701  0.65132  0.59332  1.0000
  Fe  Fe300     1.0  0.73460  0.39435  0.53473  1.0000
  H   H1787     1.0  0.52903  0.63977  0.72452  1.0000
  S   S593      1.0  0.73921  0.37915  0.51077  1.0000
  H   H1788     1.0  0.64352  0.63944  0.71719  1.0000
  H   H1789     1.0  0.78755  0.35597  0.55791  1.0000
  Fe  Fe301     1.0  0.70580  0.39155  0.51188  1.0000
  H   H1790     1.0  0.84758  0.42990  0.64086  1.0000
  C   C1790     1.0  0.88161  0.52867  0.71691  1.0000
  C   C1791     1.0  0.58024  0.39731  0.60642  1.0000
  S   S594      1.0  0.72762  0.36681  0.55737  1.0000
  C   C1792     1.0  0.89727  0.35963  0.49886  1.0000
  H   H1791     1.0  0.99065  0.56554  0.68166  1.0000
  C   C1793     1.0  0.60723  0.46691  0.72690  1.0000
  H   H1792     1.0  0.88862  0.52221  0.72896  1.0000
  N   N148      1.0  0.91194  0.37127  0.49364  1.0000
  C   C1794     1.0  0.81999  0.42114  0.60649  1.0000
  C   C1795     1.0  0.55769  0.48972  0.72840  1.0000
  C   C1796     1.0  0.86449  0.40727  0.50007  1.0000
  S   S595      1.0  0.51449  0.43858  0.66404  1.0000
  C   C1797     1.0  0.49966  0.64734  0.70210  1.0000
  C   C1798     1.0  0.61139  0.57459  0.71902  1.0000
  H   H1793     1.0  0.56602  0.47914  0.73865  1.0000
  H   H1794     1.0  0.77453  0.36817  0.53060  1.0000
  H   H1795     1.0  0.82224  0.38619  0.51268  1.0000
  H   H1796     1.0  0.57353  0.61295  0.73435  1.0000
  H   H1797     1.0  0.70290  0.36231  0.49056  1.0000
  C   C1799     1.0  0.84083  0.33497  0.52926  1.0000
  C   C1800     1.0  0.60425  0.43518  0.72105  1.0000
  C   C1801     1.0  0.96766  0.60753  0.70699  1.0000
  N   N149      1.0  0.80537  0.35151  0.53072  1.0000
  C   C1802     1.0  0.50970  0.64084  0.64629  1.0000
  C   C1803     1.0  0.49940  0.44184  0.64765  1.0000
  H   H1798     1.0  0.52624  0.64208  0.60202  1.0000
  H   H1799     1.0  0.51832  0.59626  0.63182  1.0000
  H   H1800     1.0  0.55602  0.61603  0.59017  1.0000
  C   C1804     1.0  0.58796  0.60179  0.73308  1.0000
  H   H1801     1.0  0.55199  0.53943  0.70403  1.0000
  C   C1805     1.0  0.99514  0.45960  0.70974  1.0000
  H   H1802     1.0  0.95677  0.62305  0.68140  1.0000
  H   H1803     1.0  0.58181  0.58918  0.71245  1.0000
  S   S596      1.0  0.91540  0.33472  0.56935  1.0000
  C   C1806     1.0  0.53666  0.51699  0.70207  1.0000
  H   H1804     1.0  0.51025  0.54879  0.63504  1.0000
  H   H1805     1.0  0.82632  0.34452  0.50549  1.0000
  C   C1807     1.0  0.50504  0.45214  0.62877  1.0000
  H   H1806     1.0  0.52823  0.45952  0.72731  1.0000
  C   C1808     1.0  0.54185  0.64404  0.59994  1.0000
  S   S597      1.0  0.93555  0.45521  0.72924  1.0000
  H   H1807     1.0  0.85567  0.32871  0.52120  1.0000
  N   N150      1.0  0.50025  0.65422  0.71731  1.0000
  C   C1809     1.0  0.86519  0.48543  0.73821  1.0000
  C   C1810     1.0  0.52011  0.65543  0.71988  1.0000
  Fe  Fe302     1.0  0.87991  0.56871  0.78814  1.0000
  S   S598      1.0  0.90892  0.54579  0.79186  1.0000
  S   S599      1.0  0.86618  0.59321  0.80510  1.0000
  Fe  Fe303     1.0  0.87481  0.55100  0.75736  1.0000
  S   S600      1.0  0.90335  0.52643  0.75865  1.0000
  H   H1808     1.0  0.59872  0.61161  0.75263  1.0000
  Fe  Fe304     1.0  0.89229  0.52308  0.79009  1.0000
  S   S601      1.0  0.89446  0.49342  0.81150  1.0000
  Fe  Fe305     1.0  0.91709  0.55156  0.76027  1.0000
  C   C1811     1.0  0.59739  0.65910  0.86614  1.0000
  S   S602      1.0  0.86242  0.54541  0.78889  1.0000
  S   S603      1.0  0.88949  0.57667  0.75639  1.0000
  S   S604      1.0  0.60420  0.60089  0.83583  1.0000
  H   H1809     1.0  0.91473  0.47547  0.76391  1.0000
  Fe  Fe306     1.0  0.62183  0.58809  0.81038  1.0000
  S   S605      1.0  0.62902  0.55562  0.80678  1.0000
  H   H1810     1.0  0.95382  0.46222  0.75649  1.0000
  C   C1812     1.0  0.64694  0.34495  0.97396  1.0000
  S   S606      1.0  0.67131  0.34355  0.90858  1.0000
  H   H1811     1.0  0.54572  0.59339  0.81066  1.0000
  N   N151      1.0  0.52447  0.56954  0.78950  1.0000
  H   H1812     1.0  0.56759  0.63320  0.88186  1.0000
  C   C1813     1.0  0.80129  0.58627  0.90372  1.0000
  H   H1813     1.0  0.80846  0.63583  0.84306  1.0000
  Fe  Fe307     1.0  0.74238  0.65785  0.87780  1.0000
  Fe  Fe308     1.0  0.66055  0.35574  0.88106  1.0000
  S   S607      1.0  0.65453  0.38901  0.86543  1.0000
  H   H1814     1.0  0.72185  0.61544  0.86844  1.0000
  C   C1814     1.0  0.69608  0.61758  0.83515  1.0000
  N   N152      1.0  0.60300  0.47260  0.85029  1.0000
  S   S608      1.0  0.90813  0.58636  0.87177  1.0000
  H   H1815     1.0  0.92737  0.59478  0.80346  1.0000
  S   S609      1.0  0.71058  0.65577  0.89458  1.0000
  Fe  Fe309     1.0  0.58526  0.47385  0.77039  1.0000
  S   S610      1.0  0.56954  0.44730  0.77833  1.0000
  Fe  Fe310     1.0  0.84151  0.58638  0.91703  1.0000
  Fe  Fe311     1.0  0.55870  0.49218  0.80356  1.0000
  S   S611      1.0  0.54015  0.46757  0.81421  1.0000
  S   S612      1.0  0.55126  0.51851  0.81801  1.0000
  Fe  Fe312     1.0  0.57084  0.44628  0.80814  1.0000
  S   S613      1.0  0.57622  0.41649  0.82946  1.0000
  Fe  Fe313     1.0  0.54054  0.47073  0.78362  1.0000
  S   S614      1.0  0.58947  0.47067  0.79977  1.0000
  S   S615      1.0  0.55611  0.49752  0.77359  1.0000
  Fe  Fe314     1.0  0.58798  0.62582  0.81551  1.0000
  H   H1816     1.0  0.89870  0.46537  0.78623  1.0000
  H   H1817     1.0  0.79193  0.56243  0.89683  1.0000
  H   H1818     1.0  0.77474  0.57104  0.94823  1.0000
  C   C1815     1.0  0.60494  0.36852  0.82032  1.0000
  C   C1816     1.0  0.90205  0.46696  0.77059  1.0000
  C   C1817     1.0  0.98590  0.52675  0.80502  1.0000
  H   H1819     1.0  0.78461  0.63754  0.88809  1.0000
  C   C1818     1.0  0.60408  0.35139  0.83546  1.0000
  C   C1819     1.0  0.63562  0.58683  0.75234  1.0000
  H   H1820     1.0  0.94217  0.57928  0.83211  1.0000
  N   N153      1.0  0.62249  0.37626  0.81319  1.0000
  H   H1821     1.0  0.68764  0.60871  0.83134  1.0000
  C   C1820     1.0  0.94686  0.57204  0.78801  1.0000
  H   H1822     1.0  0.65390  0.35814  0.97068  1.0000
  C   C1821     1.0  0.58402  0.43976  0.86995  1.0000
  C   C1822     1.0  0.58388  0.47277  0.84828  1.0000
  C   C1823     1.0  0.63276  0.39687  0.85540  1.0000
  C   C1824     1.0  0.61598  0.38731  0.86340  1.0000
  C   C1825     1.0  0.59872  0.39360  0.85533  1.0000
  C   C1826     1.0  0.59791  0.40979  0.83939  1.0000
  C   C1827     1.0  0.61446  0.41979  0.83156  1.0000
  C   C1828     1.0  0.63191  0.41328  0.83953  1.0000
  H   H1823     1.0  0.61602  0.37535  0.87609  1.0000
  H   H1824     1.0  0.58587  0.38595  0.86157  1.0000
  H   H1825     1.0  0.61398  0.43228  0.81923  1.0000
  H   H1826     1.0  0.64479  0.42088  0.83338  1.0000
  H   H1827     1.0  0.57431  0.56040  0.76617  1.0000
  C   C1829     1.0  0.75832  0.62280  0.93661  1.0000
  C   C1830     1.0  0.78421  0.61427  0.95427  1.0000
  C   C1831     1.0  0.69771  0.63741  0.82458  1.0000
  C   C1832     1.0  0.85337  0.50449  0.76299  1.0000
  H   H1828     1.0  0.67369  0.65343  0.88318  1.0000
  C   C1833     1.0  0.60714  0.54586  0.80975  1.0000
  C   C1834     1.0  0.60803  0.53167  0.79925  1.0000
  C   C1835     1.0  0.59077  0.52352  0.80152  1.0000
  C   C1836     1.0  0.57272  0.52912  0.81467  1.0000
  C   C1837     1.0  0.57184  0.54325  0.82525  1.0000
  C   C1838     1.0  0.58896  0.55184  0.82261  1.0000
  H   H1829     1.0  0.62205  0.52711  0.78921  1.0000
  H   H1830     1.0  0.59144  0.51302  0.79297  1.0000
  H   H1831     1.0  0.55787  0.54767  0.83540  1.0000
  H   H1832     1.0  0.58822  0.56278  0.83078  1.0000
  S   S616      1.0  0.60354  0.61114  0.79084  1.0000
  C   C1839     1.0  0.87870  0.59148  0.82301  1.0000
  C   C1840     1.0  0.87482  0.60828  0.83132  1.0000
  C   C1841     1.0  0.88400  0.60684  0.84623  1.0000
  C   C1842     1.0  0.89709  0.58858  0.85282  1.0000
  C   C1843     1.0  0.90093  0.57180  0.84455  1.0000
  C   C1844     1.0  0.89172  0.57325  0.82970  1.0000
  H   H1833     1.0  0.86482  0.62244  0.82611  1.0000
  H   H1834     1.0  0.88121  0.61993  0.85249  1.0000
  H   H1835     1.0  0.91072  0.55753  0.84989  1.0000
  H   H1836     1.0  0.89420  0.55999  0.82397  1.0000
  C   C1845     1.0  0.92047  0.48579  0.81253  1.0000
  C   C1846     1.0  0.93533  0.49273  0.79684  1.0000
  C   C1847     1.0  0.95603  0.48784  0.79784  1.0000
  C   C1848     1.0  0.96194  0.47632  0.81463  1.0000
  C   C1849     1.0  0.94710  0.46919  0.83031  1.0000
  C   C1850     1.0  0.92637  0.47375  0.82920  1.0000
  H   H1837     1.0  0.93096  0.50187  0.78385  1.0000
  H   H1838     1.0  0.96728  0.49320  0.78563  1.0000
  H   H1839     1.0  0.95161  0.46022  0.84333  1.0000
  H   H1840     1.0  0.91491  0.46837  0.84137  1.0000
  H   H1841     1.0  0.91963  0.64136  0.93825  1.0000
  H   H1842     1.0  0.61165  0.42651  0.88067  1.0000
  H   H1843     1.0  0.60803  0.40407  0.79689  1.0000
  H   H1844     1.0  0.69066  0.64358  0.81241  1.0000
  C   C1851     1.0  0.84592  0.65683  0.98271  1.0000
  N   N154      1.0  0.96968  0.54531  0.80482  1.0000
  H   H1845     1.0  0.62842  0.45565  0.86287  1.0000
  H   H1846     1.0  0.98867  0.46745  0.75398  1.0000
  C   C1852     1.0  0.94773  0.57231  0.81983  1.0000
  S   S617      1.0  0.76043  0.63072  0.86554  1.0000
  H   H1847     1.0  0.63214  0.57657  0.76658  1.0000
  S   S618      1.0  0.98766  0.47130  0.81645  1.0000
  H   H1848     1.0  0.62099  0.32869  0.85482  1.0000
  S   S619      1.0  0.85118  0.60836  0.88994  1.0000
  H   H1849     1.0  0.79706  0.58193  0.96278  1.0000
  C   C1853     1.0  0.56216  0.57781  0.78802  1.0000
  H   H1850     1.0  0.90371  0.61359  0.93778  1.0000
  Fe  Fe315     1.0  0.88275  0.59583  0.89559  1.0000
  C   C1854     1.0  0.96286  0.55427  0.82016  1.0000
  H   H1851     1.0  0.59246  0.62143  0.86936  1.0000
  C   C1855     1.0  0.65887  0.63997  0.86925  1.0000
  H   H1852     1.0  0.89292  0.46263  0.73975  1.0000
  H   H1853     1.0  0.90756  0.45126  0.76772  1.0000
  S   S620      1.0  0.81839  0.56918  0.91701  1.0000
  H   H1854     1.0  0.80726  0.61332  0.90836  1.0000
  H   H1855     1.0  0.84283  0.51689  0.76909  1.0000
  N   N155      1.0  0.84654  0.56251  0.85652  1.0000
  C   C1856     1.0  0.85589  0.55482  0.87161  1.0000
  C   C1857     1.0  0.85090  0.55196  0.84246  1.0000
  C   C1858     1.0  0.87037  0.53630  0.87264  1.0000
  C   C1859     1.0  0.86520  0.53332  0.84311  1.0000
  C   C1860     1.0  0.87507  0.52553  0.85825  1.0000
  C   C1861     1.0  0.83147  0.58198  0.85538  1.0000
  H   H1856     1.0  0.85236  0.56308  0.88286  1.0000
  H   H1857     1.0  0.84370  0.55822  0.83037  1.0000
  H   H1858     1.0  0.87799  0.53049  0.88447  1.0000
  H   H1859     1.0  0.86889  0.52513  0.83180  1.0000
  H   H1860     1.0  0.88642  0.51124  0.85871  1.0000
  H   H1861     1.0  0.83532  0.59229  0.84125  1.0000
  H   H1862     1.0  0.81590  0.57906  0.85745  1.0000
  H   H1863     1.0  0.83116  0.59016  0.86631  1.0000
  C   C1862     1.0  0.57415  0.45633  0.85798  1.0000
  H   H1864     1.0  0.59007  0.34545  0.84125  1.0000
  H   H1865     1.0  0.62667  0.48966  0.84457  1.0000
  H   H1866     1.0  0.57682  0.42673  0.87727  1.0000
  C   C1863     1.0  0.60355  0.43966  0.87187  1.0000
  H   H1867     1.0  0.87199  0.49616  0.78360  1.0000
  N   N156      1.0  0.88391  0.47791  0.76277  1.0000
  S   S621      1.0  0.61008  0.64674  0.80924  1.0000
  C   C1864     1.0  0.63952  0.36719  0.82066  1.0000
  H   H1868     1.0  0.55922  0.45628  0.85594  1.0000
  C   C1865     1.0  0.61299  0.45619  0.86170  1.0000
  S   S622      1.0  0.60777  0.48116  0.74276  1.0000
  C   C1866     1.0  0.96216  0.55413  0.78877  1.0000
  C   C1867     1.0  0.90078  0.61874  0.95074  1.0000
  C   C1868     1.0  0.88818  0.60963  0.96719  1.0000
  C   C1869     1.0  0.60114  0.65318  0.75064  1.0000
  C   C1870     1.0  0.87001  0.49286  0.77100  1.0000
  H   H1869     1.0  0.83941  0.63657  0.85352  1.0000
  H   H1870     1.0  0.57082  0.62906  0.85844  1.0000
  H   H1871     1.0  0.70747  0.34422  0.96132  1.0000
  S   S623      1.0  0.50521  0.62876  0.76673  1.0000
  Fe  Fe316     1.0  0.86863  0.59670  0.93718  1.0000
  H   H1872     1.0  0.51123  0.63573  0.82817  1.0000
  H   H1873     1.0  0.76958  0.58678  0.87602  1.0000
  H   H1874     1.0  0.65270  0.34285  0.84165  1.0000
  H   H1875     1.0  0.79423  0.61892  0.96042  1.0000
  N   N157      1.0  0.58337  0.65368  0.85967  1.0000
  H   H1876     1.0  0.94060  0.57864  0.77538  1.0000
  C   C1871     1.0  0.88172  0.47417  0.74654  1.0000
  S   S624      1.0  0.87331  0.57193  0.92145  1.0000
  C   C1872     1.0  0.50807  0.63358  0.80104  1.0000
  H   H1877     1.0  0.60221  0.50467  0.84067  1.0000
  C   C1873     1.0  0.61304  0.48977  0.83942  1.0000
  H   H1878     1.0  0.57613  0.48560  0.83899  1.0000
  H   H1879     1.0  0.61807  0.48905  0.82418  1.0000
  H   H1880     1.0  0.65344  0.37331  0.81511  1.0000
  C   C1874     1.0  0.65022  0.64250  0.85371  1.0000
  C   C1875     1.0  0.79911  0.60746  0.90131  1.0000
  C   C1876     1.0  0.79029  0.57882  0.89495  1.0000
  S   S625      1.0  0.87421  0.59230  0.96625  1.0000
  H   H1881     1.0  0.60529  0.64817  0.87661  1.0000
  C   C1877     1.0  0.77772  0.59256  0.88317  1.0000
  S   S626      1.0  0.88083  0.61953  0.91158  1.0000
  C   C1878     1.0  0.78609  0.62120  0.88999  1.0000
  S   S627      1.0  0.83572  0.60876  0.93524  1.0000
  C   C1879     1.0  0.77564  0.61374  0.88070  1.0000
  S   S628      1.0  0.64689  0.60555  0.80385  1.0000
  S   S629      1.0  0.64034  0.62212  0.85215  1.0000
  H   H1882     1.0  0.65932  0.62576  0.87988  1.0000
  H   H1883     1.0  0.70324  0.59441  0.85957  1.0000
  C   C1880     1.0  0.70123  0.33042  0.96711  1.0000
  C   C1881     1.0  0.51807  0.63258  0.78228  1.0000
  C   C1882     1.0  0.80934  0.64926  0.84734  1.0000
  H   H1884     1.0  0.96903  0.54745  0.83280  1.0000
  H   H1885     1.0  0.98262  0.51604  0.79814  1.0000
  C   C1883     1.0  0.51898  0.63528  0.81360  1.0000
  C   C1884     1.0  0.53993  0.63590  0.80749  1.0000
  S   S630      1.0  0.55366  0.63620  0.82396  1.0000
  H   H1886     1.0  0.54659  0.63336  0.76142  1.0000
  C   C1885     1.0  0.53886  0.63382  0.77600  1.0000
  C   C1886     1.0  0.91006  0.63425  0.95111  1.0000
  C   C1887     1.0  0.54467  0.58482  0.80098  1.0000
  C   C1888     1.0  0.75926  0.60200  0.93810  1.0000
  Fe  Fe317     1.0  0.62774  0.62071  0.82774  1.0000
  H   H1887     1.0  0.54734  0.45404  0.74076  1.0000
  C   C1889     1.0  0.85098  0.50072  0.74650  1.0000
  N   N158      1.0  0.70736  0.64907  0.82993  1.0000
  C   C1890     1.0  0.96531  0.46150  0.74343  1.0000
  C   C1891     1.0  0.54159  0.56244  0.77684  1.0000
  H   H1888     1.0  0.54055  0.55349  0.76748  1.0000
  S   S631      1.0  0.94962  0.55373  0.74609  1.0000
  H   H1889     1.0  0.65169  0.58121  0.74510  1.0000
  C   C1892     1.0  0.63920  0.35001  0.83574  1.0000
  C   C1893     1.0  0.85336  0.65442  0.94998  1.0000
  H   H1890     1.0  0.56569  0.63665  0.78355  1.0000
  H   H1891     1.0  0.59675  0.65576  0.76492  1.0000
  C   C1894     1.0  0.93952  0.58109  0.80371  1.0000
  H   H1892     1.0  0.64743  0.34661  0.94480  1.0000
  C   C1895     1.0  0.57827  0.63336  0.86776  1.0000
  C   C1896     1.0  0.54976  0.63549  0.78857  1.0000
  C   C1897     1.0  0.62136  0.34207  0.84315  1.0000
  H   H1893     1.0  0.78256  0.65523  0.92931  1.0000
  C   C1898     1.0  0.50440  0.56613  0.78961  1.0000
  Fe  Fe318     1.0  0.84815  0.62970  0.90852  1.0000
  C   C1899     1.0  0.70471  0.60961  0.85107  1.0000
  H   H1894     1.0  0.98697  0.51815  0.81970  1.0000
  Fe  Fe319     1.0  0.62718  0.62977  0.78601  1.0000
  C   C1900     1.0  0.77318  0.58720  0.94768  1.0000
  C   C1901     1.0  0.71498  0.62143  0.85614  1.0000
  C   C1902     1.0  0.89512  0.63081  0.98473  1.0000
  N   N159      1.0  0.77064  0.62870  0.94472  1.0000
  H   H1895     1.0  0.57688  0.58078  0.78773  1.0000
  H   H1896     1.0  0.87383  0.65992  0.88962  1.0000
  C   C1903     1.0  0.78576  0.59333  0.95582  1.0000
  H   H1897     1.0  0.62873  0.38806  0.78344  1.0000
  C   C1904     1.0  0.64352  0.33826  0.95925  1.0000
  C   C1905     1.0  0.49782  0.44447  0.79924  1.0000
  H   H1898     1.0  0.74786  0.63414  0.92870  1.0000
  C   C1906     1.0  0.62340  0.39369  0.79682  1.0000
  C   C1907     1.0  0.90698  0.64052  0.96803  1.0000
  H   H1899     1.0  0.63399  0.40311  0.79714  1.0000
  H   H1900     1.0  0.96793  0.54717  0.77650  1.0000
  H   H1901     1.0  0.59135  0.37587  0.81458  1.0000
  C   C1908     1.0  0.88578  0.61528  0.98432  1.0000
  S   S632      1.0  0.68538  0.33359  0.86603  1.0000
  H   H1902     1.0  0.72404  0.65036  0.84944  1.0000
  S   S633      1.0  0.64062  0.64234  0.75550  1.0000
  H   H1903     1.0  0.51214  0.58688  0.81107  1.0000
  C   C1909     1.0  0.98503  0.46446  0.74202  1.0000
  C   C1910     1.0  0.71620  0.64122  0.84531  1.0000
  H   H1904     1.0  0.50591  0.55165  0.78518  1.0000
  H   H1905     1.0  0.74974  0.59745  0.93132  1.0000
  C   C1911     1.0  0.56069  0.56643  0.77591  1.0000
  C   C1912     1.0  0.66713  0.65561  0.87111  1.0000
  H   H1906     1.0  0.60684  0.43860  0.74790  1.0000
  H   H1907     1.0  0.50990  0.44376  0.80613  1.0000
  S   S634      1.0  0.63655  0.33654  0.88947  1.0000
  H   H1908     1.0  0.77343  0.65373  0.95461  1.0000
  C   C1913     1.0  0.82664  0.64965  0.85324  1.0000
  C   C1914     1.0  0.77052  0.65054  0.94198  1.0000
  C   C1915     1.0  0.52577  0.58080  0.80135  1.0000
  H   H1909     1.0  0.83864  0.51024  0.73972  1.0000
  H   H1910     1.0  0.63501  0.60238  0.75420  1.0000
  C   C1916     1.0  0.60233  0.60102  0.74334  1.0000
  C   C1917     1.0  0.62188  0.64725  0.74225  1.0000
  H   H1911     1.0  0.85335  0.64657  0.93933  1.0000
  S   S635      1.0  0.51493  0.47312  0.76966  1.0000
  C   C1918     1.0  0.84546  0.64679  0.96912  1.0000
  H   H1912     1.0  0.83963  0.63272  0.97345  1.0000
  C   C1919     1.0  0.49738  0.45693  0.78111  1.0000
  C   C1920     1.0  0.58602  0.65604  0.74050  1.0000
  N   N160      1.0  0.62089  0.58758  0.74126  1.0000
  H   H1913     1.0  0.75534  0.66025  0.93993  1.0000
  C   C1921     1.0  0.49881  0.97385  0.23006  1.0000
  C   C1922     1.0  0.91659  0.91922  0.21696  1.0000
  H   H1914     1.0  0.77583  0.78134  0.01022  1.0000
  Fe  Fe320     1.0  0.91805  0.70503  0.00789  1.0000
  S   S636      1.0  0.89507  0.70075  0.03547  1.0000
  C   C1923     1.0  0.93677  0.97764  0.22391  1.0000
  C   C1924     1.0  0.65378  0.71311  0.03896  1.0000
  N   N161      1.0  0.85660  0.72506  0.07148  1.0000
  Fe  Fe321     1.0  0.87439  0.69856  0.01822  1.0000
  S   S637      1.0  0.84223  0.71705  0.02239  1.0000
  H   H1915     1.0  0.82964  0.72433  0.06294  1.0000
  H   H1916     1.0  0.85270  0.69475  0.07416  1.0000
  Fe  Fe322     1.0  0.74118  0.69633  0.03507  1.0000
  S   S638      1.0  0.73184  0.71247  0.05913  1.0000
  S   S639      1.0  0.82223  0.83981  0.00776  1.0000
  Fe  Fe323     1.0  0.70576  0.72133  0.01727  1.0000
  S   S640      1.0  0.69365  0.74004  0.03965  1.0000
  C   C1925     1.0  0.64376  0.71388  0.05769  1.0000
  Fe  Fe324     1.0  0.72669  0.74097  0.03656  1.0000
  S   S641      1.0  0.73771  0.77007  0.03289  1.0000
  Fe  Fe325     1.0  0.69995  0.70975  0.06010  1.0000
  S   S642      1.0  0.67819  0.70221  0.08854  1.0000
  S   S643      1.0  0.73814  0.72496  0.01226  1.0000
  S   S644      1.0  0.70980  0.69093  0.03790  1.0000
  Fe  Fe326     1.0  0.85895  0.79914  0.06027  1.0000
  S   S645      1.0  0.83625  0.80088  0.08791  1.0000
  S   S646      1.0  0.89149  0.78250  0.06063  1.0000
  Fe  Fe327     1.0  0.82860  0.82609  0.03689  1.0000
  S   S647      1.0  0.80332  0.83055  0.06247  1.0000
  H   H1917     1.0  0.96124  0.99269  0.22158  1.0000
  Fe  Fe328     1.0  0.82801  0.83443  0.07472  1.0000
  S   S648      1.0  0.82221  0.85959  0.09067  1.0000
  Fe  Fe329     1.0  0.81385  0.79678  0.07319  1.0000
  S   S649      1.0  0.79417  0.77302  0.08551  1.0000
  S   S650      1.0  0.85238  0.83296  0.04800  1.0000
  S   S651      1.0  0.83737  0.79205  0.04673  1.0000
  C   C1926     1.0  0.73190  0.66980  0.09815  1.0000
  S   S652      1.0  0.91648  0.89750  0.13629  1.0000
  H   H1918     1.0  0.84500  0.87185  0.00578  1.0000
  Fe  Fe330     1.0  0.93107  0.92494  0.12500  1.0000
  S   S653      1.0  0.96442  0.92012  0.12571  1.0000
  Fe  Fe331     1.0  0.90008  0.91036  0.11226  1.0000
  S   S654      1.0  0.90048  0.88790  0.09510  1.0000
  H   H1919     1.0  0.78272  0.89407  0.04705  1.0000
  H   H1920     1.0  0.84229  0.67447  0.02398  1.0000
  H   H1921     1.0  0.90392  0.82091  0.13179  1.0000
  H   H1922     1.0  0.90730  0.84364  0.11320  1.0000
  C   C1927     1.0  0.82954  0.89447  0.05045  1.0000
  H   H1923     1.0  0.85896  0.80802  0.00740  1.0000
  C   C1928     1.0  0.99461  0.95743  0.09123  1.0000
  N   N162      1.0  0.81511  0.88890  0.04464  1.0000
  H   H1924     1.0  0.89034  0.87161  0.16903  1.0000
  C   C1929     1.0  0.96939  0.93829  0.13523  1.0000
  H   H1925     1.0  0.79000  0.90217  0.06459  1.0000
  C   C1930     1.0  0.89095  0.70628  0.08694  1.0000
  C   C1931     1.0  0.98068  0.96854  0.14638  1.0000
  C   C1932     1.0  0.96430  0.97368  0.13726  1.0000
  C   C1933     1.0  0.95835  0.95851  0.13211  1.0000
  S   S655      1.0  0.87598  0.98722  0.11136  1.0000
  H   H1926     1.0  0.88301  0.67776  0.08821  1.0000
  H   H1927     1.0  0.94590  0.96259  0.12484  1.0000
  C   C1934     1.0  0.84390  0.86787  0.09149  1.0000
  C   C1935     1.0  0.86370  0.85877  0.08311  1.0000
  C   C1936     1.0  0.88079  0.86561  0.08382  1.0000
  C   C1937     1.0  0.87829  0.88136  0.09317  1.0000
  C   C1938     1.0  0.85847  0.89072  0.10134  1.0000
  C   C1939     1.0  0.84130  0.88400  0.10045  1.0000
  H   H1928     1.0  0.86591  0.84631  0.07621  1.0000
  H   H1929     1.0  0.89608  0.85835  0.07741  1.0000
  H   H1930     1.0  0.85640  0.90294  0.10851  1.0000
  H   H1931     1.0  0.82599  0.89119  0.10689  1.0000
  C   C1940     1.0  0.64118  0.68264  0.04253  1.0000
  C   C1941     1.0  0.75313  0.77062  0.04792  1.0000
  C   C1942     1.0  0.75960  0.75319  0.06127  1.0000
  C   C1943     1.0  0.77206  0.75409  0.07286  1.0000
  C   C1944     1.0  0.77851  0.77228  0.07088  1.0000
  C   C1945     1.0  0.77241  0.78960  0.05726  1.0000
  C   C1946     1.0  0.75956  0.78883  0.04600  1.0000
  H   H1932     1.0  0.75498  0.73904  0.06276  1.0000
  H   H1933     1.0  0.77678  0.74062  0.08333  1.0000
  H   H1934     1.0  0.77722  0.80372  0.05570  1.0000
  H   H1935     1.0  0.75455  0.80243  0.03577  1.0000
  C   C1947     1.0  0.49818  0.97151  0.19876  1.0000
  C   C1948     1.0  0.85216  0.80820  0.99598  1.0000
  H   H1936     1.0  0.90451  0.69895  0.09274  1.0000
  H   H1937     1.0  0.80926  0.87580  0.02452  1.0000
  H   H1938     1.0  0.73550  0.68215  0.10213  1.0000
  S   S656      1.0  0.88440  0.66456  0.02096  1.0000
  C   C1949     1.0  0.83918  0.73519  0.06244  1.0000
  H   H1939     1.0  0.94106  0.91598  0.19222  1.0000
  H   H1940     1.0  0.91935  0.90968  0.17410  1.0000
  S   S657      1.0  0.93713  0.72869  0.00009  1.0000
  H   H1941     1.0  0.95049  0.98517  0.18144  1.0000
  H   H1942     1.0  0.80676  0.76768  0.03224  1.0000
  H   H1943     1.0  0.99037  0.94488  0.08811  1.0000
  S   S658      1.0  0.90645  0.94439  0.14265  1.0000
  H   H1944     1.0  0.97110  0.98067  0.07943  1.0000
  H   H1945     1.0  0.69753  0.68625  0.12138  1.0000
  C   C1950     1.0  0.70254  0.66926  0.12524  1.0000
  C   C1951     1.0  0.65261  0.69736  0.03130  1.0000
  C   C1952     1.0  0.67278  0.66715  0.08171  1.0000
  C   C1953     1.0  0.88360  0.91488  0.21492  1.0000
  H   H1946     1.0  0.91981  0.97738  0.10555  1.0000
  C   C1954     1.0  0.82254  0.70405  0.02560  1.0000
  C   C1955     1.0  0.80223  0.71501  0.02811  1.0000
  C   C1956     1.0  0.78618  0.70521  0.03034  1.0000
  C   C1957     1.0  0.79031  0.68435  0.03015  1.0000
  H   H1947     1.0  0.60417  0.67172  0.06742  1.0000
  C   C1958     1.0  0.82674  0.68313  0.02558  1.0000
  H   H1948     1.0  0.79880  0.73110  0.02846  1.0000
  H   H1949     1.0  0.77062  0.71392  0.03229  1.0000
  C   C1959     1.0  0.94408  0.67162  0.08241  1.0000
  C   C1960     1.0  0.63234  0.69900  0.06847  1.0000
  C   C1961     1.0  0.92457  0.74560  0.01522  1.0000
  C   C1962     1.0  0.93577  0.75169  0.02485  1.0000
  C   C1963     1.0  0.92546  0.76330  0.03859  1.0000
  C   C1964     1.0  0.90401  0.76938  0.04230  1.0000
  C   C1965     1.0  0.89288  0.76396  0.03210  1.0000
  C   C1966     1.0  0.90313  0.75179  0.01879  1.0000
  H   H1950     1.0  0.95232  0.74677  0.02223  1.0000
  H   H1951     1.0  0.93412  0.76745  0.04646  1.0000
  H   H1952     1.0  0.87639  0.76858  0.03478  1.0000
  C   C1967     1.0  0.91560  0.97996  0.22634  1.0000
  H   H1953     1.0  0.93426  0.95509  0.19041  1.0000
  H   H1954     1.0  0.85287  0.88440  0.17165  1.0000
  H   H1955     1.0  0.64514  0.72572  0.06395  1.0000
  S   S659      1.0  0.68974  0.72836  0.99318  1.0000
  H   H1956     1.0  0.65024  0.68542  0.12180  1.0000
  C   C1968     1.0  0.93322  0.66745  0.07107  1.0000
  H   H1957     1.0  0.93307  0.67670  0.05688  1.0000
  H   H1958     1.0  0.80385  0.79353  0.01773  1.0000
  C   C1969     1.0  0.66782  0.68008  0.09437  1.0000
  C   C1970     1.0  0.79405  0.89022  0.05613  1.0000
  C   C1971     1.0  0.92796  0.96914  0.18130  1.0000
  Fe  Fe332     1.0  0.89086  0.95371  0.11830  1.0000
  C   C1972     1.0  0.88567  0.72764  0.08167  1.0000
  C   C1973     1.0  0.92500  0.91579  0.19859  1.0000
  H   H1959     1.0  0.86756  0.91460  0.22123  1.0000
  H   H1960     1.0  0.98838  0.69766  0.15318  1.0000
  H   H1961     1.0  0.64031  0.67043  0.03649  1.0000
  C   C1974     1.0  0.98570  0.93306  0.14448  1.0000
  H   H1962     1.0  0.82868  0.77683  0.01607  1.0000
  H   H1963     1.0  0.61521  0.66810  0.08753  1.0000
  C   C1975     1.0  0.82391  0.75872  0.99223  1.0000
  C   C1976     1.0  0.99312  0.68388  0.12945  1.0000
  Fe  Fe333     1.0  0.90848  0.67228  0.99465  1.0000
  H   H1964     1.0  0.68320  0.67054  0.06818  1.0000
  C   C1977     1.0  0.93698  0.98627  0.17628  1.0000
  C   C1978     1.0  0.99109  0.94811  0.15039  1.0000
  S   S660      1.0  0.91699  0.93642  0.09944  1.0000
  C   C1979     1.0  0.51936  0.92226  0.23445  1.0000
  H   H1965     1.0  0.89442  0.74710  0.01134  1.0000
  H   H1966     1.0  0.82903  0.74734  0.06975  1.0000
  H   H1967     1.0  0.88604  0.83188  0.11646  1.0000
  C   C1980     1.0  0.74438  0.66271  0.08214  1.0000
  C   C1981     1.0  0.52816  0.97755  0.20402  1.0000
  N   N163      1.0  0.63126  0.68358  0.06087  1.0000
  H   H1968     1.0  0.54288  0.96185  0.17219  1.0000
  C   C1982     1.0  0.61883  0.66834  0.07209  1.0000
  C   C1983     1.0  0.86826  0.73681  0.07405  1.0000
  C   C1984     1.0  0.65420  0.67541  0.11195  1.0000
  C   C1985     1.0  0.91116  0.97004  0.17405  1.0000
  H   H1969     1.0  0.62482  0.69961  0.08310  1.0000
  S   S661      1.0  0.87628  0.90870  0.18298  1.0000
  H   H1970     1.0  0.94685  0.96287  0.22259  1.0000
  C   C1986     1.0  0.78835  0.77269  0.00144  1.0000
  N   N164      1.0  0.51795  0.97446  0.19220  1.0000
  C   C1987     1.0  0.82052  0.88089  0.02880  1.0000
  C   C1988     1.0  0.85000  0.89208  0.04031  1.0000
  C   C1989     1.0  0.84076  0.87862  0.01811  1.0000
  C   C1990     1.0  0.85559  0.88416  0.02400  1.0000
  H   H1971     1.0  0.86149  0.89587  0.04541  1.0000
  C   C1991     1.0  0.98853  0.99330  0.09157  1.0000
  H   H1972     1.0  0.97758  0.69010  0.12725  1.0000
  N   N165      1.0  0.88372  0.84865  0.13738  1.0000
  C   C1992     1.0  0.86290  0.85512  0.13912  1.0000
  C   C1993     1.0  0.89354  0.85445  0.14794  1.0000
  C   C1994     1.0  0.85147  0.86813  0.15139  1.0000
  C   C1995     1.0  0.88250  0.86699  0.16069  1.0000
  C   C1996     1.0  0.86139  0.87410  0.16222  1.0000
  C   C1997     1.0  0.89580  0.83556  0.12410  1.0000
  H   H1973     1.0  0.85509  0.85069  0.13065  1.0000
  H   H1974     1.0  0.91009  0.84965  0.14631  1.0000
  H   H1975     1.0  0.83509  0.87373  0.15229  1.0000
  Fe  Fe334     1.0  0.89064  0.91792  0.15202  1.0000
  H   H1976     1.0  0.82543  0.90015  0.06339  1.0000
  H   H1977     1.0  0.90408  0.95680  0.17782  1.0000
  H   H1978     1.0  0.87148  0.88183  0.01622  1.0000
  C   C1998     1.0  0.89192  0.91196  0.19636  1.0000
  S   S662      1.0  0.87274  0.92860  0.12910  1.0000
  H   H1979     1.0  0.57422  0.98447  0.20787  1.0000
  H   H1980     1.0  0.66250  0.72466  0.03036  1.0000
  S   S663      1.0  0.98838  0.98820  0.15165  1.0000
  H   H1981     1.0  0.95229  0.68408  0.07690  1.0000
  H   H1982     1.0  0.54386  0.97974  0.19880  1.0000
  H   H1983     1.0  0.90916  0.96704  0.22694  1.0000
  C   C1999     1.0  0.81206  0.77731  0.01806  1.0000
  H   H1984     1.0  0.66059  0.69665  0.01676  1.0000
  C   C2000     1.0  0.52866  0.97402  0.17250  1.0000
  S   S664      1.0  0.77008  0.67224  0.03281  1.0000
  C   C2001     1.0  0.91462  0.99328  0.10659  1.0000
  H   H1985     1.0  0.79261  0.87526  0.06620  1.0000
  C   C2002     1.0  0.81062  0.67327  0.02788  1.0000
  N   N166      1.0  0.80811  0.76969  0.00332  1.0000
  S   S665      1.0  0.93208  0.67158  0.01026  1.0000
  C   C2003     1.0  0.87883  0.69440  0.08449  1.0000
  C   C2004     1.0  0.91268  0.91227  0.18829  1.0000
  H   H1986     1.0  0.86426  0.75343  0.07000  1.0000
  H   H1987     1.0  0.71498  0.68720  0.99792  1.0000
  H   H1988     1.0  0.89509  0.73714  0.08320  1.0000
  C   C2005     1.0  0.86165  0.70410  0.07660  1.0000
  C   C2006     1.0  0.56604  0.98795  0.23681  1.0000
  H   H1989     1.0  0.52505  0.92128  0.20500  1.0000
  S   S666      1.0  0.54445  0.92417  0.23339  1.0000
  C   C2007     1.0  0.89590  0.91863  0.22520  1.0000
  S   S667      1.0  0.89624  0.70617  0.99047  1.0000
  S   S668      1.0  0.93207  0.92517  0.22888  1.0000
  C   C2008     1.0  0.51369  0.92142  0.21820  1.0000
  H   H1990     1.0  0.51904  0.97067  0.16452  1.0000
  H   H1991     1.0  0.71145  0.66515  0.13646  1.0000
  C   C2009     1.0  0.98369  0.97749  0.08651  1.0000
  H   H1992     1.0  0.84489  0.74223  0.04730  1.0000
  C   C2010     1.0  0.51876  0.97740  0.22307  1.0000
  H   H1993     1.0  0.95647  0.98949  0.13373  1.0000
  Fe  Fe335     1.0  0.90684  0.66724  0.03638  1.0000
  H   H1994     1.0  0.99421  0.91736  0.14700  1.0000
  C   C2011     1.0  0.90388  0.98784  0.16153  1.0000
  S   S669      1.0  0.95896  0.66429  0.11447  1.0000
  H   H1995     1.0  0.75756  0.66937  0.07388  1.0000
  H   H1996     1.0  0.52729  0.97927  0.23239  1.0000
  C   C2012     1.0  0.83432  0.82261  0.99275  1.0000
  H   H1997     1.0  0.83959  0.75606  0.99384  1.0000
  H   H1998     1.0  0.89132  0.98842  0.15519  1.0000
  H   H1999     1.0  0.68834  0.66289  0.13117  1.0000
  H   H2000     1.0  0.53282  0.98913  0.16515  1.0000
  N   N167      1.0  0.71518  0.66157  0.10845  1.0000
  H   H2001     1.0  0.88934  0.92114  0.23943  1.0000
  Fe  Fe336     1.0  0.64667  0.85970  0.41790  1.0000
  S   S670      1.0  0.64156  0.87082  0.38829  1.0000
  S   S671      1.0  0.65001  0.82663  0.43328  1.0000
  Fe  Fe337     1.0  0.64348  0.90237  0.42281  1.0000
  S   S672      1.0  0.63750  0.91759  0.39391  1.0000
  S   S673      1.0  0.64988  0.91963  0.44101  1.0000
  Fe  Fe338     1.0  0.61697  0.89537  0.39995  1.0000
  S   S674      1.0  0.58640  0.90528  0.39163  1.0000
  Fe  Fe339     1.0  0.66244  0.89210  0.38451  1.0000
  S   S675      1.0  0.68607  0.90138  0.35854  1.0000
  S   S676      1.0  0.62027  0.88252  0.43016  1.0000
  S   S677      1.0  0.67025  0.87842  0.41299  1.0000
  Fe  Fe340     1.0  0.67221  0.73978  0.38669  1.0000
  S   S678      1.0  0.65857  0.77255  0.37521  1.0000
  C   C2013     1.0  0.61588  0.67950  0.42332  1.0000
  Fe  Fe341     1.0  0.81237  0.83354  0.38868  1.0000
  S   S679      1.0  0.80274  0.84997  0.41258  1.0000
  S   S680      1.0  0.84320  0.83418  0.36832  1.0000
  Fe  Fe342     1.0  0.77131  0.82064  0.39735  1.0000
  S   S681      1.0  0.75793  0.83635  0.42178  1.0000
  S   S682      1.0  0.75038  0.80952  0.38597  1.0000
  Fe  Fe343     1.0  0.77309  0.86191  0.40296  1.0000
  S   S683      1.0  0.75804  0.89519  0.39741  1.0000
  Fe  Fe344     1.0  0.78856  0.82295  0.42940  1.0000
  S   S684      1.0  0.78840  0.80951  0.46034  1.0000
  S   S685      1.0  0.78371  0.84755  0.37785  1.0000
  S   S686      1.0  0.80101  0.80494  0.40635  1.0000
  Fe  Fe345     1.0  0.88381  0.92641  0.29492  1.0000
  S   S687      1.0  0.91282  0.90454  0.28490  1.0000
  S   S688      1.0  0.85259  0.91860  0.30948  1.0000
  S   S689      1.0  0.68643  0.73506  0.41125  1.0000
  C   C2014     1.0  0.61045  0.82609  0.39049  1.0000
  H   H2002     1.0  0.83889  0.87386  0.39497  1.0000
  Fe  Fe346     1.0  0.92790  0.92196  0.29641  1.0000
  S   S690      1.0  0.95324  0.90622  0.31189  1.0000
  H   H2003     1.0  0.57135  0.86705  0.38985  1.0000
  S   S691      1.0  0.89865  0.94203  0.30858  1.0000
  H   H2004     1.0  0.62025  0.69351  0.27740  1.0000
  Fe  Fe347     1.0  0.54963  0.95989  0.28047  1.0000
  H   H2005     1.0  0.57975  0.92102  0.47964  1.0000
  Fe  Fe348     1.0  0.56288  0.91513  0.29729  1.0000
  S   S692      1.0  0.53829  0.90563  0.28939  1.0000
  S   S693      1.0  0.58788  0.89344  0.31087  1.0000
  Fe  Fe349     1.0  0.54567  0.92805  0.26175  1.0000
  C   C2015     1.0  0.70952  0.91113  0.42838  1.0000
  H   H2006     1.0  0.69403  0.91310  0.42564  1.0000
  S   S694      1.0  0.57259  0.93465  0.26844  1.0000
  S   S695      1.0  0.54177  0.94115  0.30992  1.0000
  S   S696      1.0  0.65644  0.70175  0.45394  1.0000
  C   C2016     1.0  0.79356  0.92618  0.36570  1.0000
  H   H2007     1.0  0.58375  0.83803  0.42585  1.0000
  Fe  Fe350     1.0  0.51796  0.93327  0.29964  1.0000
  H   H2008     1.0  0.68322  0.68015  0.31981  1.0000
  C   C2017     1.0  0.96418  0.92463  0.31532  1.0000
  C   C2018     1.0  0.95654  0.94548  0.30885  1.0000
  C   C2019     1.0  0.96640  0.96017  0.31002  1.0000
  C   C2020     1.0  0.75036  0.77014  0.44279  1.0000
  S   S697      1.0  0.68366  0.66803  0.37319  1.0000
  H   H2009     1.0  0.67995  0.93762  0.44585  1.0000
  H   H2010     1.0  0.94314  0.95032  0.30279  1.0000
  H   H2011     1.0  0.98690  0.90239  0.32904  1.0000
  H   H2012     1.0  0.63923  0.91994  0.35272  1.0000
  C   C2021     1.0  0.70606  0.92521  0.48092  1.0000
  C   C2022     1.0  0.83103  0.92403  0.35702  1.0000
  H   H2013     1.0  0.62469  0.70892  0.30566  1.0000
  S   S698      1.0  0.52348  0.95501  0.27154  1.0000
  H   H2014     1.0  0.77218  0.81914  0.34772  1.0000
  H   H2015     1.0  0.79516  0.79645  0.36688  1.0000
  H   H2016     1.0  0.72290  0.70367  0.46323  1.0000
  C   C2023     1.0  0.78413  0.82786  0.34051  1.0000
  C   C2024     1.0  0.84588  0.85741  0.35153  1.0000
  C   C2025     1.0  0.82862  0.87252  0.34787  1.0000
  C   C2026     1.0  0.83094  0.89074  0.33424  1.0000
  C   C2027     1.0  0.85057  0.89440  0.32466  1.0000
  C   C2028     1.0  0.86790  0.87933  0.32826  1.0000
  C   C2029     1.0  0.86552  0.86076  0.34150  1.0000
  H   H2017     1.0  0.81343  0.87022  0.35545  1.0000
  H   H2018     1.0  0.81749  0.90231  0.33147  1.0000
  H   H2019     1.0  0.88312  0.88201  0.32095  1.0000
  H   H2020     1.0  0.87898  0.84912  0.34420  1.0000
  C   C2030     1.0  0.69194  0.92991  0.45366  1.0000
  S   S699      1.0  0.65519  0.71401  0.39985  1.0000
  C   C2031     1.0  0.77629  0.84941  0.46440  1.0000
  H   H2021     1.0  0.57821  0.95956  0.33573  1.0000
  H   H2022     1.0  0.81466  0.78811  0.34735  1.0000
  S   S700      1.0  0.69952  0.72131  0.37006  1.0000
  C   C2032     1.0  0.62913  0.92639  0.45922  1.0000
  H   H2023     1.0  0.77508  0.85344  0.44974  1.0000
  C   C2033     1.0  0.80886  0.80021  0.35573  1.0000
  C   C2034     1.0  0.74659  0.74279  0.39320  1.0000
  C   C2035     1.0  0.73164  0.75899  0.38636  1.0000
  C   C2036     1.0  0.73331  0.77933  0.38391  1.0000
  C   C2037     1.0  0.74971  0.78366  0.38862  1.0000
  C   C2038     1.0  0.76483  0.76752  0.39533  1.0000
  C   C2039     1.0  0.76334  0.74708  0.39746  1.0000
  H   H2024     1.0  0.71890  0.75586  0.38265  1.0000
  H   H2025     1.0  0.72175  0.79174  0.37836  1.0000
  H   H2026     1.0  0.77765  0.77072  0.39883  1.0000
  H   H2027     1.0  0.77502  0.73454  0.40263  1.0000
  C   C2040     1.0  0.58700  0.90275  0.36885  1.0000
  C   C2041     1.0  0.56881  0.90859  0.36223  1.0000
  C   C2042     1.0  0.56891  0.90578  0.34440  1.0000
  C   C2043     1.0  0.58720  0.89708  0.33319  1.0000
  C   C2044     1.0  0.60528  0.89097  0.33993  1.0000
  C   C2045     1.0  0.60522  0.89406  0.35759  1.0000
  H   H2028     1.0  0.55457  0.91509  0.37097  1.0000
  H   H2029     1.0  0.55472  0.90976  0.33963  1.0000
  H   H2030     1.0  0.61942  0.88405  0.33138  1.0000
  H   H2031     1.0  0.61932  0.88978  0.36232  1.0000
  C   C2046     1.0  0.65411  0.81086  0.41733  1.0000
  C   C2047     1.0  0.64875  0.79160  0.42389  1.0000
  C   C2048     1.0  0.65055  0.77958  0.41098  1.0000
  C   C2049     1.0  0.65770  0.78682  0.39151  1.0000
  C   C2050     1.0  0.66362  0.80581  0.38504  1.0000
  C   C2051     1.0  0.66205  0.81769  0.39797  1.0000
  H   H2032     1.0  0.64276  0.78614  0.43887  1.0000
  H   H2033     1.0  0.64582  0.76496  0.41605  1.0000
  H   H2034     1.0  0.66949  0.81129  0.37003  1.0000
  H   H2035     1.0  0.66717  0.83206  0.39290  1.0000
  C   C2052     1.0  0.70747  0.89970  0.36742  1.0000
  C   C2053     1.0  0.71641  0.88076  0.37742  1.0000
  C   C2054     1.0  0.73222  0.87944  0.38622  1.0000
  C   C2055     1.0  0.73889  0.89710  0.38543  1.0000
  C   C2056     1.0  0.73000  0.91611  0.37539  1.0000
  C   C2057     1.0  0.71438  0.91739  0.36623  1.0000
  H   H2036     1.0  0.71098  0.86709  0.37852  1.0000
  H   H2037     1.0  0.73887  0.86473  0.39392  1.0000
  H   H2038     1.0  0.73507  0.92983  0.37475  1.0000
  H   H2039     1.0  0.70721  0.93212  0.35876  1.0000
  C   C2058     1.0  0.75755  0.77488  0.45644  1.0000
  C   C2059     1.0  0.72277  0.91101  0.47356  1.0000
  S   S701      1.0  0.74420  0.71724  0.39685  1.0000
  H   H2040     1.0  0.97115  0.91392  0.24839  1.0000
  H   H2041     1.0  0.67762  0.94591  0.47659  1.0000
  C   C2060     1.0  0.69854  0.71081  0.48702  1.0000
  S   S702      1.0  0.69950  0.68651  0.40984  1.0000
  H   H2042     1.0  0.80381  0.89262  0.39117  1.0000
  H   H2043     1.0  0.79048  0.87363  0.31049  1.0000
  H   H2044     1.0  0.69971  0.77677  0.41705  1.0000
  H   H2045     1.0  0.92121  0.99388  0.32419  1.0000
  N   N168      1.0  0.62648  0.93089  0.32792  1.0000
  C   C2061     1.0  0.60896  0.94214  0.33702  1.0000
  C   C2062     1.0  0.62797  0.92842  0.31009  1.0000
  C   C2063     1.0  0.59226  0.95108  0.32831  1.0000
  C   C2064     1.0  0.61155  0.93713  0.30099  1.0000
  N   N169      1.0  0.99179  0.91967  0.26212  1.0000
  C   C2065     1.0  0.58426  0.85068  0.36736  1.0000
  H   H2046     1.0  0.60384  0.69200  0.42779  1.0000
  H   H2047     1.0  0.64175  0.91933  0.30296  1.0000
  H   H2048     1.0  0.50882  0.92300  0.26410  1.0000
  H   H2049     1.0  0.61631  0.69213  0.35562  1.0000
  H   H2050     1.0  0.64359  0.88079  0.46973  1.0000
  C   C2066     1.0  0.50464  0.92243  0.25148  1.0000
  H   H2051     1.0  0.65150  0.90629  0.33431  1.0000
  C   C2067     1.0  0.98940  0.93996  0.25313  1.0000
  N   N170      1.0  0.69809  0.79695  0.43469  1.0000
  C   C2068     1.0  0.69421  0.79953  0.45286  1.0000
  C   C2069     1.0  0.69700  0.77878  0.43144  1.0000
  C   C2070     1.0  0.68907  0.78371  0.46837  1.0000
  C   C2071     1.0  0.69185  0.76266  0.44664  1.0000
  C   C2072     1.0  0.68788  0.76520  0.46519  1.0000
  C   C2073     1.0  0.70388  0.81373  0.41882  1.0000
  H   H2052     1.0  0.69481  0.81400  0.45544  1.0000
  H   H2053     1.0  0.74789  0.78153  0.42999  1.0000
  C   C2074     1.0  0.99097  0.93330  0.32499  1.0000
  H   H2054     1.0  0.82912  0.93745  0.34556  1.0000
  H   H2055     1.0  0.68369  0.75293  0.47710  1.0000
  H   H2056     1.0  0.71914  0.81612  0.41871  1.0000
  H   H2057     1.0  0.70459  0.81061  0.40488  1.0000
  H   H2058     1.0  0.65140  0.84331  0.47065  1.0000
  H   H2059     1.0  0.62038  0.81612  0.39964  1.0000
  C   C2075     1.0  0.79425  0.85854  0.31946  1.0000
  C   C2076     1.0  0.77182  0.86487  0.47453  1.0000
  N   N171      1.0  0.80377  0.82032  0.34318  1.0000
  C   C2077     1.0  0.81890  0.83115  0.33372  1.0000
  H   H2060     1.0  0.60032  0.67466  0.40413  1.0000
  Fe  Fe351     1.0  0.91696  0.92941  0.25852  1.0000
  H   H2061     1.0  0.73675  0.89560  0.45044  1.0000
  C   C2078     1.0  0.59933  0.83464  0.36102  1.0000
  C   C2079     1.0  0.98385  0.95413  0.31773  1.0000
  C   C2080     1.0  0.64402  0.92185  0.33705  1.0000
  C   C2081     1.0  0.77900  0.84720  0.32884  1.0000
  H   H2062     1.0  0.64479  0.69586  0.36779  1.0000
  S   S703      1.0  0.93465  0.94488  0.26916  1.0000
  H   H2063     1.0  0.96075  0.97616  0.30450  1.0000
  H   H2064     1.0  0.78564  0.76573  0.48075  1.0000
  H   H2065     1.0  0.76748  0.88075  0.46753  1.0000
  N   N172      1.0  0.81439  0.91635  0.36854  1.0000
  H   H2066     1.0  0.61248  0.93462  0.28710  1.0000
  H   H2067     1.0  0.57398  0.86049  0.35837  1.0000
  H   H2068     1.0  0.74134  0.74643  0.43516  1.0000
  C   C2082     1.0  0.60992  0.92188  0.46143  1.0000
  H   H2069     1.0  0.60761  0.94383  0.35129  1.0000
  C   C2083     1.0  0.63094  0.66202  0.35023  1.0000
  H   H2070     1.0  0.64706  0.93894  0.47076  1.0000
  H   H2071     1.0  0.71817  0.92153  0.41673  1.0000
  Fe  Fe352     1.0  0.68371  0.69475  0.38539  1.0000
  H   H2072     1.0  0.76065  0.79006  0.45400  1.0000
  C   C2084     1.0  0.72360  0.90645  0.45626  1.0000
  N   N173      1.0  0.63881  0.68026  0.29777  1.0000
  C   C2085     1.0  0.63804  0.69643  0.30525  1.0000
  H   H2073     1.0  0.71751  0.89501  0.42788  1.0000
  C   C2086     1.0  0.62973  0.67984  0.35635  1.0000
  H   H2074     1.0  0.60082  0.83195  0.34708  1.0000
  H   H2075     1.0  0.65327  0.70938  0.31937  1.0000
  H   H2076     1.0  0.58084  0.95547  0.30318  1.0000
  C   C2087     1.0  0.81703  0.89880  0.38227  1.0000
  H   H2077     1.0  0.82077  0.80007  0.36318  1.0000
  C   C2088     1.0  0.63367  0.67317  0.43061  1.0000
  C   C2089     1.0  0.64587  0.68204  0.36318  1.0000
  H   H2078     1.0  0.78740  0.91584  0.36067  1.0000
  S   S704      1.0  0.88671  0.95002  0.26732  1.0000
  H   H2079     1.0  0.74787  0.72054  0.46429  1.0000
  C   C2090     1.0  0.83678  0.88822  0.38457  1.0000
  H   H2080     1.0  0.76325  0.85338  0.32728  1.0000
  Fe  Fe353     1.0  0.90419  0.96369  0.28013  1.0000
  H   H2081     1.0  0.79322  0.94100  0.35510  1.0000
  H   H2082     1.0  0.58948  0.86319  0.41455  1.0000
  H   H2083     1.0  0.73506  0.90376  0.48113  1.0000
  Fe  Fe354     1.0  0.71260  0.71479  0.39588  1.0000
  C   C2091     1.0  0.81439  0.85039  0.32172  1.0000
  H   H2084     1.0  0.83454  0.82512  0.33571  1.0000
  H   H2085     1.0  0.86926  0.88741  0.37395  1.0000
  H   H2086     1.0  0.78315  0.92918  0.37932  1.0000
  H   H2087     1.0  0.82640  0.85908  0.31453  1.0000
  C   C2092     1.0  0.62166  0.68041  0.28977  1.0000
  C   C2093     1.0  0.85384  0.89584  0.37279  1.0000
  C   C2094     1.0  0.67098  0.68037  0.31322  1.0000
  H   H2088     1.0  0.97657  0.89476  0.26885  1.0000
  H   H2089     1.0  0.60707  0.68183  0.30073  1.0000
  H   H2090     1.0  0.69073  0.74834  0.44411  1.0000
  C   C2095     1.0  0.61241  0.82209  0.37273  1.0000
  C   C2096     1.0  0.70658  0.70564  0.46928  1.0000
  C   C2097     1.0  0.98115  0.91853  0.32376  1.0000
  H   H2091     1.0  0.70004  0.69915  0.44542  1.0000
  C   C2098     1.0  0.59365  0.94863  0.31014  1.0000
  H   H2092     1.0  0.62405  0.80935  0.36811  1.0000
  N   N174      1.0  0.70812  0.91565  0.44672  1.0000
  C   C2099     1.0  0.65415  0.69679  0.31299  1.0000
  C   C2100     1.0  0.69361  0.70301  0.45915  1.0000
  N   N175      1.0  0.59627  0.84242  0.39622  1.0000
  H   H2093     1.0  0.69242  0.82822  0.42007  1.0000
  C   C2101     1.0  0.85098  0.91395  0.35904  1.0000
  H   H2094     1.0  0.60718  0.91544  0.45102  1.0000
  C   C2102     1.0  0.67252  0.70498  0.46691  1.0000
  H   H2095     1.0  0.86415  0.91959  0.34929  1.0000
  H   H2096     1.0  0.60997  0.84168  0.41871  1.0000
  Fe  Fe355     1.0  0.67210  0.70763  0.42308  1.0000
  C   C2103     1.0  0.78241  0.82887  0.47318  1.0000
  C   C2104     1.0  0.59474  0.84649  0.41477  1.0000
  C   C2105     1.0  0.58290  0.85434  0.38513  1.0000
  C   C2106     1.0  0.66329  0.66628  0.36415  1.0000
  H   H2097     1.0  0.94173  0.98148  0.27595  1.0000
  H   H2098     1.0  0.65561  0.93173  0.33167  1.0000
  C   C2107     1.0  0.63241  0.93515  0.47252  1.0000
  S   S705      1.0  0.55437  0.99201  0.27372  1.0000
  H   H2099     1.0  0.75981  0.72977  0.48823  1.0000
  C   C2108     1.0  0.59435  0.92524  0.47750  1.0000
  C   C2109     1.0  0.64160  0.84924  0.48282  1.0000
  C   C2110     1.0  0.74679  0.75049  0.44562  1.0000
  C   C2111     1.0  0.75735  0.74123  0.47544  1.0000
  C   C2112     1.0  0.66441  0.70983  0.48482  1.0000
  C   C2113     1.0  0.61389  0.66976  0.41013  1.0000
  H   H2100     1.0  0.49742  0.96389  0.32659  1.0000
  H   H2101     1.0  0.68583  0.78584  0.48276  1.0000
  H   H2102     1.0  0.63506  0.68079  0.44089  1.0000
  H   H2103     1.0  0.66944  0.66284  0.43922  1.0000
  C   C2114     1.0  0.98350  0.90560  0.25622  1.0000
  C   C2115     1.0  0.69058  0.93476  0.47094  1.0000
  H   H2104     1.0  0.95518  0.99374  0.32916  1.0000
  C   C2116     1.0  0.67164  0.66393  0.30557  1.0000
  C   C2117     1.0  0.75046  0.73591  0.46196  1.0000
  N   N176      1.0  0.76078  0.76055  0.47259  1.0000
  H   H2105     1.0  0.98137  0.94572  0.24162  1.0000
  C   C2118     1.0  0.63721  0.87023  0.48228  1.0000
  H   H2106     1.0  0.76101  0.78128  0.48883  1.0000
  C   C2119     1.0  0.61696  0.93844  0.48853  1.0000
  S   S706      1.0  0.99693  0.97281  0.31739  1.0000
  C   C2120     1.0  0.65534  0.66414  0.29781  1.0000
  H   H2107     1.0  0.62364  0.66609  0.28488  1.0000
  C   C2121     1.0  0.76897  0.76573  0.48633  1.0000
  H   H2108     1.0  0.99603  0.89688  0.24678  1.0000
  H   H2109     1.0  0.57420  0.97272  0.24204  1.0000
  H   H2110     1.0  0.99534  0.96957  0.25157  1.0000
  S   S707      1.0  0.61054  0.66069  0.34098  1.0000
  C   C2122     1.0  0.67367  0.71299  0.61554  1.0000
  H   H2111     1.0  0.61472  0.83330  0.52746  1.0000
  S   S708      1.0  0.62673  0.95425  0.65680  1.0000
  H   H2112     1.0  0.90196  0.97913  0.61237  1.0000
  H   H2113     1.0  0.68189  0.66522  0.63310  1.0000
  S   S709      1.0  0.57347  0.66387  0.65640  1.0000
  Fe  Fe356     1.0  0.60162  0.93453  0.57207  1.0000
  S   S710      1.0  0.60829  0.95383  0.54253  1.0000
  S   S711      1.0  0.58216  0.94751  0.59702  1.0000
  Fe  Fe357     1.0  0.62381  0.89457  0.56003  1.0000
  S   S712      1.0  0.63220  0.91015  0.52956  1.0000
  S   S713      1.0  0.63297  0.86073  0.57124  1.0000
  Fe  Fe358     1.0  0.63972  0.93346  0.54064  1.0000
  S   S714      1.0  0.67036  0.94215  0.52751  1.0000
  Fe  Fe359     1.0  0.60004  0.92870  0.53437  1.0000
  H   H2114     1.0  0.72106  0.80272  0.52566  1.0000
  S   S715      1.0  0.63375  0.91632  0.57095  1.0000
  S   S716      1.0  0.59087  0.91095  0.56404  1.0000
  H   H2115     1.0  0.55611  0.68543  0.61956  1.0000
  Fe  Fe360     1.0  0.75147  0.87856  0.57441  1.0000
  S   S717      1.0  0.77714  0.85861  0.58804  1.0000
  S   S718      1.0  0.72249  0.89652  0.58946  1.0000
  Fe  Fe361     1.0  0.77266  0.87057  0.53545  1.0000
  S   S719      1.0  0.80070  0.85027  0.54522  1.0000
  H   H2116     1.0  0.99447  0.89179  0.71675  1.0000
  Fe  Fe362     1.0  0.77775  0.83700  0.57018  1.0000
  S   S720      1.0  0.78303  0.80308  0.58254  1.0000
  Fe  Fe363     1.0  0.79790  0.87351  0.56222  1.0000
  S   S721      1.0  0.82485  0.88642  0.56227  1.0000
  S   S722      1.0  0.75002  0.85549  0.55921  1.0000
  S   S723      1.0  0.77211  0.89519  0.54987  1.0000
  Fe  Fe364     1.0  0.86487  0.91602  0.63996  1.0000
  S   S724      1.0  0.88747  0.90205  0.65906  1.0000
  S   S725      1.0  0.84497  0.89625  0.63657  1.0000
  Fe  Fe365     1.0  0.86963  0.95940  0.63660  1.0000
  S   S726      1.0  0.89211  0.94907  0.65528  1.0000
  C   C2123     1.0  0.62940  0.67444  0.60664  1.0000
  Fe  Fe366     1.0  0.90645  0.92430  0.63913  1.0000
  Fe  Fe367     1.0  0.87176  0.92792  0.67375  1.0000
  S   S727      1.0  0.86569  0.92589  0.70517  1.0000
  S   S728      1.0  0.88541  0.93621  0.61847  1.0000
  S   S729      1.0  0.84763  0.94035  0.65655  1.0000
  S   S730      1.0  0.85910  0.99358  0.62762  1.0000
  N   N177      1.0  0.71888  0.83259  0.52996  1.0000
  H   H2117     1.0  0.62136  0.89384  0.49769  1.0000
  C   C2124     1.0  0.67739  0.71296  0.49481  1.0000
  N   N178      1.0  0.96515  0.97996  0.71523  1.0000
  H   H2118     1.0  0.65731  0.71534  0.62179  1.0000
  Fe  Fe368     1.0  0.60366  0.97506  0.67458  1.0000
  N   N179      1.0  0.65505  0.89691  0.63460  1.0000
  C   C2125     1.0  0.59814  0.93297  0.49130  1.0000
  C   C2126     1.0  0.67519  0.67590  0.62128  1.0000
  H   H2119     1.0  0.78209  0.90353  0.58459  1.0000
  H   H2120     1.0  0.61554  0.72301  0.61425  1.0000
  C   C2127     1.0  0.96578  0.96290  0.64964  1.0000
  H   H2121     1.0  0.82574  0.95169  0.58012  1.0000
  C   C2128     1.0  0.63484  0.88762  0.61810  1.0000
  H   H2122     1.0  0.62218  0.90273  0.64142  1.0000
  C   C2129     1.0  0.77914  0.83933  0.50249  1.0000
  H   H2123     1.0  0.66171  0.92081  0.64307  1.0000
  C   C2130     1.0  0.88844  0.92305  0.71252  1.0000
  S   S731      1.0  0.97465  0.98148  0.65541  1.0000
  H   H2124     1.0  0.90853  0.91602  0.68649  1.0000
  S   S732      1.0  0.74551  0.73941  0.56249  1.0000
  H   H2125     1.0  0.78019  0.83537  0.51723  1.0000
  C   C2131     1.0  0.83017  0.88921  0.58303  1.0000
  C   C2132     1.0  0.84588  0.89942  0.58131  1.0000
  C   C2133     1.0  0.85069  0.90174  0.59755  1.0000
  C   C2134     1.0  0.83991  0.89367  0.61563  1.0000
  C   C2135     1.0  0.82439  0.88323  0.61732  1.0000
  C   C2136     1.0  0.81944  0.88110  0.60111  1.0000
  H   H2126     1.0  0.85433  0.90563  0.56735  1.0000
  H   H2127     1.0  0.86272  0.90974  0.59610  1.0000
  H   H2128     1.0  0.81606  0.87688  0.63129  1.0000
  H   H2129     1.0  0.80750  0.87300  0.60263  1.0000
  C   C2137     1.0  0.77929  0.76543  0.58145  1.0000
  C   C2138     1.0  0.77180  0.78654  0.57617  1.0000
  C   C2139     1.0  0.75562  0.79359  0.56651  1.0000
  C   C2140     1.0  0.74704  0.77936  0.56235  1.0000
  H   H2130     1.0  0.74964  0.80988  0.56251  1.0000
  H   H2131     1.0  0.73441  0.78460  0.55523  1.0000
  C   C2141     1.0  0.64616  0.84706  0.55352  1.0000
  C   C2142     1.0  0.65725  0.85651  0.53616  1.0000
  C   C2143     1.0  0.66829  0.84507  0.52243  1.0000
  C   C2144     1.0  0.66831  0.82413  0.52618  1.0000
  C   C2145     1.0  0.65672  0.81486  0.54327  1.0000
  C   C2146     1.0  0.64583  0.82625  0.55700  1.0000
  H   H2132     1.0  0.65819  0.87235  0.53362  1.0000
  H   H2133     1.0  0.96018  0.96818  0.58968  1.0000
  H   H2134     1.0  0.65601  0.79889  0.54593  1.0000
  H   H2135     1.0  0.63710  0.81892  0.57034  1.0000
  C   C2147     1.0  0.68548  0.93162  0.54449  1.0000
  C   C2148     1.0  0.67742  0.93323  0.56343  1.0000
  C   C2149     1.0  0.68898  0.92296  0.57725  1.0000
  C   C2150     1.0  0.70844  0.91075  0.57217  1.0000
  C   C2151     1.0  0.71650  0.90944  0.55319  1.0000
  C   C2152     1.0  0.70524  0.92017  0.53934  1.0000
  H   H2136     1.0  0.66230  0.94250  0.56739  1.0000
  H   H2137     1.0  0.68275  0.92437  0.59182  1.0000
  H   H2138     1.0  0.73133  0.89998  0.54906  1.0000
  H   H2139     1.0  0.71168  0.91907  0.52475  1.0000
  C   C2153     1.0  0.64985  0.69710  0.58234  1.0000
  H   H2140     1.0  0.80323  0.93828  0.56797  1.0000
  H   H2141     1.0  0.85588  0.98451  0.66845  1.0000
  C   C2154     1.0  0.58390  0.94941  0.63215  1.0000
  C   C2155     1.0  0.64479  0.67767  0.59006  1.0000
  H   H2142     1.0  0.59330  0.88830  0.52521  1.0000
  H   H2143     1.0  0.73017  0.82070  0.50490  1.0000
  C   C2156     1.0  0.61489  0.95006  0.64082  1.0000
  C   C2157     1.0  0.62641  0.94686  0.62297  1.0000
  C   C2158     1.0  0.61659  0.94510  0.60963  1.0000
  C   C2159     1.0  0.59526  0.94669  0.61415  1.0000
  H   H2144     1.0  0.58489  0.95272  0.65950  1.0000
  C   C2160     1.0  0.97105  0.98071  0.73093  1.0000
  H   H2145     1.0  0.64276  0.94648  0.61917  1.0000
  H   H2146     1.0  0.62536  0.94359  0.59559  1.0000
  H   H2147     1.0  0.77263  0.91546  0.62453  1.0000
  H   H2148     1.0  0.61991  0.88739  0.61613  1.0000
  C   C2161     1.0  0.65651  0.90604  0.64951  1.0000
  C   C2162     1.0  0.70384  0.72737  0.60015  1.0000
  H   H2149     1.0  0.67729  0.85228  0.50923  1.0000
  H   H2150     1.0  0.68590  0.87517  0.59867  1.0000
  C   C2163     1.0  0.94137  0.95484  0.63634  1.0000
  C   C2164     1.0  0.91537  0.98407  0.67832  1.0000
  C   C2165     1.0  0.67184  0.88074  0.60825  1.0000
  N   N180      1.0  0.83888  0.82643  0.59182  1.0000
  C   C2166     1.0  0.85052  0.83677  0.57604  1.0000
  C   C2167     1.0  0.84082  0.82602  0.60957  1.0000
  C   C2168     1.0  0.86443  0.84719  0.57784  1.0000
  C   C2169     1.0  0.85449  0.83639  0.61189  1.0000
  C   C2170     1.0  0.86634  0.84704  0.59589  1.0000
  C   C2171     1.0  0.82470  0.81513  0.58983  1.0000
  H   H2151     1.0  0.84872  0.83750  0.56195  1.0000
  H   H2152     1.0  0.83157  0.81784  0.62206  1.0000
  H   H2153     1.0  0.87302  0.85602  0.56532  1.0000
  H   H2154     1.0  0.85558  0.83661  0.62598  1.0000
  H   H2155     1.0  0.87653  0.85568  0.59751  1.0000
  H   H2156     1.0  0.80956  0.81819  0.59980  1.0000
  H   H2157     1.0  0.82164  0.81966  0.57532  1.0000
  H   H2158     1.0  0.83115  0.79836  0.59280  1.0000
  N   N181      1.0  0.78599  0.92699  0.59551  1.0000
  C   C2172     1.0  0.78386  0.92391  0.61471  1.0000
  C   C2173     1.0  0.80086  0.93677  0.58316  1.0000
  H   H2159     1.0  0.82189  0.94642  0.61496  1.0000
  C   C2174     1.0  0.81370  0.94429  0.58993  1.0000
  C   C2175     1.0  0.81153  0.94138  0.60947  1.0000
  C   C2176     1.0  0.97498  0.94204  0.65370  1.0000
  H   H2160     1.0  0.59088  0.86285  0.53805  1.0000
  H   H2161     1.0  0.78840  0.80794  0.49917  1.0000
  C   C2177     1.0  0.69575  0.84542  0.55653  1.0000
  S   S733      1.0  0.94113  0.91619  0.63384  1.0000
  C   C2178     1.0  0.61883  0.69086  0.61532  1.0000
  H   H2162     1.0  0.86022  0.96981  0.69124  1.0000
  H   H2163     1.0  0.89497  0.96313  0.69185  1.0000
  Fe  Fe369     1.0  0.71804  0.74595  0.54968  1.0000
  Fe  Fe370     1.0  0.55933  0.98744  0.69497  1.0000
  H   H2164     1.0  0.75873  0.91603  0.59841  1.0000
  H   H2165     1.0  0.94046  0.91104  0.69746  1.0000
  H   H2166     1.0  0.71432  0.67585  0.60415  1.0000
  C   C2179     1.0  0.95036  0.93398  0.64046  1.0000
  C   C2180     1.0  0.71384  0.86808  0.53069  1.0000
  S   S734      1.0  0.67123  0.75366  0.52716  1.0000
  C   C2181     1.0  0.68291  0.73007  0.60852  1.0000
  H   H2167     1.0  0.74528  0.80986  0.52287  1.0000
  S   S735      1.0  0.52619  0.98473  0.70566  1.0000
  H   H2168     1.0  0.58324  0.67747  0.61155  1.0000
  C   C2182     1.0  0.94911  0.96924  0.64080  1.0000
  H   H2169     1.0  0.61135  0.87339  0.53969  1.0000
  C   C2183     1.0  0.90760  0.91806  0.70051  1.0000
  H   H2170     1.0  0.65832  0.68033  0.62672  1.0000
  C   C2184     1.0  0.96220  0.96047  0.71334  1.0000
  C   C2185     1.0  0.63349  0.83588  0.49918  1.0000
  C   C2186     1.0  0.72323  0.85164  0.52178  1.0000
  C   C2187     1.0  0.69992  0.86497  0.54813  1.0000
  H   H2171     1.0  0.66754  0.89549  0.65794  1.0000
  C   C2188     1.0  0.70550  0.82927  0.54723  1.0000
  C   C2189     1.0  0.56828  0.68098  0.60730  1.0000
  H   H2172     1.0  0.68758  0.89062  0.62398  1.0000
  H   H2173     1.0  0.67108  0.71684  0.50856  1.0000
  S   S736      1.0  0.70289  0.71992  0.55252  1.0000
  H   H2174     1.0  0.60703  0.68852  0.62816  1.0000
  C   C2190     1.0  0.67269  0.88953  0.62263  1.0000
  C   C2191     1.0  0.92468  0.91712  0.72508  1.0000
  C   C2192     1.0  0.59375  0.95087  0.64553  1.0000
  S   S737      1.0  0.68370  0.80923  0.51010  1.0000
  H   H2175     1.0  0.66188  0.69938  0.56967  1.0000
  H   H2176     1.0  0.73148  0.70560  0.59187  1.0000
  C   C2193     1.0  0.62445  0.87759  0.49807  1.0000
  C   C2194     1.0  0.89634  0.97829  0.68318  1.0000
  H   H2177     1.0  0.63203  0.98909  0.59964  1.0000
  H   H2178     1.0  0.69240  0.87770  0.55509  1.0000
  S   S738      1.0  0.64588  0.73785  0.58237  1.0000
  C   C2195     1.0  0.62067  0.84381  0.51466  1.0000
  C   C2196     1.0  0.63931  0.71351  0.59103  1.0000
  H   H2179     1.0  0.92886  0.95996  0.62908  1.0000
  S   S739      1.0  0.71995  0.75692  0.51849  1.0000
  H   H2180     1.0  0.64143  0.90935  0.65952  1.0000
  H   H2181     1.0  0.79169  0.75984  0.58893  1.0000
  H   H2182     1.0  0.97443  0.91147  0.65211  1.0000
  C   C2197     1.0  0.51990  0.98136  0.73050  1.0000
  C   C2198     1.0  0.60223  0.87261  0.52997  1.0000
  H   H2183     1.0  0.64809  0.71139  0.49086  1.0000
  H   H2184     1.0  0.68470  0.84286  0.56994  1.0000
  C   C2199     1.0  0.96734  0.92759  0.64900  1.0000
  C   C2200     1.0  0.62371  0.71036  0.60746  1.0000
  H   H2185     1.0  0.71763  0.88304  0.52419  1.0000
  Fe  Fe371     1.0  0.67318  0.74272  0.55795  1.0000
  C   C2201     1.0  0.77334  0.85991  0.49354  1.0000
  H   H2186     1.0  0.76914  0.92897  0.57494  1.0000
  H   H2187     1.0  0.77723  0.73513  0.58107  1.0000
  C   C2202     1.0  0.92569  0.91518  0.70676  1.0000
  C   C2203     1.0  0.75493  0.75821  0.56750  1.0000
  H   H2188     1.0  0.76695  0.75470  0.50030  1.0000
  H   H2189     1.0  0.94653  0.95806  0.72113  1.0000
  H   H2190     1.0  0.56826  0.69416  0.59490  1.0000
  C   C2204     1.0  0.65278  0.87966  0.60609  1.0000
  H   H2191     1.0  0.63741  0.81945  0.49999  1.0000
  H   H2192     1.0  0.52915  0.66326  0.70640  1.0000
  C   C2205     1.0  0.77105  0.75141  0.57703  1.0000
  H   H2193     1.0  0.65185  0.87307  0.59489  1.0000
  H   H2194     1.0  0.79537  0.92805  0.63716  1.0000
  S   S740      1.0  0.58107  0.93256  0.51334  1.0000
  C   C2206     1.0  0.72940  0.81559  0.52043  1.0000
  H   H2195     1.0  0.65299  0.66502  0.58326  1.0000
  H   H2196     1.0  0.92858  0.97340  0.68295  1.0000
  H   H2197     1.0  0.55125  0.97096  0.73364  1.0000
  S   S741      1.0  0.58678  0.96579  0.70483  1.0000
  C   C2207     1.0  0.77335  0.91847  0.58806  1.0000
  H   H2198     1.0  0.94238  0.98539  0.63695  1.0000
  H   H2199     1.0  0.73405  0.85420  0.50827  1.0000
  Fe  Fe372     1.0  0.70226  0.73288  0.52172  1.0000
  C   C2208     1.0  0.85996  0.98521  0.68155  1.0000
  S   S742      1.0  0.76640  0.87965  0.50603  1.0000
  H   H2200     1.0  0.70196  0.81419  0.55373  1.0000
  H   H2201     1.0  0.67373  0.74533  0.60919  1.0000
  H   H2202     1.0  0.97360  0.94737  0.71926  1.0000
  C   C2209     1.0  0.99677  0.92835  0.60541  1.0000
  N   N182      1.0  0.61588  0.86449  0.51375  1.0000
  H   H2203     1.0  0.61977  0.94482  0.49898  1.0000
  C   C2210     1.0  0.97961  0.93873  0.59770  1.0000
  H   H2204     1.0  0.56741  0.95063  0.63568  1.0000
  C   C2211     1.0  0.63625  0.89626  0.63237  1.0000
  S   S743      1.0  0.94748  0.91146  0.73314  1.0000
  N   N183      1.0  0.68491  0.69379  0.61393  1.0000
  C   C2212     1.0  0.79657  0.93107  0.62196  1.0000
  Fe  Fe373     1.0  0.68907  0.77660  0.52651  1.0000
  S   S744      1.0  0.68859  0.76769  0.55770  1.0000
  H   H2205     1.0  0.98037  0.98723  0.59888  1.0000
  H   H2206     1.0  0.90883  0.87544  0.72860  1.0000
  S   S745      1.0  0.71533  0.71520  0.49860  1.0000
  H   H2207     1.0  0.96431  0.96009  0.69820  1.0000
  H   H2208     1.0  0.51833  0.66412  0.73086  1.0000
  H   H2209     1.0  0.97026  0.93020  0.59465  1.0000
  H   H2210     1.0  0.60276  0.98521  0.59209  1.0000
  N   N184      1.0  0.87984  0.99137  0.67669  1.0000
  H   H2211     1.0  0.98788  0.93701  0.66052  1.0000
  C   C2213     1.0  0.78365  0.82382  0.49231  1.0000
  C   C2214     1.0  0.88744  0.92563  0.73063  1.0000
  H   H2212     1.0  0.53224  0.67187  0.61021  1.0000
  C   C2215     1.0  0.71523  0.70774  0.59867  1.0000
  C   C2216     1.0  0.90555  0.92263  0.73693  1.0000
  H   H2213     1.0  0.71120  0.74050  0.59456  1.0000
  H   H2214     1.0  0.94454  0.87009  0.72848  1.0000
  C   C2217     1.0  0.97386  0.96005  0.59504  1.0000
  H   H2215     1.0  0.67747  0.66771  0.60980  1.0000
  C   C2218     1.0  0.98521  0.97072  0.60019  1.0000
  C   C2219     1.0  0.70544  0.69103  0.60560  1.0000
  H   H2216     1.0  0.70511  0.92906  0.49424  1.0000
  H   H2217     1.0  0.62519  0.99170  0.62390  1.0000
  N   N185      1.0  0.56496  0.66317  0.60248  1.0000
  C   C2220     1.0  0.54534  0.66089  0.60454  1.0000
  H   H2218     1.0  0.89712  0.80096  0.92921  1.0000
  C   C2221     1.0  0.79400  0.68311  0.85338  1.0000
  H   H2219     1.0  0.85508  0.68192  0.98757  1.0000
  H   H2220     1.0  0.84403  0.86383  0.91664  1.0000
  H   H2221     1.0  0.95263  0.94918  0.85421  1.0000
  H   H2222     1.0  0.81197  0.83402  0.97525  1.0000
  C   C2222     1.0  0.89379  0.81437  0.91807  1.0000
  H   H2223     1.0  0.88106  0.86229  0.87911  1.0000
  C   C2223     1.0  0.93842  0.71516  0.95512  1.0000
  S   S746      1.0  0.75010  0.67180  0.89783  1.0000
  N   N186      1.0  0.86201  0.68183  0.95809  1.0000
  H   H2224     1.0  0.57934  0.96921  0.77435  1.0000
  C   C2224     1.0  0.92653  0.69407  0.91939  1.0000
  S   S747      1.0  0.73303  0.68794  0.85866  1.0000
  H   H2225     1.0  0.73872  0.78442  0.89374  1.0000
  H   H2226     1.0  0.95283  0.86507  0.75004  1.0000
  S   S748      1.0  0.70487  0.70409  0.89677  1.0000
  H   H2227     1.0  0.75303  0.74925  0.95859  1.0000
  Fe  Fe374     1.0  0.70128  0.68687  0.87660  1.0000
  S   S749      1.0  0.67663  0.69412  0.85965  1.0000
  Fe  Fe375     1.0  0.73768  0.70205  0.88040  1.0000
  S   S750      1.0  0.75530  0.72769  0.87077  1.0000
  H   H2228     1.0  0.87274  0.88415  0.74565  1.0000
  C   C2225     1.0  0.69565  0.70910  0.98027  1.0000
  Fe  Fe376     1.0  0.86377  0.75491  0.89860  1.0000
  S   S751      1.0  0.83727  0.77341  0.88540  1.0000
  S   S752      1.0  0.88495  0.72653  0.89053  1.0000
  Fe  Fe377     1.0  0.85226  0.77805  0.93016  1.0000
  S   S753      1.0  0.82424  0.79804  0.92036  1.0000
  S   S754      1.0  0.86514  0.77651  0.95495  1.0000
  Fe  Fe378     1.0  0.81892  0.76932  0.91548  1.0000
  S   S755      1.0  0.79018  0.75600  0.92688  1.0000
  Fe  Fe379     1.0  0.84519  0.80037  0.89116  1.0000
  S   S756      1.0  0.84440  0.83207  0.87197  1.0000
  S   S757      1.0  0.84511  0.74933  0.92818  1.0000
  S   S758      1.0  0.87354  0.78202  0.90153  1.0000
  Fe  Fe380     1.0  0.93112  0.93205  0.79661  1.0000
  S   S759      1.0  0.94868  0.90656  0.81559  1.0000
  S   S760      1.0  0.91553  0.96262  0.80404  1.0000
  Fe  Fe381     1.0  0.94378  0.91010  0.76416  1.0000
  S   S761      1.0  0.96249  0.88296  0.78024  1.0000
  N   N187      1.0  0.73219  0.76112  0.94035  1.0000
  Fe  Fe382     1.0  0.93582  0.88599  0.80522  1.0000
  S   S762      1.0  0.92901  0.85499  0.82207  1.0000
  Fe  Fe383     1.0  0.97353  0.90562  0.78915  1.0000
  H   H2229     1.0  0.87282  0.70685  0.93700  1.0000
  S   S763      1.0  0.91602  0.91164  0.78831  1.0000
  S   S764      1.0  0.95694  0.93254  0.77095  1.0000
  H   H2230     1.0  0.97430  0.96690  0.74168  1.0000
  C   C2226     1.0  0.91387  0.74102  0.93939  1.0000
  C   C2227     1.0  0.53045  0.97355  0.76044  1.0000
  C   C2228     1.0  0.90941  0.82037  0.90276  1.0000
  C   C2229     1.0  0.68772  0.71302  0.96405  1.0000
  H   H2231     1.0  0.88687  0.69541  0.95566  1.0000
  N   N188      1.0  0.86918  0.84244  0.90486  1.0000
  H   H2232     1.0  0.54612  0.96956  0.79843  1.0000
  C   C2230     1.0  0.72216  0.75999  0.90729  1.0000
  C   C2231     1.0  0.88025  0.87590  0.77322  1.0000
  C   C2232     1.0  0.96727  0.98571  0.78518  1.0000
  C   C2233     1.0  0.95371  0.97217  0.79197  1.0000
  C   C2234     1.0  0.72152  0.74696  0.94069  1.0000
  H   H2233     1.0  0.95979  0.95583  0.79500  1.0000
  C   C2235     1.0  0.73825  0.77456  0.92376  1.0000
  H   H2234     1.0  0.92506  0.81159  0.90177  1.0000
  H   H2235     1.0  0.70806  0.73473  0.92452  1.0000
  H   H2236     1.0  0.84548  0.86381  0.89216  1.0000
  H   H2237     1.0  0.54255  0.96848  0.76819  1.0000
  H   H2238     1.0  0.92140  0.70232  0.90598  1.0000
  H   H2239     1.0  0.96462  0.94702  0.82996  1.0000
  H   H2240     1.0  0.82831  0.80887  0.95467  1.0000
  H   H2241     1.0  0.67753  0.72752  0.96001  1.0000
  C   C2236     1.0  0.50998  0.97909  0.76987  1.0000
  C   C2237     1.0  0.86772  0.83833  0.85745  1.0000
  C   C2238     1.0  0.88584  0.82339  0.85590  1.0000
  C   C2239     1.0  0.90442  0.82884  0.84494  1.0000
  C   C2240     1.0  0.90513  0.84927  0.83556  1.0000
  C   C2241     1.0  0.88702  0.86431  0.83710  1.0000
  C   C2242     1.0  0.86832  0.85878  0.84788  1.0000
  H   H2242     1.0  0.88554  0.80757  0.86299  1.0000
  H   H2243     1.0  0.91835  0.81711  0.84372  1.0000
  H   H2244     1.0  0.88742  0.88012  0.82996  1.0000
  H   H2245     1.0  0.85432  0.87043  0.84902  1.0000
  C   C2243     1.0  0.76697  0.73340  0.88633  1.0000
  C   C2244     1.0  0.77842  0.74891  0.87933  1.0000
  C   C2245     1.0  0.78667  0.75504  0.89151  1.0000
  C   C2246     1.0  0.78328  0.74589  0.91087  1.0000
  C   C2247     1.0  0.77237  0.72989  0.91781  1.0000
  C   C2248     1.0  0.76441  0.72349  0.90553  1.0000
  H   H2246     1.0  0.78051  0.75661  0.86449  1.0000
  H   H2247     1.0  0.79485  0.76751  0.88604  1.0000
  H   H2248     1.0  0.76970  0.72272  0.93277  1.0000
  H   H2249     1.0  0.75568  0.71145  0.91106  1.0000
  C   C2249     1.0  0.70614  0.67951  0.95816  1.0000
  C   C2250     1.0  0.69325  0.69839  0.95282  1.0000
  H   H2250     1.0  0.94643  0.84453  0.74358  1.0000
  N   N189      1.0  0.92675  0.70837  0.93053  1.0000
  H   H2251     1.0  0.68712  0.70150  0.94031  1.0000
  H   H2252     1.0  0.71744  0.73589  0.95369  1.0000
  H   H2253     1.0  0.99001  0.95748  0.84606  1.0000
  H   H2254     1.0  0.57063  0.69757  0.82788  1.0000
  C   C2251     1.0  0.93247  0.97973  0.79540  1.0000
  H   H2255     1.0  0.94749  0.71001  0.96591  1.0000
  H   H2256     1.0  0.86444  0.87981  0.78084  1.0000
  C   C2252     1.0  0.65743  0.67686  0.84222  1.0000
  H   H2257     1.0  0.90477  0.73250  0.91798  1.0000
  C   C2253     1.0  0.71365  0.67539  0.97464  1.0000
  S   S765      1.0  0.83001  0.66195  0.90432  1.0000
  H   H2258     1.0  0.65672  0.69122  0.83179  1.0000
  Fe  Fe384     1.0  0.71710  0.67271  0.91310  1.0000
  C   C2254     1.0  0.83511  0.80876  0.96604  1.0000
  C   C2255     1.0  0.85300  0.79441  0.96927  1.0000
  H   H2259     1.0  0.94214  0.68464  0.91545  1.0000
  C   C2256     1.0  0.84793  0.85403  0.90617  1.0000
  C   C2257     1.0  0.87364  0.82564  0.91887  1.0000
  C   C2258     1.0  0.60215  0.67860  0.85904  1.0000
  C   C2259     1.0  0.57352  0.66741  0.84637  1.0000
  C   C2260     1.0  0.71621  0.74624  0.92424  1.0000
  C   C2261     1.0  0.73847  0.76074  0.95758  1.0000
  C   C2262     1.0  0.84542  0.67999  0.89940  1.0000
  C   C2263     1.0  0.83624  0.69972  0.90242  1.0000
  C   C2264     1.0  0.84835  0.71416  0.89916  1.0000
  C   C2265     1.0  0.86973  0.70892  0.89301  1.0000
  C   C2266     1.0  0.87889  0.68931  0.88956  1.0000
  C   C2267     1.0  0.81145  0.70103  0.86609  1.0000
  H   H2260     1.0  0.81975  0.70385  0.90749  1.0000
  H   H2261     1.0  0.84100  0.72933  0.90148  1.0000
  H   H2262     1.0  0.89539  0.68525  0.88456  1.0000
  H   H2263     1.0  0.86156  0.82075  0.93069  1.0000
  H   H2264     1.0  0.80323  0.71559  0.85829  1.0000
  C   C2268     1.0  0.87136  0.69990  0.95244  1.0000
  N   N190      1.0  0.92085  0.86657  0.75366  1.0000
  H   H2265     1.0  0.93908  0.96187  0.83542  1.0000
  S   S766      1.0  0.91764  0.66095  0.96766  1.0000
  C   C2269     1.0  0.99172  0.98923  0.83638  1.0000
  C   C2270     1.0  0.94221  0.86119  0.74344  1.0000
  H   H2266     1.0  0.90465  0.92437  0.75101  1.0000
  H   H2267     1.0  0.99059  0.90660  0.82407  1.0000
  C   C2271     1.0  0.90478  0.83773  0.88868  1.0000
  H   H2268     1.0  0.90397  0.75613  0.93771  1.0000
  H   H2269     1.0  0.64291  0.66311  0.82808  1.0000
  C   C2272     1.0  0.91439  0.72755  0.92831  1.0000
  H   H2270     1.0  0.92536  0.74485  0.96193  1.0000
  C   C2273     1.0  0.90537  0.87330  0.74394  1.0000
  H   H2271     1.0  0.59646  0.70753  0.83924  1.0000
  H   H2272     1.0  0.72645  0.75658  0.97050  1.0000
  C   C2274     1.0  0.88450  0.84882  0.89011  1.0000
  C   C2275     1.0  0.92596  0.73475  0.95289  1.0000
  C   C2276     1.0  0.53540  0.97490  0.74078  1.0000
  N   N191      1.0  0.96338  0.97549  0.83607  1.0000
  C   C2277     1.0  0.82587  0.82297  0.97768  1.0000
  H   H2273     1.0  0.80384  0.69891  0.88142  1.0000
  H   H2274     1.0  0.83275  0.74173  0.97022  1.0000
  H   H2275     1.0  0.91673  0.84248  0.87657  1.0000
  H   H2276     1.0  0.91599  0.68357  0.92786  1.0000
  N   N192      1.0  0.81108  0.68344  0.85901  1.0000
  H   H2277     1.0  0.83711  0.84336  0.91051  1.0000
  H   H2278     1.0  0.74770  0.78505  0.92324  1.0000
  C   C2278     1.0  0.93853  0.70204  0.94384  1.0000
  C   C2279     1.0  0.86178  0.67196  0.94470  1.0000
  H   H2279     1.0  0.82743  0.70273  0.86444  1.0000
  H   H2280     1.0  0.87533  0.78306  0.98683  1.0000
  C   C2280     1.0  0.58848  0.99077  0.78477  1.0000
  C   C2281     1.0  0.57815  0.68693  0.83874  1.0000
  C   C2282     1.0  0.79999  0.75333  0.97688  1.0000
  C   C2283     1.0  0.70905  0.66978  0.81868  1.0000
  H   H2281     1.0  0.71889  0.75906  0.89425  1.0000
  C   C2284     1.0  0.91642  0.86389  0.77300  1.0000
  C   C2285     1.0  0.73327  0.77425  0.90701  1.0000
  H   H2282     1.0  0.94777  0.68658  0.94610  1.0000
  H   H2283     1.0  0.79685  0.74688  0.96659  1.0000
  H   H2284     1.0  0.76815  0.76656  0.98731  1.0000
  H   H2285     1.0  0.86185  0.71185  0.96033  1.0000
  C   C2286     1.0  0.86149  0.79415  0.98425  1.0000
  H   H2286     1.0  0.92861  0.85819  0.78082  1.0000
  C   C2287     1.0  0.85439  0.67441  0.97692  1.0000
  C   C2288     1.0  0.89609  0.86857  0.78304  1.0000
  C   C2289     1.0  0.95442  0.95755  0.83913  1.0000
  H   H2287     1.0  0.86827  0.67750  0.92985  1.0000
  C   C2290     1.0  0.82012  0.75045  0.97883  1.0000
  C   C2291     1.0  0.66644  0.67414  0.85763  1.0000
  C   C2292     1.0  0.86671  0.67489  0.89264  1.0000
  H   H2288     1.0  0.98370  0.97967  0.78265  1.0000
  H   H2289     1.0  0.78105  0.69601  0.85359  1.0000
  H   H2290     1.0  0.77933  0.66585  0.84296  1.0000
  H   H2291     1.0  0.89272  0.86656  0.79834  1.0000
  C   C2293     1.0  0.59260  0.69250  0.84511  1.0000
  C   C2294     1.0  0.82726  0.66698  0.85906  1.0000
  H   H2292     1.0  0.74098  0.77597  0.95745  1.0000
  H   H2293     1.0  0.84066  0.66706  0.86386  1.0000
  C   C2295     1.0  0.70868  0.69029  0.98552  1.0000
  C   C2296     1.0  0.57527  0.97854  0.78485  1.0000
  H   H2294     1.0  0.61351  0.68270  0.86405  1.0000
  C   C2297     1.0  0.55661  0.97890  0.79817  1.0000
  H   H2295     1.0  0.69589  0.67693  0.81165  1.0000
  C   C2298     1.0  0.98218  0.97266  0.84008  1.0000
  S   S767      1.0  0.50389  0.97918  0.79418  1.0000
  H   H2296     1.0  0.72365  0.66916  0.80775  1.0000
  C   C2299     1.0  0.88487  0.87820  0.75354  1.0000
  H   H2297     1.0  0.70867  0.68006  0.82792  1.0000
  H   H2298     1.0  0.98684  0.91117  0.74201  1.0000
  H   H2299     1.0  0.72356  0.66076  0.97885  1.0000
  S   S768      1.0  0.71271  0.66071  0.94469  1.0000
  C   C2300     1.0  0.78395  0.76446  0.98833  1.0000
  H   H2300     1.0  0.87263  0.92971  0.73989  1.0000
  C   C2301     1.0  0.49940  0.98642  0.74001  1.0000
  C   C2302     1.0  0.79294  0.66611  0.84734  1.0000
  H   H2301     1.0  0.56219  0.66326  0.84140  1.0000
  C   C2303     1.0  0.55131  0.99157  0.81106  1.0000
  H   H2302     1.0  0.60275  0.99070  0.77408  1.0000
  H   H2303     1.0  0.53663  0.99219  0.82121  1.0000
  C   C2304     1.0  0.64961  0.66097  0.84009  1.0000
  H   H2304     1.0  0.56998  0.66078  0.74703  1.0000
