data_image0
_chemical_formula_structural       HCSCHC2FeS2FeS2FeSFeS3FeS2FeS2FeSFeS3FeS2FeS2FeSFeS3CHC6H5C4SNH2C3H3C7H4C3HCH4CNH2C2H2C5H3C6H6CHC2HCHC3H2CNC6H8NCHCH2C2H3CH4C2HCSH3CHC4HC3FeC3NCHC3HNHFeH2C2H4CH2CH4FeC4HNHCHCNH2C3HCHCHSCH2NC2H3C2H3CSH3CHCH2CHSH4C2NHC3H2C2HCH4SHCHC3S2FeSFeS2FeSHFeSFeS3HCHSHC2HFeSHSH2S2H3C3FeHFeHFeHC2HCHC7H4C6H4FeHS2C7H4C2H2SFeC2NHC3SHC2HSHNC6H6C2HCNC6H8NSH2CFeH4C2H2NHC3H2CHC3HFeS4CFeSFeHS2FeS2H2C3H2FeHC4HCFeSH3CHC3HC2SH6FeSC3SFeS2HSFeSFeS3NC2HC3H4C2FeH2SC8H3C2HCH3C3H2SH2CHCSH3NCNFeCSHFeC3FeS2FeS2FeCFeS3HCH2C2SHC2NC2SC2H2CH3CHCHC4NHC2SC5H5NSH5CH2CH2C4HCHCH2FeC2HCFeHCHS2HC2H4CHFeS2FeS2FeS2FeSHFeSFeCS2FeS2HFeSFeS2FeS2FeS2FeSFeS3FeS2FeS2FeSFeS3C3H5C2H2C6H4CHC2HCHCHC6H4CHSC4H2C6H5CH3C6H4C6H3NHCHC2H2CH5CSFeCHC3HC2HC3HCHNHNCHC2HCH2NCHCH6CH5C2H5C3HNC6H5SHSC4H2CH3NCHSH2CFeHC2H3C3H2SC2HCHCHSH2NHNC2HFeCNH6C2NCHCH5CH2CHCH2NC5H2CHC2HC2HCHCSHFeS2FeS2FeSFeHS2FeS2FeS2FeSFeS3FeS2FeS2FeSFeS3C2HFeCHCH2C6H5CH2CHC6H4C2H3C3H2C5H3C6H3C3H2C3H4CH2CH5C2NCHCH2SH2C2HCHSH2C3H3C2H3CNC2H5C2HCHCHCH2NC6H5C3NC3HCHNHSH3C3H2CH2CHCHCHC2NHCH2C4HNCHCHCH5S2FeS2FeS2FeSFeS3FeCSHCSFeSH2SNH3CFeSFeS2FeHFeC2S2HCH2CHS2H2CNC6H4CHC2HC3HC6H4SHC2H3C7H2FeHC2HC3FeCFeCHSH2SH2C3FeSHS2NC6H3CH2CHNC6H6C2HCHCSH2FeH2C2H3C2HC2SH3CSCFeNC6H9CFeSCHCH2CNHSC2H2CHNC6H2NHSH6SCSCHCSHFeHSCSCH2CHCH3CH2SFeS2C2SH2CH6CH3NC4HCH2CFeC2HC6NHC2NC2H2SHFeSCSFeS2FeCSCHFeS3FeS2FeS2FeSFeS3CH3CSC3HCH4C2H3CH4C6H3C6H4CHC2HCH2CH4CHCHC2H2C2HNHCHC4H2C2HC2H3CH2NHNFeC4H3NCHC3H2NC2HCH2CNHCHCSHCHNCH4C4HC2FeS2Fe2S2FeSCFeS2FeSFeHSCFeS3FeHFeHSFeS2FeS2FeSFeS3FeS2FeS2FeHFeS3CH4C6H3C6H4CSCH2C6H4C6H4C4SH4CHC7H4C6HC2HS2CH3C2HCH2C2NHNHSH2NHNHCNCH4NC6H8C2HCH2CSHFeH2C6H2S2C3H6CHCH3CHC2H2C4SHCHC3SCSCFeSH2CNCSHCHCHCH3CHC3H2CH5CH2CHC4H
_chemical_formula_sum              "H768 C768 S256 Fe128 N64"
_cell_length_a       41.3737
_cell_length_b       40.7369
_cell_length_c       79.1912
_cell_angle_alpha    90.5741
_cell_angle_beta     89.2989
_cell_angle_gamma    87.1971

_space_group_name_H-M_alt    "P 1"
_space_group_IT_number       1

loop_
  _space_group_symop_operation_xyz
  'x, y, z'

loop_
  _atom_site_type_symbol
  _atom_site_label
  _atom_site_symmetry_multiplicity
  _atom_site_fract_x
  _atom_site_fract_y
  _atom_site_fract_z
  _atom_site_occupancy
  H   H1        1.0  0.17491  0.47272  0.05270  1.0000
  C   C1        1.0  0.11665  0.19965  0.28506  1.0000
  S   S1        1.0  0.45285  0.36794  0.34434  1.0000
  C   C2        1.0  0.28608  0.11904  0.27115  1.0000
  H   H2        1.0  0.40480  0.44252  0.29776  1.0000
  C   C3        1.0  0.25833  0.09968  0.24603  1.0000
  C   C4        1.0  0.02913  0.23865  0.22065  1.0000
  Fe  Fe1       1.0  0.16127  0.14081  0.24164  1.0000
  S   S2        1.0  0.18694  0.18536  0.23377  1.0000
  S   S3        1.0  0.15920  0.12645  0.26903  1.0000
  Fe  Fe2       1.0  0.13794  0.12689  0.20591  1.0000
  S   S4        1.0  0.16251  0.17042  0.19544  1.0000
  S   S5        1.0  0.10431  0.10131  0.18826  1.0000
  Fe  Fe3       1.0  0.20387  0.15408  0.21180  1.0000
  S   S6        1.0  0.25518  0.15221  0.20221  1.0000
  Fe  Fe4       1.0  0.14306  0.19728  0.21845  1.0000
  S   S7        1.0  0.12568  0.25037  0.21777  1.0000
  S   S8        1.0  0.18114  0.10809  0.22055  1.0000
  S   S9        1.0  0.11561  0.15516  0.22805  1.0000
  Fe  Fe5       1.0  0.12979  0.37320  0.14995  1.0000
  S   S10       1.0  0.18169  0.38610  0.14925  1.0000
  S   S11       1.0  0.08867  0.41024  0.15459  1.0000
  Fe  Fe6       1.0  0.14562  0.30098  0.14161  1.0000
  S   S12       1.0  0.19901  0.30793  0.13990  1.0000
  S   S13       1.0  0.12437  0.25252  0.13596  1.0000
  Fe  Fe7       1.0  0.19120  0.33911  0.16345  1.0000
  S   S14       1.0  0.21358  0.33686  0.18942  1.0000
  Fe  Fe8       1.0  0.18400  0.35415  0.12589  1.0000
  S   S15       1.0  0.20180  0.36936  0.10025  1.0000
  S   S16       1.0  0.13845  0.32870  0.16593  1.0000
  S   S17       1.0  0.13133  0.34424  0.12589  1.0000
  Fe  Fe9       1.0  0.36612  0.29461  0.27254  1.0000
  S   S18       1.0  0.40047  0.25167  0.27723  1.0000
  S   S19       1.0  0.34443  0.32256  0.29507  1.0000
  Fe  Fe10      1.0  0.37408  0.28817  0.23434  1.0000
  S   S20       1.0  0.41080  0.24567  0.23630  1.0000
  S   S21       1.0  0.36052  0.30339  0.20781  1.0000
  Fe  Fe11      1.0  0.37606  0.22783  0.25569  1.0000
  S   S22       1.0  0.36426  0.17473  0.25556  1.0000
  Fe  Fe12      1.0  0.43217  0.27389  0.25760  1.0000
  S   S23       1.0  0.48345  0.28009  0.26678  1.0000
  S   S24       1.0  0.33827  0.26844  0.25266  1.0000
  S   S25       1.0  0.39867  0.31841  0.25394  1.0000
  C   C5        1.0  0.44902  0.16642  0.24249  1.0000
  H   H3        1.0  0.24882  0.19666  0.28220  1.0000
  C   C6        1.0  0.25470  0.32799  0.19404  1.0000
  C   C7        1.0  0.27837  0.32341  0.18138  1.0000
  C   C8        1.0  0.31085  0.31637  0.18577  1.0000
  C   C9        1.0  0.31972  0.31319  0.20278  1.0000
  C   C10       1.0  0.29593  0.31746  0.21540  1.0000
  C   C11       1.0  0.26364  0.32516  0.21104  1.0000
  H   H4        1.0  0.27175  0.32569  0.16826  1.0000
  H   H5        1.0  0.32919  0.31324  0.17595  1.0000
  H   H6        1.0  0.30251  0.31542  0.22853  1.0000
  H   H7        1.0  0.24544  0.32884  0.22090  1.0000
  H   H8        1.0  0.08265  0.04505  0.03555  1.0000
  C   C12       1.0  0.11966  0.42281  0.08930  1.0000
  C   C13       1.0  0.06390  0.22899  0.13311  1.0000
  C   C14       1.0  0.08210  0.25535  0.13820  1.0000
  C   C15       1.0  0.06666  0.28280  0.14610  1.0000
  S   S26       1.0  0.03074  0.08490  0.05150  1.0000
  N   N1        1.0  0.26156  0.10195  0.26442  1.0000
  H   H9        1.0  0.07571  0.20786  0.12685  1.0000
  H   H10       1.0  0.08053  0.30319  0.15011  1.0000
  C   C16       1.0  0.12434  0.45710  0.13917  1.0000
  C   C17       1.0  0.09497  0.44962  0.14677  1.0000
  C   C18       1.0  0.07035  0.47418  0.14862  1.0000
  H   H11       1.0  0.26586  0.11478  0.31278  1.0000
  H   H12       1.0  0.14346  0.43843  0.13759  1.0000
  H   H13       1.0  0.04780  0.46854  0.15466  1.0000
  C   C19       1.0  0.50701  0.16634  0.23900  1.0000
  C   C20       1.0  0.28482  0.15861  0.21738  1.0000
  C   C21       1.0  0.27898  0.18041  0.23098  1.0000
  C   C22       1.0  0.30369  0.18619  0.24248  1.0000
  C   C23       1.0  0.33386  0.16928  0.24072  1.0000
  C   C24       1.0  0.33940  0.14694  0.22737  1.0000
  C   C25       1.0  0.31515  0.14215  0.21553  1.0000
  H   H14       1.0  0.25573  0.19337  0.23244  1.0000
  H   H15       1.0  0.29922  0.20327  0.25290  1.0000
  H   H16       1.0  0.36263  0.13374  0.22599  1.0000
  H   H17       1.0  0.31978  0.12536  0.20499  1.0000
  C   C26       1.0  0.08355  0.25793  0.21845  1.0000
  C   C27       1.0  0.06272  0.23231  0.22073  1.0000
  C   C28       1.0  0.15634  0.49248  0.05279  1.0000
  H   H18       1.0  0.40761  0.41997  0.31734  1.0000
  C   C29       1.0  0.10772  0.38465  0.19893  1.0000
  H   H19       1.0  0.19296  0.38218  0.06476  1.0000
  H   H20       1.0  0.07232  0.20752  0.22223  1.0000
  H   H21       1.0  0.15423  0.04943  0.19434  1.0000
  H   H22       1.0  0.35353  0.22872  0.35058  1.0000
  C   C30       1.0  0.11501  0.06367  0.17793  1.0000
  N   N2        1.0  0.48184  0.18594  0.26495  1.0000
  H   H23       1.0  0.13383  0.19040  0.16093  1.0000
  H   H24       1.0  0.13111  0.21131  0.25957  1.0000
  C   C31       1.0  0.17145  0.39202  0.08932  1.0000
  C   C32       1.0  0.14518  0.40718  0.09810  1.0000
  H   H25       1.0  0.16117  0.43948  0.18547  1.0000
  H   H26       1.0  0.14462  0.40704  0.11173  1.0000
  C   C33       1.0  0.19657  0.16661  0.31100  1.0000
  C   C34       1.0  0.17747  0.14875  0.30001  1.0000
  C   C35       1.0  0.18348  0.14893  0.28256  1.0000
  C   C36       1.0  0.20928  0.16622  0.27621  1.0000
  C   C37       1.0  0.22863  0.18368  0.28719  1.0000
  H   H27       1.0  0.19182  0.16637  0.32444  1.0000
  H   H28       1.0  0.15796  0.13488  0.30503  1.0000
  H   H29       1.0  0.21526  0.16515  0.26296  1.0000
  C   C38       1.0  0.42186  0.35173  0.33233  1.0000
  C   C39       1.0  0.43035  0.33285  0.31794  1.0000
  C   C40       1.0  0.40659  0.32343  0.30667  1.0000
  C   C41       1.0  0.37408  0.33276  0.30971  1.0000
  C   C42       1.0  0.36545  0.35132  0.32424  1.0000
  C   C43       1.0  0.38926  0.36046  0.33567  1.0000
  H   H30       1.0  0.45553  0.32616  0.31525  1.0000
  H   H31       1.0  0.41370  0.30979  0.29538  1.0000
  H   H32       1.0  0.34048  0.35944  0.32642  1.0000
  H   H33       1.0  0.38260  0.37552  0.34663  1.0000
  H   H34       1.0  0.11389  0.34494  0.08258  1.0000
  H   H35       1.0  0.32039  0.32989  0.35387  1.0000
  C   C44       1.0  0.24037  0.09278  0.29228  1.0000
  H   H36       1.0  0.04382  0.16604  0.05633  1.0000
  C   C45       1.0  0.11998  0.42312  0.07162  1.0000
  C   C46       1.0  0.26515  0.11041  0.29924  1.0000
  H   H37       1.0  0.15215  0.49490  0.12796  1.0000
  C   C47       1.0  0.33932  0.28003  0.35377  1.0000
  H   H38       1.0  0.11088  0.17053  0.14512  1.0000
  C   C48       1.0  0.46399  0.39980  0.30499  1.0000
  C   C49       1.0  0.14676  0.40893  0.06280  1.0000
  C   C50       1.0  0.03698  0.29640  0.21612  1.0000
  H   H39       1.0  0.06212  0.13828  0.16299  1.0000
  H   H40       1.0  0.09982  0.23188  0.17304  1.0000
  C   C51       1.0  0.13972  0.04224  0.18378  1.0000
  N   N3        1.0  0.26316  0.23946  0.19397  1.0000
  C   C52       1.0  0.24921  0.23671  0.17848  1.0000
  C   C53       1.0  0.24472  0.24874  0.20783  1.0000
  C   C54       1.0  0.21605  0.24394  0.17650  1.0000
  C   C55       1.0  0.21150  0.25611  0.20631  1.0000
  C   C56       1.0  0.19718  0.25382  0.19052  1.0000
  C   C57       1.0  0.29803  0.23199  0.19556  1.0000
  H   H41       1.0  0.26380  0.22910  0.16754  1.0000
  H   H42       1.0  0.25577  0.25126  0.22007  1.0000
  H   H43       1.0  0.20510  0.24225  0.16416  1.0000
  H   H44       1.0  0.19699  0.26431  0.21718  1.0000
  H   H45       1.0  0.17157  0.26020  0.18917  1.0000
  H   H46       1.0  0.30357  0.20542  0.19309  1.0000
  H   H47       1.0  0.31175  0.24658  0.18640  1.0000
  H   H48       1.0  0.30690  0.23817  0.20836  1.0000
  N   N4        1.0  0.29883  0.30129  0.33472  1.0000
  C   C58       1.0  0.08008  0.21532  0.17355  1.0000
  H   H49       1.0  0.12864  0.48729  0.17393  1.0000
  C   C59       1.0  0.03328  0.45638  0.10922  1.0000
  H   H50       1.0  0.10657  0.35893  0.20215  1.0000
  H   H51       1.0  0.05652  0.39581  0.20274  1.0000
  C   C60       1.0  0.27728  0.32832  0.32886  1.0000
  C   C61       1.0  0.31796  0.24480  0.33239  1.0000
  H   H52       1.0  0.02715  0.32109  0.21407  1.0000
  H   H53       1.0  0.28230  0.26770  0.31629  1.0000
  H   H54       1.0  0.08639  0.34510  0.03051  1.0000
  C   C62       1.0  0.04199  0.24292  0.35453  1.0000
  H   H55       1.0  0.28414  0.33500  0.31577  1.0000
  H   H56       1.0  0.25180  0.32086  0.32919  1.0000
  H   H57       1.0  0.27831  0.35052  0.33709  1.0000
  H   H58       1.0  0.50698  0.21295  0.28352  1.0000
  C   C63       1.0  0.31933  0.30598  0.34786  1.0000
  C   C64       1.0  0.46045  0.36389  0.27523  1.0000
  H   H59       1.0  0.17035  0.25187  0.26886  1.0000
  C   C65       1.0  0.05011  0.22706  0.18005  1.0000
  S   S27       1.0  0.24745  0.20523  0.31804  1.0000
  H   H60       1.0  0.14482  0.23330  0.32052  1.0000
  H   H61       1.0  0.38423  0.40458  0.30051  1.0000
  H   H62       1.0  0.05984  0.45386  0.19496  1.0000
  C   C66       1.0  0.11684  0.02591  0.05371  1.0000
  H   H63       1.0  0.43041  0.18399  0.26649  1.0000
  C   C67       1.0  0.12930  0.31582  0.03656  1.0000
  C   C68       1.0  0.11803  0.33614  0.06973  1.0000
  C   C69       1.0  0.12925  0.48915  0.13369  1.0000
  C   C70       1.0  0.29827  0.27132  0.32685  1.0000
  H   H64       1.0  0.30390  0.12971  0.26302  1.0000
  C   C71       1.0  0.22220  0.18406  0.30458  1.0000
  C   C72       1.0  0.23874  0.08904  0.27472  1.0000
  C   C73       1.0  0.05890  0.16329  0.16778  1.0000
  Fe  Fe13      1.0  0.16033  0.23835  0.36129  1.0000
  C   C74       1.0  0.45208  0.17918  0.25883  1.0000
  C   C75       1.0  0.17256  0.39360  0.07164  1.0000
  C   C76       1.0  0.11259  0.48480  0.18518  1.0000
  N   N5        1.0  0.43530  0.39917  0.29660  1.0000
  C   C77       1.0  0.43342  0.38203  0.28172  1.0000
  H   H65       1.0  0.21839  0.07685  0.26939  1.0000
  C   C78       1.0  0.15014  0.30551  0.04946  1.0000
  C   C79       1.0  0.13720  0.39718  0.19415  1.0000
  C   C80       1.0  0.07063  0.29003  0.21632  1.0000
  H   H66       1.0  0.28240  0.09858  0.23959  1.0000
  N   N6        1.0  0.11067  0.45013  0.18973  1.0000
  H   H67       1.0  0.24410  0.12154  0.24141  1.0000
  Fe  Fe14      1.0  0.08437  0.43716  0.03260  1.0000
  H   H68       1.0  0.41070  0.38159  0.27503  1.0000
  H   H69       1.0  0.24587  0.07727  0.24221  1.0000
  C   C81       1.0  0.14727  0.50772  0.03776  1.0000
  C   C82       1.0  0.13824  0.43014  0.18950  1.0000
  H   H70       1.0  0.09958  0.43450  0.09627  1.0000
  H   H71       1.0  0.17115  0.28956  0.04630  1.0000
  H   H72       1.0  0.51017  0.34846  0.27931  1.0000
  H   H73       1.0  0.30713  0.13807  0.29384  1.0000
  C   C83       1.0  0.28822  0.12359  0.28862  1.0000
  H   H74       1.0  0.12219  0.49891  0.19591  1.0000
  H   H75       1.0  0.14749  0.40928  0.04919  1.0000
  C   C84       1.0  0.07977  0.40526  0.19930  1.0000
  H   H76       1.0  0.07656  0.36419  0.06012  1.0000
  H   H77       1.0  0.22165  0.08341  0.30036  1.0000
  H   H78       1.0  0.17734  0.26272  0.29963  1.0000
  H   H79       1.0  0.04775  0.35073  0.12915  1.0000
  Fe  Fe15      1.0  0.22409  0.22124  0.34277  1.0000
  C   C85       1.0  0.10250  0.33673  0.04045  1.0000
  C   C86       1.0  0.03487  0.37450  0.13035  1.0000
  C   C87       1.0  0.47667  0.16025  0.23248  1.0000
  C   C88       1.0  0.08176  0.43821  0.19479  1.0000
  H   H80       1.0  0.02353  0.49429  0.18258  1.0000
  N   N7        1.0  0.12088  0.20557  0.30192  1.0000
  H   H81       1.0  0.08669  0.30987  0.21459  1.0000
  C   C89       1.0  0.13414  0.21645  0.27293  1.0000
  H   H82       1.0  0.49938  0.24882  0.23398  1.0000
  C   C90       1.0  0.11450  0.17280  0.15894  1.0000
  N   N8        1.0  0.08401  0.18394  0.16726  1.0000
  H   H83       1.0  0.10042  0.18120  0.28086  1.0000
  H   H84       1.0  0.31681  0.22095  0.32627  1.0000
  C   C91       1.0  0.14175  0.22852  0.30714  1.0000
  C   C92       1.0  0.33845  0.24919  0.34601  1.0000
  C   C93       1.0  0.40660  0.41762  0.30334  1.0000
  H   H85       1.0  0.05903  0.39518  0.10911  1.0000
  C   C94       1.0  0.09682  0.34710  0.05711  1.0000
  H   H86       1.0  0.08237  0.20415  0.31976  1.0000
  C   C95       1.0  0.04112  0.39974  0.11907  1.0000
  H   H87       1.0  0.04112  0.20124  0.04233  1.0000
  S   S28       1.0  0.08623  0.44094  0.06114  1.0000
  C   C96       1.0  0.16684  0.30462  0.07897  1.0000
  H   H88       1.0  0.42525  0.16180  0.23757  1.0000
  H   H89       1.0  0.07779  0.07080  0.15942  1.0000
  N   N9        1.0  0.14428  0.31559  0.06580  1.0000
  C   C97       1.0  0.09642  0.05401  0.16422  1.0000
  C   C98       1.0  0.15615  0.23923  0.27815  1.0000
  H   H90       1.0  0.15886  0.31357  0.09173  1.0000
  H   H91       1.0  0.08850  0.49585  0.18175  1.0000
  H   H92       1.0  0.12316  0.14858  0.16392  1.0000
  C   C99       1.0  0.48944  0.36335  0.28402  1.0000
  C   C100      1.0  0.16002  0.24538  0.29537  1.0000
  H   H93       1.0  0.11843  0.18048  0.32531  1.0000
  H   H94       1.0  0.14803  0.49045  0.07958  1.0000
  H   H95       1.0  0.09277  0.16514  0.30931  1.0000
  C   C101      1.0  0.10256  0.18791  0.31460  1.0000
  S   S29       1.0  0.19074  0.26607  0.34308  1.0000
  H   H96       1.0  0.45886  0.34969  0.26363  1.0000
  H   H97       1.0  0.19107  0.31442  0.07652  1.0000
  H   H98       1.0  0.16905  0.27736  0.07932  1.0000
  C   C102      1.0  0.49136  0.38159  0.29896  1.0000
  H   H99       1.0  0.51362  0.38108  0.30607  1.0000
  C   C103      1.0  0.50918  0.17897  0.25542  1.0000
  H   H100      1.0  0.04173  0.22555  0.34413  1.0000
  H   H101      1.0  0.15906  0.38134  0.19379  1.0000
  C   C104      1.0  0.02813  0.18013  0.04739  1.0000
  H   H102      1.0  0.02352  0.16318  0.03675  1.0000
  S   S30       1.0  0.10813  0.23205  0.35304  1.0000
  H   H103      1.0  0.47453  0.15090  0.21968  1.0000
  H   H104      1.0  0.46550  0.41331  0.31682  1.0000
  H   H105      1.0  0.10239  0.03438  0.06457  1.0000
  H   H106      1.0  0.48402  0.17939  0.29146  1.0000
  C   C105      1.0  0.10558  0.03162  0.03742  1.0000
  C   C106      1.0  0.03052  0.22953  0.13651  1.0000
  N   N10       1.0  0.02553  0.43003  0.12086  1.0000
  H   H107      1.0  0.03686  0.44672  0.09610  1.0000
  C   C107      1.0  0.02871  0.17412  0.17444  1.0000
  C   C108      1.0  0.03605  0.05352  0.20010  1.0000
  C   C109      1.0  0.48445  0.19943  0.28209  1.0000
  H   H108      1.0  0.03624  0.07038  0.18914  1.0000
  H   H109      1.0  0.46419  0.21771  0.28486  1.0000
  C   C110      1.0  0.14096  0.50255  0.06795  1.0000
  C   C111      1.0  0.07497  0.50606  0.14285  1.0000
  H   H110      1.0  0.05964  0.05491  0.20658  1.0000
  C   C112      1.0  0.02427  0.20635  0.18046  1.0000
  H   H111      1.0  0.05583  0.46777  0.11326  1.0000
  H   H112      1.0  0.02672  0.05132  0.16014  1.0000
  H   H113      1.0  0.02168  0.30385  0.15629  1.0000
  H   H114      1.0  0.04678  0.25230  0.18446  1.0000
  S   S31       1.0  0.19295  0.19227  0.35979  1.0000
  H   H115      1.0  0.02477  0.09999  0.08689  1.0000
  C   C113      1.0  0.03331  0.28326  0.14953  1.0000
  H   H116      1.0  0.09861  0.51617  0.09265  1.0000
  C   C114      1.0  0.10454  0.51366  0.13553  1.0000
  C   C115      1.0  0.07174  0.25075  0.36162  1.0000
  C   C116      1.0  0.48548  0.22793  0.54456  1.0000
  S   S32       1.0  0.43995  0.38440  0.42108  1.0000
  S   S33       1.0  0.45035  0.47819  0.40833  1.0000
  Fe  Fe16      1.0  0.44336  0.37709  0.37211  1.0000
  S   S34       1.0  0.36146  0.33681  0.41313  1.0000
  Fe  Fe17      1.0  0.43978  0.11138  0.46098  1.0000
  S   S35       1.0  0.39646  0.13989  0.47196  1.0000
  S   S36       1.0  0.46734  0.08694  0.65389  1.0000
  Fe  Fe18      1.0  0.48097  0.17088  0.45928  1.0000
  S   S37       1.0  0.44133  0.20428  0.47023  1.0000
  H   H117      1.0  0.47931  0.02983  0.51120  1.0000
  Fe  Fe19      1.0  0.43351  0.16299  0.48824  1.0000
  S   S38       1.0  0.42582  0.17255  0.51618  1.0000
  Fe  Fe20      1.0  0.40814  0.17814  0.45281  1.0000
  S   S39       1.0  0.37586  0.21051  0.43618  1.0000
  S   S40       1.0  0.47593  0.13182  0.47853  1.0000
  S   S41       1.0  0.44875  0.14763  0.44052  1.0000
  H   H118      1.0  0.47330  0.38955  0.62426  1.0000
  C   C117      1.0  0.46256  0.37802  0.63554  1.0000
  H   H119      1.0  0.40248  0.09582  0.54399  1.0000
  S   S42       1.0  0.49676  0.07539  0.56728  1.0000
  H   H120      1.0  0.39940  0.27339  0.41173  1.0000
  C   C118      1.0  0.37877  0.05122  0.49218  1.0000
  C   C119      1.0  0.44381  0.48355  0.45963  1.0000
  H   H121      1.0  0.50407  0.29922  0.45004  1.0000
  Fe  Fe21      1.0  0.22091  0.21426  0.38104  1.0000
  S   S43       1.0  0.23979  0.18518  0.40355  1.0000
  H   H122      1.0  0.47064  0.31245  0.63289  1.0000
  S   S44       1.0  0.18544  0.25785  0.38429  1.0000
  H   H123      1.0  0.50324  0.23607  0.37979  1.0000
  H   H124      1.0  0.43653  0.05906  0.68289  1.0000
  S   S45       1.0  0.25483  0.23900  0.36363  1.0000
  S   S46       1.0  0.47928  0.13121  0.60957  1.0000
  H   H125      1.0  0.42796  0.21946  0.40545  1.0000
  H   H126      1.0  0.38257  0.09967  0.51472  1.0000
  H   H127      1.0  0.51500  0.04992  0.69158  1.0000
  C   C120      1.0  0.47140  0.04743  0.66298  1.0000
  C   C121      1.0  0.04216  0.28721  0.38156  1.0000
  C   C122      1.0  0.51202  0.27866  0.39511  1.0000
  Fe  Fe22      1.0  0.47678  0.35694  0.40464  1.0000
  H   H128      1.0  0.42256  0.31167  0.43214  1.0000
  Fe  Fe23      1.0  0.40344  0.36443  0.40338  1.0000
  H   H129      1.0  0.50702  0.02814  0.64504  1.0000
  Fe  Fe24      1.0  0.21850  0.28138  0.36571  1.0000
  H   H130      1.0  0.35516  0.28393  0.36435  1.0000
  C   C123      1.0  0.45426  0.51513  0.46317  1.0000
  C   C124      1.0  0.47719  0.30229  0.44963  1.0000
  H   H131      1.0  0.35238  0.05761  0.49230  1.0000
  C   C125      1.0  0.39077  0.07587  0.51956  1.0000
  H   H132      1.0  0.50244  0.24394  0.43972  1.0000
  C   C126      1.0  0.51006  0.37064  0.65347  1.0000
  C   C127      1.0  0.44586  0.14550  0.53026  1.0000
  C   C128      1.0  0.46280  0.11698  0.52446  1.0000
  C   C129      1.0  0.47839  0.09567  0.53593  1.0000
  C   C130      1.0  0.47737  0.10287  0.55326  1.0000
  C   C131      1.0  0.46074  0.13155  0.55910  1.0000
  C   C132      1.0  0.44479  0.15266  0.54763  1.0000
  H   H133      1.0  0.46326  0.11080  0.51121  1.0000
  H   H134      1.0  0.48014  0.20488  0.41958  1.0000
  H   H135      1.0  0.45973  0.13724  0.57247  1.0000
  H   H136      1.0  0.43164  0.17464  0.55223  1.0000
  C   C133      1.0  0.27950  0.18918  0.41123  1.0000
  C   C134      1.0  0.28968  0.17112  0.42542  1.0000
  C   C135      1.0  0.32004  0.17592  0.43274  1.0000
  C   C136      1.0  0.34036  0.19897  0.42593  1.0000
  C   C137      1.0  0.33064  0.21618  0.41144  1.0000
  C   C138      1.0  0.30041  0.21136  0.40412  1.0000
  H   H137      1.0  0.27371  0.15385  0.43099  1.0000
  H   H138      1.0  0.32718  0.16262  0.44396  1.0000
  H   H139      1.0  0.34648  0.23367  0.40599  1.0000
  H   H140      1.0  0.29305  0.22537  0.39322  1.0000
  Fe  Fe25      1.0  0.44301  0.42475  0.40213  1.0000
  H   H141      1.0  0.49545  0.29446  0.38821  1.0000
  S   S47       1.0  0.40342  0.40688  0.38543  1.0000
  S   S48       1.0  0.49122  0.45635  0.63743  1.0000
  C   C139      1.0  0.49327  0.02332  0.65633  1.0000
  C   C140      1.0  0.32891  0.33545  0.39915  1.0000
  C   C141      1.0  0.31780  0.36332  0.39037  1.0000
  C   C142      1.0  0.28924  0.36248  0.38093  1.0000
  C   C143      1.0  0.27212  0.33364  0.38009  1.0000
  C   C144      1.0  0.28378  0.30571  0.38857  1.0000
  C   C145      1.0  0.31211  0.30660  0.39799  1.0000
  H   H142      1.0  0.33050  0.38585  0.39134  1.0000
  H   H143      1.0  0.50469  0.22243  0.48054  1.0000
  H   H144      1.0  0.27033  0.28372  0.38845  1.0000
  H   H145      1.0  0.32038  0.28517  0.40487  1.0000
  C   C146      1.0  0.45109  0.49205  0.42952  1.0000
  C   C147      1.0  0.44247  0.47193  0.44288  1.0000
  H   H146      1.0  0.43663  0.46804  0.46989  1.0000
  H   H147      1.0  0.43432  0.44762  0.44032  1.0000
  S   S49       1.0  0.48297  0.39870  0.38707  1.0000
  Fe  Fe26      1.0  0.49794  0.10019  0.63116  1.0000
  C   C148      1.0  0.49812  0.21608  0.55971  1.0000
  C   C149      1.0  0.41438  0.04381  0.54217  1.0000
  N   N11       1.0  0.51012  0.51252  0.56654  1.0000
  H   H148      1.0  0.51289  0.47878  0.48184  1.0000
  C   C150      1.0  0.45356  0.04054  0.67767  1.0000
  C   C151      1.0  0.51200  0.30310  0.64846  1.0000
  C   C152      1.0  0.46176  0.04249  0.48645  1.0000
  S   S50       1.0  0.23660  0.33245  0.36821  1.0000
  H   H149      1.0  0.51784  0.46107  0.41797  1.0000
  C   C153      1.0  0.51886  0.18793  0.55949  1.0000
  C   C154      1.0  0.49065  0.49489  0.64754  1.0000
  H   H150      1.0  0.49165  0.22824  0.57164  1.0000
  S   S51       1.0  0.43855  0.05745  0.45485  1.0000
  H   H151      1.0  0.46713  0.29700  0.46231  1.0000
  N   N12       1.0  0.46408  0.28011  0.43703  1.0000
  C   C155      1.0  0.47976  0.25040  0.43372  1.0000
  C   C156      1.0  0.43545  0.28840  0.42932  1.0000
  C   C157      1.0  0.46725  0.22827  0.42222  1.0000
  C   C158      1.0  0.42228  0.26692  0.41767  1.0000
  C   C159      1.0  0.43834  0.23667  0.41413  1.0000
  C   C160      1.0  0.51364  0.09610  0.42265  1.0000
  H   H152      1.0  0.51315  0.27679  0.64598  1.0000
  H   H153      1.0  0.44795  0.51326  0.63474  1.0000
  H   H154      1.0  0.09434  0.27933  0.38073  1.0000
  H   H155      1.0  0.04242  0.30439  0.39206  1.0000
  H   H156      1.0  0.49118  0.07348  0.53136  1.0000
  H   H157      1.0  0.47142  0.32839  0.44640  1.0000
  C   C161      1.0  0.46635  0.51870  0.64379  1.0000
  C   C162      1.0  0.07168  0.27305  0.37516  1.0000
  H   H158      1.0  0.46290  0.06852  0.48860  1.0000
  C   C163      1.0  0.48810  0.32347  0.64102  1.0000
  N   N13       1.0  0.29164  0.28920  0.43828  1.0000
  C   C164      1.0  0.27253  0.26358  0.43478  1.0000
  C   C165      1.0  0.28198  0.32056  0.43392  1.0000
  C   C166      1.0  0.24304  0.26892  0.42654  1.0000
  C   C167      1.0  0.25248  0.32686  0.42579  1.0000
  C   C168      1.0  0.23304  0.30078  0.42199  1.0000
  C   C169      1.0  0.32392  0.28268  0.44532  1.0000
  H   H159      1.0  0.28039  0.23866  0.43798  1.0000
  H   H160      1.0  0.29785  0.34066  0.43594  1.0000
  H   H161      1.0  0.22853  0.24828  0.42330  1.0000
  H   H162      1.0  0.24553  0.35154  0.42172  1.0000
  H   H163      1.0  0.21073  0.30514  0.41510  1.0000
  H   H164      1.0  0.32498  0.25997  0.45301  1.0000
  H   H165      1.0  0.34200  0.27928  0.43486  1.0000
  H   H166      1.0  0.33104  0.30338  0.45347  1.0000
  N   N14       1.0  0.48713  0.35676  0.64376  1.0000
  S   S52       1.0  0.44003  0.33327  0.38869  1.0000
  H   H167      1.0  0.39158  0.07056  0.48536  1.0000
  H   H168      1.0  0.42467  0.04234  0.55471  1.0000
  C   C170      1.0  0.51425  0.50194  0.65935  1.0000
  Fe  Fe27      1.0  0.50875  0.09622  0.59286  1.0000
  H   H169      1.0  0.44134  0.36425  0.63162  1.0000
  H   H170      1.0  0.28031  0.38423  0.37439  1.0000
  H   H171      1.0  0.48387  0.22043  0.51758  1.0000
  H   H172      1.0  0.46876  0.24929  0.54456  1.0000
  C   C171      1.0  0.49407  0.21185  0.52941  1.0000
  C   C172      1.0  0.40212  0.07390  0.53611  1.0000
  H   H173      1.0  0.45351  0.39807  0.64429  1.0000
  H   H174      1.0  0.50973  0.39710  0.65533  1.0000
  N   N15       1.0  0.39068  0.04835  0.50950  1.0000
  H   H175      1.0  0.48872  0.05129  0.42491  1.0000
  C   C173      1.0  0.45061  0.03059  0.47106  1.0000
  C   C174      1.0  0.51681  0.24562  0.39019  1.0000
  C   C175      1.0  0.50825  0.06542  0.42970  1.0000
  H   H176      1.0  0.49859  0.10561  0.41252  1.0000
  H   H177      1.0  0.50461  0.50737  0.60915  1.0000
  C   C176      1.0  0.49720  0.51173  0.59622  1.0000
  H   H178      1.0  0.38333  0.02806  0.48477  1.0000
  C   C177      1.0  0.51484  0.18372  0.52965  1.0000
  C   C178      1.0  0.47886  0.52252  0.56309  1.0000
  C   C179      1.0  0.46548  0.52265  0.59286  1.0000
  H   H179      1.0  0.08234  0.08092  0.95102  1.0000
  Fe  Fe28      1.0  0.11111  0.46137  0.99907  1.0000
  S   S53       1.0  0.07706  0.43230  0.98367  1.0000
  S   S54       1.0  0.14953  0.49427  0.98905  1.0000
  S   S55       1.0  0.04177  0.12251  0.97701  1.0000
  S   S56       1.0  0.03928  0.05850  0.00319  1.0000
  C   C180      1.0  0.04731  0.30443  0.00482  1.0000
  Fe  Fe29      1.0  0.08716  0.39098  0.00202  1.0000
  S   S57       1.0  0.10129  0.33782  0.99460  1.0000
  Fe  Fe30      1.0  0.03985  0.45072  0.00290  1.0000
  H   H180      1.0  0.15878  0.49995  0.02587  1.0000
  S   S58       1.0  0.12507  0.41858  0.01568  1.0000
  S   S59       1.0  0.07319  0.48216  0.01718  1.0000
  Fe  Fe31      1.0  0.07603  0.09213  0.99313  1.0000
  S   S60       1.0  0.12437  0.07077  0.98354  1.0000
  S   S61       1.0  0.04709  0.40723  0.02005  1.0000
  H   H181      1.0  0.11660  0.26940  0.98783  1.0000
  H   H182      1.0  0.08614  0.21881  0.99178  1.0000
  C   C181      1.0  0.04380  0.24461  0.00225  1.0000
  C   C182      1.0  0.07855  0.30239  0.99781  1.0000
  C   C183      1.0  0.06972  0.06541  0.94230  1.0000
  H   H183      1.0  0.07971  0.45825  0.94526  1.0000
  H   H184      1.0  0.10924  0.02951  0.94007  1.0000
  Fe  Fe32      1.0  0.03108  0.09640  0.02369  1.0000
  H   H185      1.0  0.02560  0.09606  0.94259  1.0000
  C   C184      1.0  0.07525  0.24251  0.99550  1.0000
  C   C185      1.0  0.03807  0.02460  0.92044  1.0000
  C   C186      1.0  0.05888  0.47429  0.94224  1.0000
  C   C187      1.0  0.09246  0.27127  0.99328  1.0000
  H   H186      1.0  0.03888  0.51794  0.98862  1.0000
  C   C188      1.0  0.02819  0.46748  0.94838  1.0000
  Fe  Fe33      1.0  0.03332  0.15487  0.00019  1.0000
  S   S62       1.0  0.07135  0.12733  0.01517  1.0000
  H   H187      1.0  0.02486  0.44611  0.95620  1.0000
  H   H188      1.0  0.08862  0.51530  0.97406  1.0000
  H   H189      1.0  0.17680  0.02881  0.97032  1.0000
  C   C189      1.0  0.03006  0.27571  0.00698  1.0000
  H   H190      1.0  0.03620  0.32816  0.00830  1.0000
  C   C190      1.0  0.08478  0.03613  0.93614  1.0000
  C   C191      1.0  0.06270  0.50243  0.93257  1.0000
  C   C192      1.0  0.12560  0.03003  0.97580  1.0000
  H   H191      1.0  0.11498  0.02412  0.01095  1.0000
  C   C193      1.0  0.02227  0.05373  0.92633  1.0000
  C   C194      1.0  0.03810  0.07402  0.93748  1.0000
  S   S63       1.0  0.02047  0.20946  0.00499  1.0000
  H   H192      1.0  0.08680  0.50794  0.92819  1.0000
  H   H193      1.0  0.13399  0.30795  0.02357  1.0000
  H   H194      1.0  0.07487  0.02340  0.97946  1.0000
  H   H195      1.0  0.07255  0.95236  0.17897  1.0000
  H   H196      1.0  0.07715  0.54918  0.08219  1.0000
  H   H197      1.0  0.08454  0.87997  0.07038  1.0000
  Fe  Fe34      1.0  0.06306  0.58063  0.12423  1.0000
  S   S64       1.0  0.11065  0.55366  0.12864  1.0000
  C   C195      1.0  0.05185  0.96820  0.18291  1.0000
  C   C196      1.0  0.11160  0.78200  0.03885  1.0000
  C   C197      1.0  0.16442  0.99740  0.04176  1.0000
  S   S65       1.0  0.05824  0.62426  0.10720  1.0000
  Fe  Fe35      1.0  0.07178  0.87574  0.12062  1.0000
  S   S66       1.0  0.11279  0.90762  0.11343  1.0000
  S   S67       1.0  0.08421  0.82121  0.11558  1.0000
  H   H198      1.0  0.02763  0.99569  0.14763  1.0000
  S   S68       1.0  0.06367  0.97195  0.11998  1.0000
  Fe  Fe36      1.0  0.07567  0.93673  0.09871  1.0000
  S   S69       1.0  0.07834  0.95434  0.07181  1.0000
  Fe  Fe37      1.0  0.09690  0.93992  0.13556  1.0000
  S   S70       1.0  0.13115  0.96026  0.15478  1.0000
  S   S71       1.0  0.03550  0.90368  0.10468  1.0000
  S   S72       1.0  0.05911  0.90562  0.14419  1.0000
  N   N16       1.0  0.09747  0.83030  0.06323  1.0000
  C   C198      1.0  0.06170  0.78662  0.12072  1.0000
  C   C199      1.0  0.12318  0.53293  0.03806  1.0000
  H   H199      1.0  0.08668  0.01541  0.14641  1.0000
  C   C200      1.0  0.14503  0.01092  0.17624  1.0000
  C   C201      1.0  0.05674  0.72695  0.11918  1.0000
  C   C202      1.0  0.07351  0.75526  0.11527  1.0000
  H   H200      1.0  0.02343  0.81342  0.13434  1.0000
  H   H201      1.0  0.08100  0.00682  0.19165  1.0000
  H   H202      1.0  0.08920  0.56171  0.05356  1.0000
  H   H203      1.0  0.06870  0.84968  0.08380  1.0000
  C   C203      1.0  0.09024  0.85567  0.07612  1.0000
  C   C204      1.0  0.11128  0.83858  0.04817  1.0000
  Fe  Fe38      1.0  0.02661  0.93639  0.12740  1.0000
  H   H204      1.0  0.03475  0.00403  0.08841  1.0000
  H   H205      1.0  0.08167  0.79165  0.07885  1.0000
  S   S73       1.0  0.02742  0.55107  0.11055  1.0000
  C   C205      1.0  0.12566  0.00081  0.16287  1.0000
  C   C206      1.0  0.05651  0.99921  0.18998  1.0000
  C   C207      1.0  0.16433  0.91447  0.03978  1.0000
  C   C208      1.0  0.16643  0.91526  0.05743  1.0000
  C   C209      1.0  0.13979  0.92659  0.06738  1.0000
  C   C210      1.0  0.11119  0.93790  0.05969  1.0000
  C   C211      1.0  0.10902  0.93709  0.04205  1.0000
  C   C212      1.0  0.11839  0.81462  0.03573  1.0000
  H   H206      1.0  0.18881  0.90729  0.06342  1.0000
  H   H207      1.0  0.14182  0.92752  0.08097  1.0000
  H   H208      1.0  0.08699  0.94604  0.03604  1.0000
  C   C213      1.0  0.10160  0.53740  0.08414  1.0000
  C   C214      1.0  0.09834  0.77364  0.05444  1.0000
  H   H209      1.0  0.11120  0.85747  0.08466  1.0000
  C   C215      1.0  0.13544  0.92511  0.03211  1.0000
  H   H210      1.0  0.11680  0.86382  0.04570  1.0000
  H   H211      1.0  0.18713  0.98347  0.04360  1.0000
  H   H212      1.0  0.05592  0.52498  0.14431  1.0000
  C   C216      1.0  0.09164  0.79825  0.06663  1.0000
  C   C217      1.0  0.10156  0.02268  0.15676  1.0000
  C   C218      1.0  0.10809  0.54221  0.05342  1.0000
  H   H213      1.0  0.09596  0.75278  0.10812  1.0000
  H   H214      1.0  0.06627  0.70299  0.11502  1.0000
  S   S74       1.0  0.02731  0.60100  0.14369  1.0000
  H   H215      1.0  0.02235  0.60421  0.03123  1.0000
  H   H216      1.0  0.03646  0.01001  0.05730  1.0000
  C   C219      1.0  0.03279  0.78946  0.13007  1.0000
  H   H217      1.0  0.09328  0.74831  0.05710  1.0000
  C   C220      1.0  0.14655  0.00887  0.05593  1.0000
  S   S75       1.0  0.02244  0.58874  0.06652  1.0000
  H   H218      1.0  0.16383  0.99419  0.18099  1.0000
  H   H219      1.0  0.15522  0.00372  0.06855  1.0000
  H   H220      1.0  0.11673  0.55537  0.09063  1.0000
  N   N17       1.0  0.11685  0.52678  0.06807  1.0000
  C   C221      1.0  0.02806  0.72972  0.12871  1.0000
  N   N18       1.0  0.03064  0.01999  0.19424  1.0000
  Fe  Fe39      1.0  0.01967  0.59605  0.09481  1.0000
  C   C222      1.0  0.02042  0.95834  0.18042  1.0000
  S   S76       1.0  0.47223  0.61129  0.51008  1.0000
  H   H221      1.0  0.44829  0.52748  0.60317  1.0000
  Fe  Fe40      1.0  0.48659  0.57072  0.49148  1.0000
  C   C223      1.0  0.51291  0.53247  0.66777  1.0000
  C   C224      1.0  0.45816  0.97473  0.48130  1.0000
  C   C225      1.0  0.40143  0.01848  0.51557  1.0000
  Fe  Fe41      1.0  0.41987  0.64159  0.62779  1.0000
  S   S77       1.0  0.47201  0.64489  0.63434  1.0000
  S   S78       1.0  0.40651  0.62189  0.60210  1.0000
  Fe  Fe42      1.0  0.39672  0.67846  0.66027  1.0000
  S   S79       1.0  0.44785  0.68432  0.66891  1.0000
  S   S80       1.0  0.35663  0.70868  0.67394  1.0000
  Fe  Fe43      1.0  0.45874  0.69658  0.64198  1.0000
  C   C226      1.0  0.44222  0.78327  0.65954  1.0000
  Fe  Fe44      1.0  0.45576  0.63172  0.66032  1.0000
  S   S81       1.0  0.48812  0.59521  0.67400  1.0000
  S   S82       1.0  0.40743  0.69459  0.63381  1.0000
  S   S83       1.0  0.40380  0.62472  0.65349  1.0000
  H   H222      1.0  0.45678  0.69489  0.60415  1.0000
  C   C227      1.0  0.46896  0.98669  0.49673  1.0000
  H   H223      1.0  0.51442  0.68510  0.59591  1.0000
  H   H224      1.0  0.40173  0.99662  0.50761  1.0000
  C   C228      1.0  0.33174  0.69491  0.69049  1.0000
  C   C229      1.0  0.45814  0.01006  0.68584  1.0000
  S   S84       1.0  0.48638  0.73703  0.63049  1.0000
  H   H225      1.0  0.29103  0.74744  0.66756  1.0000
  C   C230      1.0  0.41771  0.76699  0.66767  1.0000
  C   C231      1.0  0.32052  0.82021  0.67951  1.0000
  N   N19       1.0  0.26585  0.78363  0.68314  1.0000
  C   C232      1.0  0.51219  0.72941  0.49537  1.0000
  C   C233      1.0  0.49769  0.99292  0.66442  1.0000
  S   S85       1.0  0.47759  0.95954  0.51327  1.0000
  C   C234      1.0  0.48900  0.55662  0.66379  1.0000
  C   C235      1.0  0.47102  0.02056  0.49926  1.0000
  H   H226      1.0  0.41470  0.69795  0.58211  1.0000
  H   H227      1.0  0.23018  0.75259  0.67369  1.0000
  C   C236      1.0  0.29134  0.77172  0.67334  1.0000
  H   H228      1.0  0.39760  0.75828  0.66054  1.0000
  H   H229      1.0  0.50827  0.66065  0.53734  1.0000
  H   H230      1.0  0.42401  0.99237  0.53626  1.0000
  C   C237      1.0  0.50443  0.68321  0.56914  1.0000
  H   H231      1.0  0.47799  0.76634  0.48604  1.0000
  C   C238      1.0  0.32470  0.66186  0.69244  1.0000
  H   H232      1.0  0.33967  0.77944  0.66426  1.0000
  C   C239      1.0  0.46597  0.54976  0.65161  1.0000
  C   C240      1.0  0.49605  0.68695  0.58625  1.0000
  C   C241      1.0  0.50137  0.76182  0.49178  1.0000
  C   C242      1.0  0.41981  0.76106  0.68501  1.0000
  N   N20       1.0  0.48113  0.68527  0.55702  1.0000
  H   H233      1.0  0.49877  0.01137  0.44566  1.0000
  C   C243      1.0  0.23810  0.76317  0.68586  1.0000
  C   C244      1.0  0.46324  0.53514  0.44983  1.0000
  S   S86       1.0  0.48974  0.94856  0.68946  1.0000
  C   C245      1.0  0.49109  0.60095  0.56507  1.0000
  C   C246      1.0  0.45972  0.60699  0.55905  1.0000
  C   C247      1.0  0.43372  0.61273  0.57050  1.0000
  C   C248      1.0  0.43903  0.61269  0.58796  1.0000
  C   C249      1.0  0.47024  0.60554  0.59388  1.0000
  H   H234      1.0  0.33617  0.64330  0.68419  1.0000
  H   H235      1.0  0.45541  0.60724  0.54564  1.0000
  H   H236      1.0  0.40952  0.61770  0.56582  1.0000
  H   H237      1.0  0.47436  0.60336  0.60722  1.0000
  H   H238      1.0  0.51113  0.71968  0.66348  1.0000
  N   N21       1.0  0.44579  0.77088  0.69395  1.0000
  S   S87       1.0  0.48849  0.69634  0.48922  1.0000
  H   H239      1.0  0.45653  0.94854  0.47932  1.0000
  H   H240      1.0  0.44127  0.78736  0.64603  1.0000
  H   H241      1.0  0.44743  0.56813  0.64844  1.0000
  H   H242      1.0  0.50614  0.72709  0.45662  1.0000
  H   H243      1.0  0.51620  0.90699  0.66278  1.0000
  C   C250      1.0  0.31910  0.78970  0.67147  1.0000
  H   H244      1.0  0.44020  0.98730  0.45665  1.0000
  H   H245      1.0  0.40065  0.74834  0.69125  1.0000
  C   C251      1.0  0.44884  0.99667  0.46852  1.0000
  H   H246      1.0  0.21708  0.77747  0.69158  1.0000
  H   H247      1.0  0.47102  0.55962  0.45240  1.0000
  C   C252      1.0  0.48051  0.98626  0.67929  1.0000
  C   C253      1.0  0.46364  0.69257  0.59091  1.0000
  C   C254      1.0  0.26694  0.81363  0.69101  1.0000
  C   C255      1.0  0.41396  0.01585  0.53187  1.0000
  H   H248      1.0  0.51464  0.97446  0.65914  1.0000
  C   C256      1.0  0.29405  0.83255  0.68908  1.0000
  H   H249      1.0  0.47162  0.52733  0.55020  1.0000
  C   C257      1.0  0.46851  0.79338  0.66876  1.0000
  H   H250      1.0  0.34232  0.83396  0.67869  1.0000
  H   H251      1.0  0.50208  0.70463  0.53484  1.0000
  Fe  Fe45      1.0  0.50381  0.64308  0.49442  1.0000
  C   C258      1.0  0.44004  0.69457  0.57850  1.0000
  C   C259      1.0  0.49073  0.68196  0.53916  1.0000
  H   H252      1.0  0.48802  0.80543  0.66245  1.0000
  C   C260      1.0  0.44928  0.69114  0.56148  1.0000
  Fe  Fe46      1.0  0.51824  0.59650  0.52315  1.0000
  H   H253      1.0  0.51269  0.81321  0.49202  1.0000
  C   C261      1.0  0.49618  0.59993  0.58250  1.0000
  H   H254      1.0  0.43075  0.69247  0.55192  1.0000
  S   S88       1.0  0.51322  0.60392  0.47431  1.0000
  S   S89       1.0  0.45549  0.52878  0.48436  1.0000
  H   H255      1.0  0.46977  0.67761  0.53091  1.0000
  C   C262      1.0  0.47003  0.78673  0.68602  1.0000
  C   C263      1.0  0.45612  0.52791  0.57620  1.0000
  H   H256      1.0  0.46796  0.53945  0.42277  1.0000
  H   H257      1.0  0.49083  0.79416  0.69299  1.0000
  H   H258      1.0  0.43166  0.53701  0.57350  1.0000
  H   H259      1.0  0.24496  0.74272  0.69449  1.0000
  C   C264      1.0  0.46133  0.52373  0.43305  1.0000
  H   H260      1.0  0.29500  0.85612  0.69551  1.0000
  Fe  Fe47      1.0  0.21677  0.74618  0.77741  1.0000
  S   S90       1.0  0.18577  0.78590  0.76531  1.0000
  S   S91       1.0  0.22565  0.74986  0.80544  1.0000
  Fe  Fe48      1.0  0.22568  0.78537  0.74562  1.0000
  S   S92       1.0  0.24691  0.83249  0.73678  1.0000
  S   S93       1.0  0.25807  0.74855  0.75884  1.0000
  Fe  Fe49      1.0  0.43995  0.91301  0.74744  1.0000
  S   S94       1.0  0.44796  0.85832  0.74590  1.0000
  S   S95       1.0  0.42316  0.93233  0.77309  1.0000
  Fe  Fe50      1.0  0.46723  0.92276  0.71174  1.0000
  S   S96       1.0  0.47659  0.86809  0.70814  1.0000
  H   H261      1.0  0.02515  0.00835  0.91225  1.0000
  Fe  Fe51      1.0  0.42743  0.86383  0.72008  1.0000
  S   S97       1.0  0.39288  0.82599  0.71157  1.0000
  Fe  Fe52      1.0  0.49571  0.86865  0.73447  1.0000
  C   C265      1.0  0.04744  0.73882  0.74661  1.0000
  S   S98       1.0  0.41631  0.91824  0.72195  1.0000
  S   S99       1.0  0.48957  0.92316  0.73751  1.0000
  Fe  Fe53      1.0  0.21997  0.84564  0.97081  1.0000
  S   S100      1.0  0.17144  0.83783  0.95947  1.0000
  S   S101      1.0  0.26456  0.81905  0.95938  1.0000
  H   H262      1.0  0.50358  0.86537  0.84303  1.0000
  Fe  Fe54      1.0  0.15607  0.82391  0.98556  1.0000
  S   S102      1.0  0.12971  0.77899  0.99272  1.0000
  Fe  Fe55      1.0  0.15917  0.88970  0.96825  1.0000
  S   S103      1.0  0.12846  0.92601  0.95354  1.0000
  S   S104      1.0  0.20902  0.89902  0.97751  1.0000
  Fe  Fe56      1.0  0.38908  0.80891  0.84459  1.0000
  S   S105      1.0  0.42556  0.77170  0.85460  1.0000
  S   S106      1.0  0.38252  0.81074  0.81638  1.0000
  Fe  Fe57      1.0  0.36818  0.83279  0.87976  1.0000
  S   S107      1.0  0.40368  0.79840  0.89267  1.0000
  S   S108      1.0  0.33514  0.86974  0.89375  1.0000
  Fe  Fe58      1.0  0.43911  0.81177  0.87237  1.0000
  S   S109      1.0  0.48956  0.82988  0.87624  1.0000
  Fe  Fe59      1.0  0.38688  0.76159  0.87382  1.0000
  S   S110      1.0  0.37751  0.70972  0.88112  1.0000
  S   S111      1.0  0.40488  0.84982  0.86106  1.0000
  S   S112      1.0  0.34906  0.79500  0.86219  1.0000
  Fe  Fe60      1.0  0.14589  0.70755  0.91419  1.0000
  S   S113      1.0  0.12111  0.66734  0.90088  1.0000
  S   S114      1.0  0.12156  0.75539  0.92291  1.0000
  Fe  Fe61      1.0  0.20925  0.66804  0.91597  1.0000
  S   S115      1.0  0.18969  0.62401  0.90293  1.0000
  S   S116      1.0  0.25983  0.66744  0.92610  1.0000
  Fe  Fe62      1.0  0.16704  0.66159  0.88546  1.0000
  S   S117      1.0  0.16617  0.65087  0.85734  1.0000
  Fe  Fe63      1.0  0.14569  0.63348  0.91956  1.0000
  S   S118      1.0  0.11263  0.59709  0.93159  1.0000
  S   S119      1.0  0.19001  0.70483  0.89740  1.0000
  S   S120      1.0  0.16710  0.67449  0.93405  1.0000
  C   C266      1.0  0.08326  0.76352  0.91422  1.0000
  C   C267      1.0  0.07453  0.74874  0.89907  1.0000
  C   C268      1.0  0.04418  0.75665  0.89208  1.0000
  H   H263      1.0  0.47679  0.88225  0.77609  1.0000
  H   H264      1.0  0.46215  0.80664  0.93296  1.0000
  H   H265      1.0  0.29608  0.62753  0.70611  1.0000
  H   H266      1.0  0.09140  0.73185  0.89250  1.0000
  H   H267      1.0  0.03767  0.74549  0.88022  1.0000
  C   C269      1.0  0.04704  0.79814  0.96703  1.0000
  C   C270      1.0  0.12400  0.57002  0.94807  1.0000
  H   H268      1.0  0.03828  0.57542  0.92920  1.0000
  H   H269      1.0  0.46667  0.74260  0.71375  1.0000
  C   C271      1.0  0.34495  0.70313  0.89501  1.0000
  C   C272      1.0  0.34941  0.67930  0.90745  1.0000
  C   C273      1.0  0.32316  0.66948  0.91714  1.0000
  C   C274      1.0  0.29187  0.68227  0.91401  1.0000
  C   C275      1.0  0.28716  0.70647  0.90167  1.0000
  C   C276      1.0  0.31385  0.71737  0.89237  1.0000
  H   H270      1.0  0.37326  0.66798  0.90944  1.0000
  H   H271      1.0  0.32701  0.65099  0.92673  1.0000
  H   H272      1.0  0.26308  0.71668  0.89924  1.0000
  H   H273      1.0  0.31015  0.73569  0.88270  1.0000
  C   C277      1.0  0.23682  0.84166  0.79369  1.0000
  H   H274      1.0  0.29052  0.70485  0.95664  1.0000
  C   C278      1.0  0.12810  0.96518  0.96303  1.0000
  C   C279      1.0  0.15631  0.98271  0.96373  1.0000
  H   H275      1.0  0.04690  0.83361  0.74390  1.0000
  C   C280      1.0  0.09885  0.97991  0.96894  1.0000
  H   H276      1.0  0.17901  0.97151  0.95908  1.0000
  C   C281      1.0  0.46849  0.81823  0.81350  1.0000
  H   H277      1.0  0.07713  0.96626  0.96868  1.0000
  C   C282      1.0  0.28253  0.83318  0.94068  1.0000
  C   C283      1.0  0.27458  0.86438  0.93429  1.0000
  C   C284      1.0  0.29055  0.87532  0.91974  1.0000
  C   C285      1.0  0.31398  0.85487  0.91133  1.0000
  C   C286      1.0  0.32139  0.82343  0.91754  1.0000
  C   C287      1.0  0.30604  0.81284  0.93228  1.0000
  H   H278      1.0  0.25661  0.88031  0.94073  1.0000
  H   H279      1.0  0.28476  0.89970  0.91501  1.0000
  H   H280      1.0  0.33935  0.80745  0.91115  1.0000
  H   H281      1.0  0.31258  0.78886  0.93720  1.0000
  C   C288      1.0  0.27330  0.62979  0.88106  1.0000
  H   H282      1.0  0.29268  0.77806  0.73003  1.0000
  S   S121      1.0  0.19879  0.90247  0.02764  1.0000
  C   C289      1.0  0.07786  0.80130  0.97394  1.0000
  C   C290      1.0  0.09003  0.77786  0.98528  1.0000
  C   C291      1.0  0.07091  0.75212  0.99021  1.0000
  C   C292      1.0  0.04033  0.74877  0.98314  1.0000
  H   H283      1.0  0.08008  0.73416  0.99915  1.0000
  H   H284      1.0  0.22131  0.60612  0.76519  1.0000
  C   C293      1.0  0.40849  0.90061  0.78561  1.0000
  C   C294      1.0  0.39604  0.87309  0.77789  1.0000
  C   C295      1.0  0.38839  0.84584  0.78751  1.0000
  C   C296      1.0  0.39149  0.84636  0.80508  1.0000
  C   C297      1.0  0.40259  0.87450  0.81301  1.0000
  C   C298      1.0  0.41124  0.90156  0.80326  1.0000
  H   H285      1.0  0.39216  0.87278  0.76443  1.0000
  H   H286      1.0  0.38052  0.82417  0.78117  1.0000
  H   H287      1.0  0.40505  0.87527  0.82656  1.0000
  H   H288      1.0  0.42059  0.92296  0.80935  1.0000
  H   H289      1.0  0.41079  0.80745  0.94979  1.0000
  C   C299      1.0  0.19735  0.61765  0.76362  1.0000
  H   H290      1.0  0.18450  0.61611  0.79008  1.0000
  H   H291      1.0  0.27755  0.84393  0.76736  1.0000
  H   H292      1.0  0.05014  0.69642  0.92145  1.0000
  C   C300      1.0  0.20778  0.72264  0.81954  1.0000
  C   C301      1.0  0.19351  0.69420  0.81385  1.0000
  C   C302      1.0  0.18058  0.67247  0.82557  1.0000
  C   C303      1.0  0.18155  0.67922  0.84297  1.0000
  C   C304      1.0  0.19545  0.70789  0.84859  1.0000
  C   C305      1.0  0.20874  0.72937  0.83692  1.0000
  H   H293      1.0  0.19276  0.68879  0.80049  1.0000
  H   H294      1.0  0.16981  0.65034  0.82116  1.0000
  H   H295      1.0  0.19615  0.71350  0.86190  1.0000
  H   H296      1.0  0.21965  0.75139  0.84139  1.0000
  C   C306      1.0  0.28879  0.83054  0.73199  1.0000
  C   C307      1.0  0.30555  0.85955  0.73059  1.0000
  C   C308      1.0  0.33823  0.85835  0.72529  1.0000
  C   C309      1.0  0.35404  0.82816  0.72105  1.0000
  C   C310      1.0  0.33761  0.79919  0.72309  1.0000
  C   C311      1.0  0.30524  0.80038  0.72872  1.0000
  H   H297      1.0  0.29309  0.88305  0.73323  1.0000
  H   H298      1.0  0.35071  0.88089  0.72379  1.0000
  H   H299      1.0  0.34987  0.77575  0.72012  1.0000
  N   N22       1.0  0.06032  0.68780  0.94717  1.0000
  H   H300      1.0  0.18858  0.53770  0.96974  1.0000
  C   C312      1.0  0.05968  0.65583  0.95223  1.0000
  H   H301      1.0  0.13382  0.92540  0.01852  1.0000
  C   C313      1.0  0.08143  0.64355  0.96427  1.0000
  C   C314      1.0  0.10451  0.66390  0.97077  1.0000
  H   H302      1.0  0.44326  0.88402  0.89073  1.0000
  H   H303      1.0  0.36681  0.84946  0.94373  1.0000
  C   C315      1.0  0.05566  0.87206  0.91603  1.0000
  H   H304      1.0  0.32927  0.81182  0.76302  1.0000
  H   H305      1.0  0.08091  0.61814  0.96814  1.0000
  H   H306      1.0  0.05876  0.87742  0.95818  1.0000
  H   H307      1.0  0.12286  0.71258  0.97042  1.0000
  H   H308      1.0  0.02483  0.88581  0.94476  1.0000
  C   C316      1.0  0.08401  0.98434  0.92002  1.0000
  S   S122      1.0  0.20238  0.74841  0.72893  1.0000
  Fe  Fe64      1.0  0.18950  0.88042  0.00208  1.0000
  C   C317      1.0  0.07667  0.78871  0.74555  1.0000
  H   H309      1.0  0.06573  0.55484  0.91440  1.0000
  C   C318      1.0  0.16371  0.54181  0.96589  1.0000
  C   C319      1.0  0.17675  0.62335  0.77755  1.0000
  C   C320      1.0  0.10521  0.69636  0.96540  1.0000
  H   H310      1.0  0.42493  0.75632  0.71741  1.0000
  C   C321      1.0  0.39377  0.87144  0.92363  1.0000
  C   C322      1.0  0.30922  0.78611  0.80229  1.0000
  H   H311      1.0  0.06643  0.96456  0.92055  1.0000
  C   C323      1.0  0.15606  0.56492  0.95320  1.0000
  C   C324      1.0  0.29373  0.70983  0.71339  1.0000
  C   C325      1.0  0.04693  0.80712  0.74478  1.0000
  H   H312      1.0  0.11418  0.66285  0.75770  1.0000
  C   C326      1.0  0.10743  0.52912  0.96837  1.0000
  H   H313      1.0  0.12242  0.66202  0.72798  1.0000
  N   N23       1.0  0.26817  0.82370  0.79154  1.0000
  H   H314      1.0  0.03356  0.97126  0.95118  1.0000
  N   N24       1.0  0.06857  0.01571  0.92576  1.0000
  C   C327      1.0  0.28605  0.67715  0.71516  1.0000
  H   H315      1.0  0.17499  0.57833  0.94727  1.0000
  C   C328      1.0  0.15501  0.01516  0.97002  1.0000
  C   C329      1.0  0.05135  0.88833  0.94593  1.0000
  H   H316      1.0  0.05634  0.91486  0.94625  1.0000
  C   C330      1.0  0.18735  0.62810  0.74764  1.0000
  H   H317      1.0  0.15684  0.63948  0.71875  1.0000
  H   H318      1.0  0.45548  0.79583  0.81230  1.0000
  N   N25       1.0  0.06909  0.87228  0.93173  1.0000
  C   C331      1.0  0.49461  0.88676  0.78608  1.0000
  H   H319      1.0  0.03175  0.72653  0.93596  1.0000
  C   C332      1.0  0.08273  0.70799  0.95356  1.0000
  H   H320      1.0  0.11650  0.83048  0.89434  1.0000
  H   H321      1.0  0.46451  0.83023  0.78724  1.0000
  H   H322      1.0  0.16091  0.68055  0.72712  1.0000
  H   H323      1.0  0.35003  0.64619  0.86965  1.0000
  H   H324      1.0  0.32572  0.71400  0.85340  1.0000
  H   H325      1.0  0.43314  0.91728  0.90547  1.0000
  C   C333      1.0  0.49513  0.85756  0.83076  1.0000
  H   H326      1.0  0.06135  0.85618  0.89001  1.0000
  H   H327      1.0  0.19093  0.97170  0.01454  1.0000
  H   H328      1.0  0.11031  0.85955  0.94648  1.0000
  H   H329      1.0  0.40189  0.89789  0.89368  1.0000
  H   H330      1.0  0.29891  0.74766  0.96090  1.0000
  C   C334      1.0  0.10346  0.84296  0.90470  1.0000
  C   C335      1.0  0.06145  0.78576  0.92246  1.0000
  H   H331      1.0  0.13061  0.64460  0.78615  1.0000
  H   H332      1.0  0.03622  0.57035  0.97282  1.0000
  H   H333      1.0  0.47577  0.81326  0.84030  1.0000
  H   H334      1.0  0.49172  0.91345  0.78915  1.0000
  H   H335      1.0  0.31343  0.69139  0.83491  1.0000
  C   C336      1.0  0.03118  0.79390  0.91545  1.0000
  C   C337      1.0  0.47947  0.82817  0.82924  1.0000
  C   C338      1.0  0.41407  0.82538  0.93995  1.0000
  H   H336      1.0  0.29666  0.73238  0.93960  1.0000
  N   N26       1.0  0.25136  0.73932  0.95286  1.0000
  C   C339      1.0  0.23562  0.74816  0.93838  1.0000
  C   C340      1.0  0.23484  0.73863  0.96791  1.0000
  C   C341      1.0  0.20237  0.75618  0.93872  1.0000
  C   C342      1.0  0.20157  0.74644  0.96870  1.0000
  C   C343      1.0  0.18524  0.75508  0.95397  1.0000
  C   C344      1.0  0.28616  0.73065  0.95251  1.0000
  H   H337      1.0  0.24877  0.74915  0.92650  1.0000
  H   H338      1.0  0.24750  0.73233  0.97942  1.0000
  H   H339      1.0  0.19002  0.76328  0.92723  1.0000
  H   H340      1.0  0.18863  0.74618  0.98068  1.0000
  H   H341      1.0  0.15944  0.76139  0.95443  1.0000
  S   S123      1.0  0.19421  0.70558  0.76346  1.0000
  H   H342      1.0  0.20396  0.62461  0.73698  1.0000
  S   S124      1.0  0.25605  0.66701  0.73005  1.0000
  C   C345      1.0  0.27996  0.80440  0.80431  1.0000
  C   C346      1.0  0.44632  0.84780  0.91764  1.0000
  C   C347      1.0  0.42524  0.89357  0.90035  1.0000
  C   C348      1.0  0.32507  0.68921  0.84745  1.0000
  H   H343      1.0  0.35055  0.67988  0.84539  1.0000
  H   H344      1.0  0.09242  0.82141  0.97026  1.0000
  C   C349      1.0  0.02274  0.77963  0.90012  1.0000
  H   H345      1.0  0.09925  0.80102  0.74524  1.0000
  H   H346      1.0  0.15526  0.97713  0.00222  1.0000
  H   H347      1.0  0.37436  0.88950  0.92100  1.0000
  N   N27       1.0  0.30732  0.66751  0.85851  1.0000
  C   C350      1.0  0.32378  0.64690  0.86932  1.0000
  H   H348      1.0  0.32015  0.61231  0.88968  1.0000
  S   S125      1.0  0.13895  0.87479  0.99324  1.0000
  H   H349      1.0  0.12193  0.65442  0.97984  1.0000
  H   H350      1.0  0.31850  0.77078  0.81242  1.0000
  C   C351      1.0  0.30704  0.62772  0.88072  1.0000
  Fe  Fe65      1.0  0.16531  0.74523  0.74992  1.0000
  H   H351      1.0  0.34962  0.77430  0.78562  1.0000
  C   C352      1.0  0.04120  0.55419  0.92028  1.0000
  C   C353      1.0  0.27421  0.66960  0.85872  1.0000
  H   H352      1.0  0.26115  0.68622  0.85032  1.0000
  H   H353      1.0  0.12911  0.82128  0.02373  1.0000
  H   H354      1.0  0.24718  0.82283  0.69917  1.0000
  C   C354      1.0  0.14899  0.65696  0.72902  1.0000
  C   C355      1.0  0.28601  0.82721  0.77707  1.0000
  C   C356      1.0  0.25672  0.65069  0.86993  1.0000
  H   H355      1.0  0.50973  0.80577  0.72060  1.0000
  H   H356      1.0  0.26006  0.61576  0.89019  1.0000
  S   S126      1.0  0.20526  0.82804  0.99644  1.0000
  C   C357      1.0  0.07705  0.75440  0.74630  1.0000
  C   C358      1.0  0.02871  0.77128  0.97119  1.0000
  H   H357      1.0  0.26632  0.80241  0.81601  1.0000
  C   C359      1.0  0.32671  0.78816  0.78722  1.0000
  H   H358      1.0  0.23978  0.86442  0.80123  1.0000
  C   C360      1.0  0.31534  0.80919  0.77458  1.0000
  H   H359      1.0  0.23048  0.65260  0.87016  1.0000
  S   S127      1.0  0.11363  0.72968  0.74616  1.0000
  H   H360      1.0  0.22614  0.84827  0.78127  1.0000
  H   H361      1.0  0.04744  0.71230  0.74713  1.0000
  N   N28       1.0  0.42160  0.87013  0.91409  1.0000
  H   H362      1.0  0.14103  0.83243  0.92277  1.0000
  N   N29       1.0  0.48867  0.86685  0.80102  1.0000
  C   C361      1.0  0.47350  0.83790  0.79940  1.0000
  C   C362      1.0  0.13726  0.64940  0.75919  1.0000
  H   H363      1.0  0.03153  0.88278  0.91413  1.0000
  Fe  Fe66      1.0  0.23237  0.71145  0.74351  1.0000
  C   C363      1.0  0.44852  0.76321  0.71194  1.0000
  N   N30       1.0  0.15277  0.00243  0.02583  1.0000
  H   H364      1.0  0.21929  0.82604  0.80021  1.0000
  H   H365      1.0  0.28162  0.72830  0.72134  1.0000
  H   H366      1.0  0.46861  0.84699  0.91023  1.0000
  H   H367      1.0  0.02198  0.02038  0.96948  1.0000
  H   H368      1.0  0.49958  0.75824  0.87546  1.0000
  H   H369      1.0  0.08308  0.73341  0.94967  1.0000
  C   C364      1.0  0.09960  0.85888  0.93410  1.0000
  C   C365      1.0  0.38943  0.84892  0.93659  1.0000
  N   N31       1.0  0.03674  0.52352  0.92937  1.0000
  C   C366      1.0  0.44284  0.82492  0.93053  1.0000
  H   H370      1.0  0.07497  0.55700  0.95235  1.0000
  C   C367      1.0  0.17130  0.98993  0.01103  1.0000
  H   H371      1.0  0.03768  0.81602  0.95811  1.0000
  H   H372      1.0  0.11602  0.54483  0.02639  1.0000
  H   H373      1.0  0.06824  0.79694  0.93420  1.0000
  H   H374      1.0  0.02612  0.72842  0.98671  1.0000
  H   H375      1.0  0.45560  0.78518  0.71917  1.0000
  C   C368      1.0  0.11721  0.84391  0.92068  1.0000
  H   H376      1.0  0.09319  0.98655  0.90688  1.0000
  H   H377      1.0  0.04255  0.63946  0.94685  1.0000
  C   C369      1.0  0.07254  0.85728  0.90230  1.0000
  H   H378      1.0  0.10451  0.97641  0.92824  1.0000
  C   C370      1.0  0.09980  0.55252  0.95595  1.0000
  H   H379      1.0  0.44470  0.00520  0.69728  1.0000
  H   H380      1.0  0.02308  0.55736  0.91012  1.0000
  N   N32       1.0  0.15764  0.64374  0.74560  1.0000
  C   C371      1.0  0.03828  0.69994  0.93404  1.0000
  C   C372      1.0  0.14647  0.63925  0.77535  1.0000
  C   C373      1.0  0.09762  0.01219  0.97530  1.0000
  C   C374      1.0  0.49963  0.87670  0.81641  1.0000
  C   C375      1.0  0.30185  0.65299  0.70479  1.0000
  H   H381      1.0  0.32234  0.74405  0.70013  1.0000
  H   H382      1.0  0.18216  0.01061  0.00432  1.0000
  C   C376      1.0  0.31655  0.71864  0.70124  1.0000
  H   H383      1.0  0.51179  0.89956  0.81766  1.0000
  C   C377      1.0  0.12399  0.01969  0.02355  1.0000
  C   C378      1.0  0.13944  0.52357  0.97339  1.0000
  H   H384      1.0  0.11681  0.76330  0.02919  1.0000
  C   C379      1.0  0.79440  0.41658  0.23804  1.0000
  C   C380      1.0  0.96935  0.11287  0.05602  1.0000
  H   H385      1.0  0.00083  0.21548  0.18529  1.0000
  C   C381      1.0  0.84473  0.41619  0.25307  1.0000
  H   H386      1.0  0.77658  0.14144  0.18398  1.0000
  C   C382      1.0  0.79210  0.25082  0.32113  1.0000
  S   S128      1.0  0.66396  0.11055  0.35203  1.0000
  H   H387      1.0  0.94138  0.29403  0.26192  1.0000
  Fe  Fe67      1.0  0.93088  0.38259  0.24166  1.0000
  S   S129      1.0  0.90962  0.33766  0.23098  1.0000
  S   S130      1.0  0.92840  0.39570  0.26945  1.0000
  Fe  Fe68      1.0  0.95855  0.40247  0.20749  1.0000
  S   S131      1.0  0.93943  0.35856  0.19405  1.0000
  S   S132      1.0  0.99179  0.43921  0.19595  1.0000
  Fe  Fe69      1.0  0.89431  0.36972  0.20960  1.0000
  S   S133      1.0  0.84482  0.36720  0.19832  1.0000
  Fe  Fe70      1.0  0.95624  0.33011  0.21671  1.0000
  H   H388      1.0  0.82282  0.27146  0.20628  1.0000
  S   S134      1.0  0.91194  0.41606  0.22126  1.0000
  S   S135      1.0  0.97918  0.37264  0.22906  1.0000
  Fe  Fe71      1.0  0.92139  0.15988  0.12293  1.0000
  S   S136      1.0  0.96979  0.16175  0.13515  1.0000
  S   S137      1.0  0.91434  0.14827  0.09531  1.0000
  Fe  Fe72      1.0  0.88459  0.18170  0.15529  1.0000
  S   S138      1.0  0.93014  0.18439  0.17016  1.0000
  S   S139      1.0  0.83596  0.20291  0.16455  1.0000
  Fe  Fe73      1.0  0.95021  0.20861  0.14731  1.0000
  S   S140      1.0  0.97425  0.25648  0.15086  1.0000
  Fe  Fe74      1.0  0.94533  0.13721  0.15670  1.0000
  S   S141      1.0  0.97500  0.09711  0.16932  1.0000
  S   S142      1.0  0.90382  0.20912  0.13320  1.0000
  S   S143      1.0  0.89782  0.13199  0.14370  1.0000
  Fe  Fe75      1.0  0.71577  0.27942  0.25170  1.0000
  S   S144      1.0  0.74913  0.24488  0.26569  1.0000
  S   S145      1.0  0.72885  0.33103  0.24592  1.0000
  Fe  Fe76      1.0  0.66356  0.22954  0.24813  1.0000
  S   S146      1.0  0.69321  0.19037  0.26169  1.0000
  S   S147      1.0  0.61578  0.21831  0.23600  1.0000
  Fe  Fe77      1.0  0.70445  0.23101  0.27971  1.0000
  S   S148      1.0  0.70602  0.23056  0.30818  1.0000
  Fe  Fe78      1.0  0.73526  0.20768  0.24638  1.0000
  S   S149      1.0  0.77401  0.17211  0.23562  1.0000
  S   S150      1.0  0.67179  0.26905  0.26732  1.0000
  S   S151      1.0  0.70483  0.24342  0.23129  1.0000
  C   C383      1.0  0.57940  0.23730  0.24415  1.0000
  C   C384      1.0  0.55084  0.23620  0.23475  1.0000
  H   H389      1.0  0.80178  0.35899  0.28622  1.0000
  Fe  Fe79      1.0  0.87591  0.29569  0.34615  1.0000
  C   C385      1.0  0.57817  0.25225  0.26012  1.0000
  H   H390      1.0  0.55164  0.22489  0.22232  1.0000
  C   C386      1.0  0.97652  0.12142  0.09090  1.0000
  H   H391      1.0  0.59995  0.25325  0.26747  1.0000
  H   H392      1.0  0.52872  0.16196  0.23131  1.0000
  C   C387      1.0  0.82162  0.19621  0.18514  1.0000
  C   C388      1.0  0.79396  0.21444  0.19088  1.0000
  C   C389      1.0  0.78045  0.20858  0.20683  1.0000
  C   C390      1.0  0.79391  0.18375  0.21697  1.0000
  C   C391      1.0  0.82205  0.16594  0.21141  1.0000
  C   C392      1.0  0.83608  0.17235  0.19557  1.0000
  H   H393      1.0  0.78280  0.23305  0.18288  1.0000
  H   H394      1.0  0.75889  0.22248  0.21094  1.0000
  H   H395      1.0  0.83258  0.14664  0.21919  1.0000
  H   H396      1.0  0.85742  0.15815  0.19120  1.0000
  H   H397      1.0  0.98151  0.41690  0.15627  1.0000
  C   C393      1.0  0.97534  0.05985  0.15798  1.0000
  H   H398      1.0  0.56714  0.15942  0.35966  1.0000
  H   H399      1.0  0.77535  0.20320  0.30043  1.0000
  C   C394      1.0  0.60861  0.18118  0.32451  1.0000
  H   H400      1.0  0.92384  0.06087  0.15418  1.0000
  C   C395      1.0  0.81314  0.35278  0.21090  1.0000
  C   C396      1.0  0.81892  0.33512  0.22576  1.0000
  C   C397      1.0  0.79285  0.32568  0.23591  1.0000
  C   C398      1.0  0.76097  0.33456  0.23140  1.0000
  C   C399      1.0  0.75529  0.35165  0.21642  1.0000
  C   C400      1.0  0.78122  0.36015  0.20605  1.0000
  H   H401      1.0  0.84334  0.32895  0.22954  1.0000
  H   H402      1.0  0.79745  0.31298  0.24764  1.0000
  H   H403      1.0  0.73076  0.35903  0.21300  1.0000
  H   H404      1.0  0.77651  0.37367  0.19457  1.0000
  C   C401      1.0  0.97884  0.46940  0.18127  1.0000
  C   C402      1.0  0.77288  0.16237  0.31726  1.0000
  H   H405      1.0  0.98507  0.29064  0.26098  1.0000
  H   H406      1.0  0.93172  0.45078  0.17718  1.0000
  H   H407      1.0  0.93910  0.26242  0.31871  1.0000
  C   C403      1.0  0.94356  0.12627  0.06596  1.0000
  C   C404      1.0  0.94706  0.13066  0.08340  1.0000
  C   C405      1.0  0.78027  0.40095  0.25173  1.0000
  H   H408      1.0  0.92079  0.13330  0.06010  1.0000
  H   H409      1.0  0.97937  0.12430  0.10435  1.0000
  C   C406      1.0  0.87661  0.32168  0.28773  1.0000
  C   C407      1.0  0.89063  0.34378  0.27673  1.0000
  C   C408      1.0  0.90912  0.36880  0.28309  1.0000
  C   C409      1.0  0.91264  0.37221  0.30060  1.0000
  C   C410      1.0  0.89878  0.34990  0.31165  1.0000
  H   H410      1.0  0.77129  0.39230  0.28837  1.0000
  H   H411      1.0  0.88674  0.34155  0.26338  1.0000
  H   H412      1.0  0.92662  0.39177  0.30561  1.0000
  C   C411      1.0  0.67962  0.14215  0.33976  1.0000
  C   C412      1.0  0.68090  0.13922  0.32207  1.0000
  C   C413      1.0  0.68961  0.16596  0.31212  1.0000
  C   C414      1.0  0.69733  0.19552  0.31989  1.0000
  C   C415      1.0  0.69776  0.19773  0.33754  1.0000
  C   C416      1.0  0.68919  0.17109  0.34743  1.0000
  H   H413      1.0  0.67406  0.11665  0.31608  1.0000
  H   H414      1.0  0.68976  0.16386  0.29850  1.0000
  H   H415      1.0  0.70453  0.22024  0.34365  1.0000
  C   C417      1.0  0.01624  0.27061  0.21818  1.0000
  C   C418      1.0  0.94179  0.21040  0.05261  1.0000
  C   C419      1.0  0.78343  0.37448  0.27937  1.0000
  H   H416      1.0  0.74975  0.10777  0.18513  1.0000
  H   H417      1.0  0.54790  0.27706  0.27911  1.0000
  C   C420      1.0  0.52123  0.24976  0.24131  1.0000
  C   C421      1.0  0.88107  0.32437  0.30518  1.0000
  C   C422      1.0  0.96416  0.03278  0.07248  1.0000
  H   H418      1.0  0.86994  0.42222  0.25383  1.0000
  H   H419      1.0  0.99385  0.34696  0.28615  1.0000
  H   H420      1.0  0.78841  0.16601  0.35920  1.0000
  H   H421      1.0  0.89166  0.28457  0.15476  1.0000
  C   C423      1.0  0.99869  0.10341  0.06352  1.0000
  H   H422      1.0  0.00914  0.02641  0.11473  1.0000
  H   H423      1.0  0.91995  0.22969  0.21005  1.0000
  C   C424      1.0  0.00027  0.49348  0.17659  1.0000
  H   H424      1.0  0.75503  0.39499  0.25105  1.0000
  H   H425      1.0  0.96617  0.10916  0.04263  1.0000
  H   H426      1.0  0.93631  0.26315  0.28754  1.0000
  H   H427      1.0  0.76964  0.12245  0.20381  1.0000
  H   H428      1.0  0.83843  0.43502  0.22788  1.0000
  C   C425      1.0  0.00456  0.04155  0.15576  1.0000
  C   C426      1.0  0.91066  0.26274  0.18937  1.0000
  N   N33       1.0  0.60521  0.21466  0.32613  1.0000
  C   C427      1.0  0.95031  0.28117  0.29398  1.0000
  H   H429      1.0  0.80482  0.26417  0.33116  1.0000
  C   C428      1.0  0.01248  0.25708  0.36093  1.0000
  H   H430      1.0  0.76524  0.35756  0.27452  1.0000
  H   H431      1.0  0.92100  0.21570  0.04470  1.0000
  S   S152      1.0  0.86545  0.29440  0.31828  1.0000
  H   H432      1.0  0.86302  0.23477  0.22088  1.0000
  H   H433      1.0  0.80698  0.25243  0.30941  1.0000
  C   C429      1.0  0.78561  0.17392  0.34626  1.0000
  C   C430      1.0  0.77603  0.15194  0.33390  1.0000
  H   H434      1.0  0.77068  0.12700  0.33727  1.0000
  C   C431      1.0  0.96591  0.20658  0.08015  1.0000
  H   H435      1.0  0.92504  0.05752  0.08675  1.0000
  S   S153      1.0  0.90559  0.25311  0.35662  1.0000
  H   H436      1.0  0.65453  0.21123  0.20299  1.0000
  H   H437      1.0  0.78041  0.42218  0.22684  1.0000
  C   C432      1.0  0.82698  0.42375  0.23863  1.0000
  C   C433      1.0  0.94855  0.46908  0.17360  1.0000
  C   C434      1.0  0.97148  0.19964  0.04535  1.0000
  H   H438      1.0  0.88425  0.32419  0.16524  1.0000
  H   H439      1.0  0.95159  0.03516  0.06059  1.0000
  H   H440      1.0  0.93545  0.26022  0.18468  1.0000
  C   C435      1.0  0.87022  0.24840  0.20987  1.0000
  C   C436      1.0  0.90199  0.24532  0.20374  1.0000
  H   H441      1.0  0.76804  0.26346  0.31916  1.0000
  H   H442      1.0  0.92371  0.30408  0.16563  1.0000
  H   H443      1.0  0.83917  0.30122  0.18080  1.0000
  C   C437      1.0  0.98468  0.32784  0.31086  1.0000
  N   N34       1.0  0.78791  0.21642  0.32554  1.0000
  C   C438      1.0  0.85701  0.28563  0.18722  1.0000
  C   C439      1.0  0.62043  0.23590  0.31381  1.0000
  H   H444      1.0  0.86263  0.30213  0.28269  1.0000
  H   H445      1.0  0.90211  0.35225  0.32512  1.0000
  H   H446      1.0  0.63902  0.25041  0.32012  1.0000
  H   H447      1.0  0.99261  0.46058  0.13579  1.0000
  H   H448      1.0  0.79823  0.22332  0.35169  1.0000
  C   C440      1.0  0.99775  0.41175  0.14563  1.0000
  C   C441      1.0  0.94895  0.04536  0.08723  1.0000
  H   H449      1.0  0.01314  0.21862  0.22219  1.0000
  C   C442      1.0  0.98241  0.32790  0.29323  1.0000
  H   H450      1.0  0.59924  0.13431  0.33569  1.0000
  C   C443      1.0  0.79128  0.20634  0.34188  1.0000
  H   H451      1.0  0.01352  0.47586  0.10893  1.0000
  C   C444      1.0  0.77897  0.19490  0.31328  1.0000
  H   H452      1.0  0.58551  0.25522  0.34080  1.0000
  H   H453      1.0  0.91702  0.49149  0.15496  1.0000
  N   N35       1.0  0.73005  0.15303  0.19512  1.0000
  C   C445      1.0  0.72176  0.17646  0.18347  1.0000
  C   C446      1.0  0.71167  0.14995  0.20945  1.0000
  C   C447      1.0  0.69456  0.19780  0.18611  1.0000
  C   C448      1.0  0.68412  0.17063  0.21240  1.0000
  C   C449      1.0  0.67555  0.19466  0.20063  1.0000
  C   C450      1.0  0.75778  0.12995  0.19181  1.0000
  H   H454      1.0  0.73656  0.17912  0.17219  1.0000
  H   H455      1.0  0.71863  0.13185  0.21887  1.0000
  H   H456      1.0  0.68840  0.21679  0.17703  1.0000
  H   H457      1.0  0.66978  0.16853  0.22388  1.0000
  H   H458      1.0  0.69008  0.17303  0.36102  1.0000
  C   C451      1.0  0.84761  0.26885  0.20165  1.0000
  C   C452      1.0  0.94659  0.04696  0.15237  1.0000
  C   C453      1.0  0.99628  0.02826  0.10293  1.0000
  N   N36       1.0  0.79832  0.39204  0.26545  1.0000
  C   C454      1.0  0.54862  0.26567  0.26670  1.0000
  C   C455      1.0  0.82984  0.40048  0.26650  1.0000
  C   C456      1.0  0.89737  0.29977  0.16596  1.0000
  H   H459      1.0  0.63306  0.22157  0.30345  1.0000
  C   C457      1.0  0.59517  0.16083  0.33658  1.0000
  H   H460      1.0  0.84377  0.39483  0.27770  1.0000
  N   N37       1.0  0.88829  0.28273  0.18138  1.0000
  H   H461      1.0  0.76485  0.14570  0.30759  1.0000
  S   S154      1.0  0.97421  0.27727  0.21708  1.0000
  H   H462      1.0  0.00884  0.15771  0.17475  1.0000
  H   H463      1.0  0.00889  0.36182  0.15295  1.0000
  H   H464      1.0  0.91584  0.22073  0.07604  1.0000
  C   C458      1.0  0.58801  0.22869  0.33943  1.0000
  C   C459      1.0  0.96229  0.51548  0.15597  1.0000
  C   C460      1.0  0.93899  0.21360  0.07014  1.0000
  H   H465      1.0  0.01670  0.06260  0.20906  1.0000
  H   H466      1.0  0.62221  0.16996  0.31402  1.0000
  C   C461      1.0  0.57738  0.17492  0.35009  1.0000
  H   H467      1.0  0.99784  0.34649  0.31736  1.0000
  H   H468      1.0  0.97041  0.30395  0.33381  1.0000
  C   C462      1.0  0.96930  0.30397  0.32010  1.0000
  H   H469      1.0  0.96368  0.20825  0.09381  1.0000
  C   C463      1.0  0.00420  0.43629  0.13400  1.0000
  H   H470      1.0  0.01569  0.18926  0.08039  1.0000
  C   C464      1.0  0.96383  0.30487  0.26651  1.0000
  H   H471      1.0  0.01678  0.20893  0.13280  1.0000
  C   C465      1.0  0.94033  0.49208  0.16098  1.0000
  C   C466      1.0  0.57363  0.20906  0.35152  1.0000
  N   N38       1.0  0.96521  0.30486  0.28503  1.0000
  H   H472      1.0  0.96363  0.33038  0.26162  1.0000
  C   C467      1.0  0.95196  0.28050  0.31162  1.0000
  H   H473      1.0  0.60203  0.25293  0.30803  1.0000
  H   H474      1.0  0.53284  0.18425  0.26025  1.0000
  C   C468      1.0  0.00221  0.10761  0.08098  1.0000
  C   C469      1.0  0.99516  0.19560  0.07248  1.0000
  C   C470      1.0  0.01529  0.25642  0.14498  1.0000
  C   C471      1.0  0.01316  0.38071  0.14375  1.0000
  H   H475      1.0  0.98980  0.25054  0.35548  1.0000
  N   N39       1.0  0.99747  0.19180  0.05531  1.0000
  C   C472      1.0  0.96521  0.04310  0.10253  1.0000
  H   H476      1.0  0.97926  0.02763  0.19436  1.0000
  C   C473      1.0  0.99209  0.51636  0.16399  1.0000
  H   H477      1.0  0.95390  0.05315  0.11402  1.0000
  C   C474      1.0  0.52002  0.26428  0.25740  1.0000
  H   H478      1.0  0.56023  0.22016  0.36215  1.0000
  H   H479      1.0  0.97354  0.19709  0.03170  1.0000
  H   H480      1.0  0.98717  0.50456  0.02938  1.0000
  H   H481      1.0  0.56611  0.06238  0.45906  1.0000
  H   H482      1.0  0.62023  0.03988  0.41900  1.0000
  S   S155      1.0  0.64525  0.08988  0.44135  1.0000
  S   S156      1.0  0.62348  0.16935  0.42087  1.0000
  Fe  Fe80      1.0  0.63881  0.39691  0.46001  1.0000
  S   S157      1.0  0.69069  0.39337  0.46816  1.0000
  S   S158      1.0  0.61727  0.43585  0.44307  1.0000
  Fe  Fe81      1.0  0.62046  0.33620  0.47919  1.0000
  S   S159      1.0  0.67091  0.32685  0.48852  1.0000
  S   S160      1.0  0.57717  0.31152  0.48963  1.0000
  Fe  Fe82      1.0  0.66977  0.38117  0.49364  1.0000
  S   S161      1.0  0.68761  0.39710  0.51917  1.0000
  Fe  Fe83      1.0  0.68722  0.33966  0.46226  1.0000
  S   S162      1.0  0.72551  0.30705  0.44875  1.0000
  S   S163      1.0  0.61829  0.38966  0.48579  1.0000
  S   S164      1.0  0.63633  0.34383  0.45244  1.0000
  Fe  Fe84      1.0  0.86408  0.24982  0.37508  1.0000
  C   C475      1.0  0.56301  0.02695  0.69155  1.0000
  S   S165      1.0  0.84053  0.20293  0.38181  1.0000
  H   H483      1.0  0.55663  0.47192  0.48270  1.0000
  C   C476      1.0  0.64016  0.51181  0.65982  1.0000
  S   S166      1.0  0.83325  0.28955  0.36322  1.0000
  Fe  Fe85      1.0  0.85705  0.32303  0.38129  1.0000
  S   S167      1.0  0.82751  0.36148  0.39650  1.0000
  H   H484      1.0  0.70335  0.35533  0.41275  1.0000
  H   H485      1.0  0.97915  0.29811  0.42083  1.0000
  S   S168      1.0  0.88567  0.28281  0.39422  1.0000
  N   N40       1.0  0.53486  0.45797  0.45963  1.0000
  H   H486      1.0  0.63924  0.05322  0.47176  1.0000
  H   H487      1.0  0.54279  0.13855  0.42359  1.0000
  H   H488      1.0  0.56727  0.35380  0.52898  1.0000
  C   C477      1.0  0.53697  0.26156  0.48457  1.0000
  Fe  Fe86      1.0  0.56540  0.09418  0.61679  1.0000
  S   S169      1.0  0.61489  0.06962  0.61965  1.0000
  Fe  Fe87      1.0  0.58309  0.43065  0.59902  1.0000
  S   S170      1.0  0.54906  0.39798  0.61216  1.0000
  S   S171      1.0  0.57499  0.43650  0.57116  1.0000
  Fe  Fe88      1.0  0.61310  0.45294  0.63198  1.0000
  H   H489      1.0  0.85701  0.37526  0.42897  1.0000
  Fe  Fe89      1.0  0.59171  0.38244  0.62773  1.0000
  C   C478      1.0  0.62609  0.49606  0.67345  1.0000
  C   C479      1.0  0.53844  0.27647  0.60737  1.0000
  S   S172      1.0  0.62685  0.41237  0.61320  1.0000
  S   S173      1.0  0.57224  0.47344  0.61639  1.0000
  H   H490      1.0  0.55860  0.03625  0.56841  1.0000
  C   C480      1.0  0.58092  0.29645  0.62517  1.0000
  H   H491      1.0  0.96077  0.27426  0.43689  1.0000
  H   H492      1.0  0.74353  0.26988  0.39897  1.0000
  C   C481      1.0  0.57372  0.23316  0.45794  1.0000
  H   H493      1.0  0.59568  0.36722  0.58576  1.0000
  S   S174      1.0  0.53096  0.18536  0.45184  1.0000
  S   S175      1.0  0.60288  0.32875  0.63383  1.0000
  H   H494      1.0  0.58816  0.33175  0.40648  1.0000
  H   H495      1.0  0.90237  0.28291  0.44320  1.0000
  C   C482      1.0  0.52667  0.23330  0.47642  1.0000
  N   N41       1.0  0.63707  0.31238  0.40527  1.0000
  C   C483      1.0  0.65757  0.41208  0.53364  1.0000
  C   C484      1.0  0.66364  0.41132  0.55104  1.0000
  C   C485      1.0  0.63877  0.41987  0.56278  1.0000
  C   C486      1.0  0.60784  0.42933  0.55711  1.0000
  C   C487      1.0  0.60225  0.43156  0.53976  1.0000
  C   C488      1.0  0.62708  0.42316  0.52809  1.0000
  H   H496      1.0  0.68739  0.40333  0.55542  1.0000
  H   H497      1.0  0.64345  0.41867  0.57616  1.0000
  H   H498      1.0  0.57855  0.43939  0.53528  1.0000
  H   H499      1.0  0.62263  0.42557  0.51480  1.0000
  C   C489      1.0  0.56541  0.27590  0.47929  1.0000
  H   H500      1.0  0.53299  0.48356  0.66237  1.0000
  C   C490      1.0  0.54452  0.24424  0.61310  1.0000
  C   C491      1.0  0.61987  0.03094  0.43181  1.0000
  H   H501      1.0  0.63059  0.51370  0.48997  1.0000
  C   C492      1.0  0.58386  0.26169  0.46598  1.0000
  C   C493      1.0  0.55121  0.07177  0.44887  1.0000
  C   C494      1.0  0.62489  0.51120  0.68948  1.0000
  H   H502      1.0  0.60583  0.27273  0.46188  1.0000
  C   C495      1.0  0.75525  0.32336  0.43538  1.0000
  C   C496      1.0  0.75590  0.35703  0.43209  1.0000
  C   C497      1.0  0.77828  0.36864  0.42026  1.0000
  C   C498      1.0  0.80041  0.34674  0.41182  1.0000
  C   C499      1.0  0.80086  0.31341  0.41583  1.0000
  C   C500      1.0  0.77825  0.30174  0.42743  1.0000
  H   H503      1.0  0.73869  0.37406  0.43835  1.0000
  H   H504      1.0  0.77813  0.39460  0.41747  1.0000
  H   H505      1.0  0.81850  0.29653  0.40987  1.0000
  H   H506      1.0  0.77833  0.27573  0.43002  1.0000
  S   S176      1.0  0.54146  0.13044  0.63515  1.0000
  H   H507      1.0  0.52828  0.40084  0.42070  1.0000
  C   C501      1.0  0.61364  0.47465  0.45306  1.0000
  C   C502      1.0  0.62470  0.47910  0.46953  1.0000
  H   H508      1.0  0.72271  0.50773  0.66328  1.0000
  H   H509      1.0  0.95053  0.26844  0.41491  1.0000
  H   H510      1.0  0.63635  0.45876  0.47614  1.0000
  C   C503      1.0  0.52859  0.29096  0.40889  1.0000
  C   C504      1.0  0.73534  0.21812  0.40000  1.0000
  C   C505      1.0  0.75402  0.24525  0.39711  1.0000
  C   C506      1.0  0.78637  0.24071  0.39169  1.0000
  C   C507      1.0  0.80045  0.20907  0.38938  1.0000
  C   C508      1.0  0.78203  0.18192  0.39271  1.0000
  C   C509      1.0  0.74948  0.18644  0.39777  1.0000
  H   H511      1.0  0.54394  0.49815  0.58542  1.0000
  H   H512      1.0  0.80038  0.26177  0.38942  1.0000
  Fe  Fe90      1.0  0.52519  0.15843  0.61206  1.0000
  H   H513      1.0  0.73573  0.16535  0.40030  1.0000
  C   C510      1.0  0.63113  0.05030  0.44495  1.0000
  C   C511      1.0  0.53980  0.05121  0.68713  1.0000
  H   H514      1.0  0.65090  0.06912  0.67927  1.0000
  C   C512      1.0  0.62139  0.51021  0.47737  1.0000
  C   C513      1.0  0.55725  0.10251  0.44212  1.0000
  C   C514      1.0  0.55653  0.30245  0.61335  1.0000
  Fe  Fe91      1.0  0.63986  0.11643  0.41645  1.0000
  C   C515      1.0  0.53540  0.31705  0.65841  1.0000
  Fe  Fe92      1.0  0.59445  0.16325  0.39754  1.0000
  C   C516      1.0  0.61352  0.33686  0.40763  1.0000
  H   H515      1.0  0.60593  0.32362  0.58727  1.0000
  S   S177      1.0  0.64783  0.49097  0.64050  1.0000
  H   H516      1.0  0.54688  0.41448  0.47344  1.0000
  H   H517      1.0  0.64823  0.03123  0.66729  1.0000
  S   S178      1.0  0.58176  0.42148  0.64790  1.0000
  H   H518      1.0  0.57645  0.11690  0.44710  1.0000
  H   H519      1.0  0.57402  0.21341  0.62928  1.0000
  C   C517      1.0  0.01243  0.27928  0.37452  1.0000
  C   C518      1.0  0.61475  0.03151  0.62982  1.0000
  C   C519      1.0  0.58722  0.26416  0.63078  1.0000
  Fe  Fe93      1.0  0.64950  0.12737  0.37849  1.0000
  S   S179      1.0  0.54409  0.18355  0.39266  1.0000
  H   H520      1.0  0.57375  0.14928  0.54469  1.0000
  S   S180      1.0  0.97602  0.29766  0.38322  1.0000
  S   S181      1.0  0.55352  0.12470  0.59411  1.0000
  N   N42       1.0  0.92951  0.31177  0.42632  1.0000
  C   C520      1.0  0.92984  0.33977  0.41691  1.0000
  C   C521      1.0  0.90329  0.30575  0.43634  1.0000
  C   C522      1.0  0.90391  0.36312  0.41784  1.0000
  C   C523      1.0  0.87698  0.32861  0.43758  1.0000
  C   C524      1.0  0.87757  0.35762  0.42841  1.0000
  C   C525      1.0  0.53454  0.35102  0.66092  1.0000
  H   H521      1.0  0.94991  0.34388  0.40835  1.0000
  H   H522      1.0  0.63704  0.35328  0.58702  1.0000
  H   H523      1.0  0.90371  0.38488  0.41004  1.0000
  C   C526      1.0  0.95626  0.28690  0.42473  1.0000
  H   H524      1.0  0.53937  0.50543  0.47097  1.0000
  H   H525      1.0  0.63828  0.06953  0.65747  1.0000
  C   C527      1.0  0.62815  0.27890  0.40110  1.0000
  H   H526      1.0  0.61755  0.47156  0.67184  1.0000
  N   N43       1.0  0.61492  0.34437  0.56326  1.0000
  C   C528      1.0  0.58764  0.35085  0.55402  1.0000
  C   C529      1.0  0.64344  0.33447  0.55539  1.0000
  C   C530      1.0  0.58863  0.34799  0.53640  1.0000
  C   C531      1.0  0.64534  0.33168  0.53778  1.0000
  C   C532      1.0  0.61772  0.33850  0.52829  1.0000
  C   C533      1.0  0.61329  0.34711  0.58173  1.0000
  H   H527      1.0  0.56518  0.35925  0.56023  1.0000
  H   H528      1.0  0.66518  0.32971  0.56265  1.0000
  H   H529      1.0  0.56622  0.03897  0.63969  1.0000
  H   H530      1.0  0.58689  0.09763  0.66257  1.0000
  H   H531      1.0  0.61899  0.33711  0.51464  1.0000
  H   H532      1.0  0.54304  0.37739  0.44859  1.0000
  C   C534      1.0  0.66896  0.31863  0.40740  1.0000
  C   C535      1.0  0.54489  0.21920  0.46301  1.0000
  H   H533      1.0  0.56401  0.27977  0.42799  1.0000
  C   C536      1.0  0.67805  0.35044  0.41127  1.0000
  H   H534      1.0  0.54412  0.12616  0.53358  1.0000
  C   C537      1.0  0.65429  0.37568  0.41346  1.0000
  S   S182      1.0  0.69491  0.22439  0.40701  1.0000
  H   H535      1.0  0.58798  0.22214  0.44766  1.0000
  H   H536      1.0  0.54355  0.12723  0.55605  1.0000
  Fe  Fe94      1.0  0.54200  0.43933  0.63077  1.0000
  H   H537      1.0  0.60312  0.38821  0.41387  1.0000
  H   H538      1.0  0.66095  0.40032  0.41691  1.0000
  C   C538      1.0  0.56908  0.23813  0.62479  1.0000
  C   C539      1.0  0.54040  0.42477  0.46130  1.0000
  H   H539      1.0  0.64593  0.26697  0.39204  1.0000
  H   H540      1.0  0.66830  0.32547  0.53147  1.0000
  H   H541      1.0  0.57348  0.22164  0.41875  1.0000
  C   C540      1.0  0.54839  0.07671  0.67661  1.0000
  C   C541      1.0  0.55662  0.23760  0.41204  1.0000
  H   H542      1.0  0.68759  0.29896  0.40619  1.0000
  C   C542      1.0  0.59487  0.02895  0.68565  1.0000
  C   C543      1.0  0.53900  0.22501  0.39871  1.0000
  S   S183      1.0  0.60775  0.10956  0.39399  1.0000
  H   H543      1.0  0.62774  0.26392  0.41275  1.0000
  H   H544      1.0  0.55325  0.36212  0.66822  1.0000
  H   H545      1.0  0.60606  0.25927  0.63990  1.0000
  C   C544      1.0  0.52685  0.47094  0.44429  1.0000
  S   S184      1.0  0.68307  0.12849  0.40054  1.0000
  C   C545      1.0  0.62177  0.36888  0.41171  1.0000
  Fe  Fe95      1.0  0.66435  0.18075  0.40344  1.0000
  N   N44       1.0  0.70022  0.20780  0.44869  1.0000
  C   C546      1.0  0.73128  0.21407  0.44409  1.0000
  C   C547      1.0  0.69027  0.17622  0.44870  1.0000
  C   C548      1.0  0.75324  0.18845  0.43919  1.0000
  C   C549      1.0  0.71160  0.15001  0.44384  1.0000
  C   C550      1.0  0.74321  0.15625  0.43899  1.0000
  C   C551      1.0  0.67753  0.23546  0.45305  1.0000
  H   H546      1.0  0.73884  0.23914  0.44361  1.0000
  H   H547      1.0  0.66561  0.17105  0.45221  1.0000
  H   H548      1.0  0.77745  0.19377  0.43495  1.0000
  H   H549      1.0  0.70345  0.12507  0.44359  1.0000
  H   H550      1.0  0.75973  0.13623  0.43479  1.0000
  H   H551      1.0  0.65358  0.22720  0.45727  1.0000
  H   H552      1.0  0.68754  0.25059  0.46332  1.0000
  H   H553      1.0  0.67391  0.25136  0.44183  1.0000
  H   H554      1.0  0.85586  0.32362  0.44523  1.0000
  C   C552      1.0  0.59902  0.50132  0.44455  1.0000
  Fe  Fe96      1.0  0.92444  0.29056  0.37456  1.0000
  S   S185      1.0  0.63339  0.18041  0.38061  1.0000
  C   C553      1.0  0.55120  0.27047  0.41725  1.0000
  H   H555      1.0  0.60407  0.27874  0.39506  1.0000
  C   C554      1.0  0.63057  0.03835  0.46153  1.0000
  H   H556      1.0  0.55494  0.30171  0.66363  1.0000
  H   H557      1.0  0.79282  0.15731  0.39117  1.0000
  C   C555      1.0  0.58774  0.02289  0.63924  1.0000
  N   N45       1.0  0.60316  0.05416  0.67540  1.0000
  H   H558      1.0  0.52277  0.27247  0.49493  1.0000
  S   S186      1.0  0.52302  0.06263  0.61404  1.0000
  C   C556      1.0  0.53825  0.40367  0.44732  1.0000
  C   C557      1.0  0.63683  0.05619  0.66964  1.0000
  H   H559      1.0  0.59064  0.49806  0.43178  1.0000
  H   H560      1.0  0.55135  0.32708  0.60894  1.0000
  C   C558      1.0  0.53355  0.50645  0.55269  1.0000
  H   H561      1.0  0.52835  0.17882  0.57136  1.0000
  N   N46       1.0  0.52646  0.17179  0.54462  1.0000
  C   C559      1.0  0.53597  0.47949  0.47454  1.0000
  C   C560      1.0  0.58045  0.07794  0.67091  1.0000
  C   C561      1.0  0.53842  0.11462  0.42887  1.0000
  C   C562      1.0  0.52446  0.45061  0.43008  1.0000
  C   C563      1.0  0.54817  0.14224  0.54470  1.0000
  C   C564      1.0  0.53015  0.41679  0.43164  1.0000
  H   H562      1.0  0.53010  0.09505  0.67269  1.0000
  H   H563      1.0  0.69397  0.48519  0.68705  1.0000
  N   N47       1.0  0.52706  0.05360  0.44260  1.0000
  H   H564      1.0  0.53346  0.48035  0.54854  1.0000
  S   S187      1.0  0.52020  0.21284  0.60553  1.0000
  H   H565      1.0  0.52237  0.49720  0.44295  1.0000
  H   H566      1.0  0.58535  0.02785  0.59584  1.0000
  H   H567      1.0  0.55843  0.51175  0.55674  1.0000
  H   H568      1.0  0.51945  0.28141  0.59834  1.0000
  H   H569      1.0  0.52078  0.17102  0.51783  1.0000
  H   H570      1.0  0.52797  0.52270  0.54181  1.0000
  S   S188      1.0  0.89717  0.33375  0.36290  1.0000
  C   C565      1.0  0.51930  0.50665  0.58281  1.0000
  S   S189      1.0  0.52060  0.33139  0.41623  1.0000
  C   C566      1.0  0.70870  0.49955  0.69588  1.0000
  H   H571      1.0  0.69298  0.50539  0.70713  1.0000
  C   C567      1.0  0.98849  0.50921  0.98550  1.0000
  S   S190      1.0  0.99264  0.12463  0.00954  1.0000
  H   H572      1.0  0.61516  0.49830  0.70014  1.0000
  Fe  Fe97      1.0  0.00473  0.08971  0.98786  1.0000
  H   H573      1.0  0.00571  0.27765  0.01215  1.0000
  S   S191      1.0  0.96693  0.06775  0.97106  1.0000
  C   C568      1.0  0.95897  0.52165  0.97907  1.0000
  S   S192      1.0  0.99021  0.47105  0.99573  1.0000
  C   C569      1.0  0.97456  0.03054  0.95954  1.0000
  H   H574      1.0  0.93740  0.50795  0.98069  1.0000
  H   H575      1.0  0.73009  0.48413  0.69981  1.0000
  C   C570      1.0  0.00659  0.51702  0.93535  1.0000
  H   H576      1.0  0.99741  0.05981  0.92286  1.0000
  C   C571      1.0  0.00180  0.48872  0.94474  1.0000
  H   H577      1.0  0.92836  0.03355  0.94722  1.0000
  H   H578      1.0  0.97796  0.48384  0.94970  1.0000
  H   H579      1.0  0.94850  0.57324  0.17516  1.0000
  C   C572      1.0  0.94052  0.61882  0.16184  1.0000
  H   H580      1.0  0.94241  0.66423  0.13450  1.0000
  H   H581      1.0  0.91104  0.58423  0.06139  1.0000
  S   S193      1.0  0.97937  0.61690  0.11157  1.0000
  Fe  Fe98      1.0  0.99104  0.57424  0.12867  1.0000
  S   S194      1.0  0.95180  0.54375  0.13991  1.0000
  S   S195      1.0  0.00669  0.69471  0.13454  1.0000
  C   C573      1.0  0.94987  0.55773  0.04781  1.0000
  C   C574      1.0  0.97638  0.99672  0.14324  1.0000
  S   S196      1.0  0.97675  0.95672  0.13473  1.0000
  H   H582      1.0  0.01017  0.65138  0.18816  1.0000
  H   H583      1.0  0.00880  0.53478  0.16055  1.0000
  C   C575      1.0  0.95573  0.59831  0.17371  1.0000
  H   H584      1.0  0.97082  0.63593  0.07637  1.0000
  H   H585      1.0  0.99397  0.76352  0.14148  1.0000
  H   H586      1.0  0.93802  0.69774  0.14926  1.0000
  H   H587      1.0  0.92185  0.60902  0.15399  1.0000
  H   H588      1.0  0.93335  0.67085  0.05928  1.0000
  H   H589      1.0  0.96968  0.97258  0.18241  1.0000
  C   C576      1.0  0.98086  0.61000  0.18329  1.0000
  H   H590      1.0  0.99961  0.01592  0.04606  1.0000
  H   H591      1.0  0.98177  0.68703  0.16752  1.0000
  H   H592      1.0  0.95988  0.54680  0.05916  1.0000
  N   N48       1.0  0.94940  0.65050  0.15996  1.0000
  C   C577      1.0  0.97427  0.63691  0.06286  1.0000
  C   C578      1.0  0.95304  0.65667  0.05316  1.0000
  C   C579      1.0  0.99895  0.61754  0.05496  1.0000
  C   C580      1.0  0.97404  0.66221  0.16932  1.0000
  H   H593      1.0  0.90658  0.66891  0.14786  1.0000
  C   C581      1.0  0.94710  0.01528  0.14511  1.0000
  H   H594      1.0  0.00876  0.53180  0.04304  1.0000
  H   H595      1.0  0.99336  0.59398  0.19221  1.0000
  C   C582      1.0  0.00510  0.01009  0.14848  1.0000
  Fe  Fe99      1.0  0.01878  0.64241  0.12521  1.0000
  C   C583      1.0  0.99020  0.64214  0.18107  1.0000
  C   C584      1.0  0.93318  0.67134  0.14732  1.0000
  H   H596      1.0  0.92476  0.00503  0.14110  1.0000
  C   C585      1.0  0.95659  0.65740  0.03555  1.0000
  C   C586      1.0  0.92218  0.57880  0.04915  1.0000
  C   C587      1.0  0.90987  0.59395  0.03470  1.0000
  C   C588      1.0  0.00325  0.61911  0.03740  1.0000
  C   C589      1.0  0.99414  0.97949  0.18501  1.0000
  C   C590      1.0  0.01069  0.01578  0.08799  1.0000
  N   N49       1.0  0.96510  0.55232  0.03253  1.0000
  H   H597      1.0  0.00821  0.97768  0.05717  1.0000
  C   C591      1.0  0.99973  0.01054  0.19181  1.0000
  C   C592      1.0  0.01033  0.00476  0.05758  1.0000
  N   N50       1.0  0.99478  0.01849  0.07300  1.0000
  C   C593      1.0  0.01615  0.76110  0.13411  1.0000
  C   C594      1.0  0.99416  0.53030  0.03138  1.0000
  H   H598      1.0  0.88928  0.61148  0.03562  1.0000
  H   H599      1.0  0.01639  0.93482  0.17443  1.0000
  S   S197      1.0  0.53705  0.90004  0.48452  1.0000
  H   H600      1.0  0.62086  0.64755  0.47479  1.0000
  Fe  Fe100     1.0  0.55614  0.58899  0.48998  1.0000
  S   S198      1.0  0.60471  0.57631  0.47816  1.0000
  C   C595      1.0  0.71374  0.73988  0.66339  1.0000
  S   S199      1.0  0.54902  0.63047  0.50863  1.0000
  Fe  Fe101     1.0  0.59286  0.92974  0.52010  1.0000
  S   S200      1.0  0.55032  0.89953  0.52542  1.0000
  S   S201      1.0  0.62269  0.94705  0.54188  1.0000
  Fe  Fe102     1.0  0.58031  0.93136  0.48199  1.0000
  C   C596      1.0  0.75752  0.85610  0.69469  1.0000
  S   S202      1.0  0.59229  0.94877  0.45561  1.0000
  C   C597      1.0  0.79926  0.81476  0.68710  1.0000
  H   H601      1.0  0.60021  0.98458  0.42500  1.0000
  Fe  Fe103     1.0  0.56717  0.86957  0.50267  1.0000
  S   S203      1.0  0.57852  0.81452  0.50540  1.0000
  S   S204      1.0  0.56593  0.96555  0.50337  1.0000
  S   S205      1.0  0.61167  0.89842  0.49833  1.0000
  Fe  Fe104     1.0  0.63449  0.82407  0.65866  1.0000
  S   S206      1.0  0.67610  0.80976  0.64155  1.0000
  S   S207      1.0  0.60502  0.78624  0.67132  1.0000
  Fe  Fe105     1.0  0.64643  0.89650  0.65592  1.0000
  S   S208      1.0  0.68956  0.88843  0.63844  1.0000
  S   S209      1.0  0.62140  0.94388  0.66494  1.0000
  Fe  Fe106     1.0  0.65860  0.85205  0.62559  1.0000
  S   S210      1.0  0.65212  0.84148  0.59786  1.0000
  Fe  Fe107     1.0  0.70350  0.84682  0.65605  1.0000
  S   S211      1.0  0.75443  0.82838  0.66270  1.0000
  S   S212      1.0  0.61456  0.86334  0.64169  1.0000
  S   S213      1.0  0.66282  0.85797  0.67455  1.0000
  C   C598      1.0  0.55907  0.85635  0.68132  1.0000
  H   H602      1.0  0.80983  0.79710  0.67807  1.0000
  H   H603      1.0  0.58131  0.56836  0.65363  1.0000
  H   H604      1.0  0.87187  0.85066  0.67829  1.0000
  C   C599      1.0  0.77123  0.83362  0.68288  1.0000
  S   S214      1.0  0.53040  0.55351  0.50596  1.0000
  C   C600      1.0  0.68633  0.83436  0.55499  1.0000
  C   C601      1.0  0.61782  0.97467  0.64966  1.0000
  C   C602      1.0  0.64418  0.98204  0.63939  1.0000
  H   H605      1.0  0.74761  0.60872  0.66687  1.0000
  C   C603      1.0  0.58939  0.99469  0.64924  1.0000
  H   H606      1.0  0.66630  0.96676  0.63973  1.0000
  H   H607      1.0  0.73591  0.87071  0.69156  1.0000
  H   H608      1.0  0.55985  0.93826  0.68596  1.0000
  H   H609      1.0  0.69382  0.73621  0.65439  1.0000
  C   C604      1.0  0.64274  0.01066  0.62961  1.0000
  C   C605      1.0  0.64942  0.55903  0.67805  1.0000
  H   H610      1.0  0.92273  0.81771  0.68335  1.0000
  H   H611      1.0  0.61802  0.99848  0.47783  1.0000
  H   H612      1.0  0.52197  0.96988  0.54383  1.0000
  C   C606      1.0  0.65110  0.80957  0.53496  1.0000
  H   H613      1.0  0.66371  0.01720  0.62229  1.0000
  H   H614      1.0  0.53032  0.53722  0.67742  1.0000
  H   H615      1.0  0.62704  0.70750  0.47980  1.0000
  H   H616      1.0  0.54791  0.93325  0.56327  1.0000
  C   C607      1.0  0.63724  0.54234  0.69190  1.0000
  C   C608      1.0  0.88525  0.85480  0.68975  1.0000
  C   C609      1.0  0.56624  0.78376  0.64354  1.0000
  C   C610      1.0  0.57282  0.77177  0.65966  1.0000
  C   C611      1.0  0.55296  0.74859  0.66682  1.0000
  C   C612      1.0  0.54213  0.89906  0.66113  1.0000
  H   H617      1.0  0.58166  0.80135  0.63786  1.0000
  H   H618      1.0  0.55805  0.73931  0.67931  1.0000
  H   H619      1.0  0.61270  0.00965  0.68887  1.0000
  C   C613      1.0  0.62694  0.91938  0.55873  1.0000
  C   C614      1.0  0.64398  0.92809  0.57320  1.0000
  C   C615      1.0  0.64982  0.90509  0.58610  1.0000
  C   C616      1.0  0.63880  0.87330  0.58443  1.0000
  C   C617      1.0  0.62037  0.86529  0.57040  1.0000
  C   C618      1.0  0.61457  0.88817  0.55757  1.0000
  H   H620      1.0  0.65342  0.95234  0.57422  1.0000
  H   H621      1.0  0.66421  0.91140  0.59688  1.0000
  H   H622      1.0  0.61176  0.84075  0.56907  1.0000
  H   H623      1.0  0.60184  0.88094  0.54644  1.0000
  C   C619      1.0  0.56765  0.62002  0.65168  1.0000
  H   H624      1.0  0.56906  0.98918  0.65722  1.0000
  C   C620      1.0  0.56192  0.75046  0.50624  1.0000
  C   C621      1.0  0.55153  0.78274  0.50222  1.0000
  H   H625      1.0  0.57373  0.92395  0.59095  1.0000
  C   C622      1.0  0.55528  0.64773  0.67824  1.0000
  H   H626      1.0  0.53302  0.75973  0.45911  1.0000
  H   H627      1.0  0.53295  0.73716  0.43936  1.0000
  C   C623      1.0  0.73987  0.58639  0.67275  1.0000
  H   H628      1.0  0.70779  0.89091  0.56443  1.0000
  H   H629      1.0  0.58549  0.74584  0.51173  1.0000
  H   H630      1.0  0.64075  0.83816  0.51283  1.0000
  H   H631      1.0  0.58510  0.74779  0.46971  1.0000
  C   C624      1.0  0.60764  0.98781  0.45185  1.0000
  H   H632      1.0  0.55248  0.67128  0.65394  1.0000
  C   C625      1.0  0.60676  0.53688  0.46884  1.0000
  H   H633      1.0  0.85217  0.92154  0.69158  1.0000
  C   C626      1.0  0.91402  0.83618  0.69250  1.0000
  C   C627      1.0  0.57449  0.59099  0.66041  1.0000
  H   H634      1.0  0.52960  0.67808  0.56560  1.0000
  H   H635      1.0  0.57302  0.62912  0.45960  1.0000
  C   C628      1.0  0.60617  0.69911  0.47315  1.0000
  C   C629      1.0  0.60272  0.66558  0.47038  1.0000
  H   H636      1.0  0.52025  0.59443  0.58724  1.0000
  N   N51       1.0  0.55553  0.88895  0.67744  1.0000
  H   H637      1.0  0.54420  0.87879  0.65164  1.0000
  C   C630      1.0  0.58234  0.72176  0.46739  1.0000
  H   H638      1.0  0.66555  0.78728  0.55849  1.0000
  C   C631      1.0  0.66776  0.80810  0.55018  1.0000
  C   C632      1.0  0.57564  0.65515  0.46194  1.0000
  C   C633      1.0  0.56982  0.94877  0.58627  1.0000
  C   C634      1.0  0.56153  0.01159  0.57339  1.0000
  H   H639      1.0  0.69530  0.91300  0.54611  1.0000
  H   H640      1.0  0.56925  0.62019  0.63801  1.0000
  C   C635      1.0  0.67198  0.86295  0.52996  1.0000
  C   C636      1.0  0.53077  0.73501  0.45328  1.0000
  H   H641      1.0  0.72754  0.71615  0.66526  1.0000
  C   C637      1.0  0.60852  0.99964  0.43525  1.0000
  C   C638      1.0  0.55816  0.64866  0.66062  1.0000
  H   H642      1.0  0.55113  0.69928  0.50565  1.0000
  H   H643      1.0  0.63588  0.78986  0.53119  1.0000
  H   H644      1.0  0.65472  0.73281  0.67677  1.0000
  C   C639      1.0  0.65358  0.83692  0.52468  1.0000
  H   H645      1.0  0.74587  0.77260  0.68627  1.0000
  H   H646      1.0  0.55282  0.83767  0.67226  1.0000
  N   N52       1.0  0.70123  0.75253  0.67970  1.0000
  H   H647      1.0  0.69839  0.83342  0.56709  1.0000
  N   N53       1.0  0.68763  0.86164  0.54508  1.0000
  Fe  Fe108     1.0  0.52478  0.93265  0.50698  1.0000
  C   C640      1.0  0.70667  0.88924  0.55042  1.0000
  C   C641      1.0  0.61850  0.00739  0.46502  1.0000
  C   C642      1.0  0.65118  0.54360  0.66207  1.0000
  C   C643      1.0  0.54236  0.72395  0.50286  1.0000
  H   H648      1.0  0.82824  0.88576  0.68945  1.0000
  H   H649      1.0  0.65866  0.58320  0.67975  1.0000
  H   H650      1.0  0.73001  0.75766  0.65753  1.0000
  N   N54       1.0  0.55545  0.71119  0.45947  1.0000
  C   C644      1.0  0.53971  0.77274  0.63463  1.0000
  H   H651      1.0  0.54716  0.66988  0.68508  1.0000
  C   C645      1.0  0.55513  0.95420  0.57064  1.0000
  C   C646      1.0  0.56316  0.91242  0.68899  1.0000
  C   C647      1.0  0.67040  0.74654  0.68480  1.0000
  H   H652      1.0  0.54172  0.00309  0.44424  1.0000
  H   H653      1.0  0.58442  0.55290  0.44572  1.0000
  N   N55       1.0  0.55082  0.98537  0.56450  1.0000
  C   C648      1.0  0.55192  0.67836  0.45670  1.0000
  C   C649      1.0  0.51991  0.74951  0.64175  1.0000
  H   H654      1.0  0.73160  0.88623  0.54512  1.0000
  C   C650      1.0  0.59539  0.53232  0.45245  1.0000
  H   H655      1.0  0.67289  0.88460  0.52212  1.0000
  H   H656      1.0  0.53050  0.66996  0.45054  1.0000
  C   C651      1.0  0.57145  0.59101  0.67802  1.0000
  N   N56       1.0  0.56201  0.61911  0.68668  1.0000
  H   H657      1.0  0.52350  0.02081  0.46328  1.0000
  C   C652      1.0  0.57663  0.00700  0.58895  1.0000
  H   H658      1.0  0.57579  0.56819  0.68471  1.0000
  C   C653      1.0  0.73630  0.55796  0.66309  1.0000
  S   S215      1.0  0.52450  0.59379  0.55136  1.0000
  H   H659      1.0  0.55545  0.91989  0.65599  1.0000
  C   C654      1.0  0.58071  0.97540  0.59545  1.0000
  H   H660      1.0  0.59274  0.97154  0.60743  1.0000
  N   N57       1.0  0.71915  0.52964  0.68788  1.0000
  C   C655      1.0  0.52098  0.78843  0.49515  1.0000
  H   H661      1.0  0.74101  0.55797  0.64958  1.0000
  H   H662      1.0  0.66186  0.55596  0.65150  1.0000
  H   H663      1.0  0.55621  0.99354  0.53834  1.0000
  H   H664      1.0  0.52020  0.01321  0.54793  1.0000
  C   C656      1.0  0.53659  0.99074  0.54783  1.0000
  C   C657      1.0  0.72107  0.76918  0.69007  1.0000
  C   C658      1.0  0.52652  0.73739  0.65786  1.0000
  C   C659      1.0  0.73326  0.58610  0.69005  1.0000
  H   H665      1.0  0.53465  0.78212  0.62215  1.0000
  C   C660      1.0  0.72610  0.52955  0.67094  1.0000
  C   C661      1.0  0.52253  0.02065  0.44926  1.0000
  Fe  Fe109     1.0  0.88368  0.78828  0.77711  1.0000
  S   S216      1.0  0.92041  0.75336  0.76471  1.0000
  S   S217      1.0  0.87962  0.78515  0.80542  1.0000
  Fe  Fe110     1.0  0.93093  0.79544  0.74783  1.0000
  Fe  Fe111     1.0  0.88072  0.74334  0.74655  1.0000
  S   S218      1.0  0.86717  0.69184  0.74059  1.0000
  S   S219      1.0  0.84309  0.77471  0.76039  1.0000
  Fe  Fe112     1.0  0.69682  0.66694  0.71312  1.0000
  S   S220      1.0  0.69982  0.62324  0.73008  1.0000
  C   C662      1.0  0.77244  0.86045  0.71038  1.0000
  Fe  Fe113     1.0  0.62547  0.68041  0.71967  1.0000
  S   S221      1.0  0.62233  0.63829  0.73743  1.0000
  S   S222      1.0  0.58019  0.70760  0.71117  1.0000
  Fe  Fe114     1.0  0.66901  0.65530  0.74774  1.0000
  S   S223      1.0  0.67982  0.65270  0.77553  1.0000
  Fe  Fe115     1.0  0.65304  0.61015  0.71819  1.0000
  H   H666      1.0  0.98621  0.53426  0.93326  1.0000
  S   S224      1.0  0.66953  0.70023  0.73162  1.0000
  C   C663      1.0  0.01467  0.55676  0.97451  1.0000
  Fe  Fe116     1.0  0.89893  0.69511  0.96275  1.0000
  S   S225      1.0  0.94454  0.69080  0.94711  1.0000
  S   S226      1.0  0.85084  0.71845  0.95465  1.0000
  S   S227      1.0  0.92684  0.67861  0.02365  1.0000
  Fe  Fe117     1.0  0.96643  0.72015  0.96775  1.0000
  H   H667      1.0  0.71719  0.55740  0.71090  1.0000
  Fe  Fe118     1.0  0.95770  0.64722  0.96341  1.0000
  H   H668      1.0  0.95750  0.76257  0.92681  1.0000
  S   S228      1.0  0.90993  0.64870  0.97737  1.0000
  Fe  Fe119     1.0  0.71459  0.76971  0.84638  1.0000
  S   S229      1.0  0.67787  0.80038  0.86145  1.0000
  S   S230      1.0  0.71669  0.77724  0.81813  1.0000
  Fe  Fe120     1.0  0.74095  0.73438  0.87750  1.0000
  S   S231      1.0  0.70516  0.76075  0.89512  1.0000
  S   S232      1.0  0.78186  0.69817  0.88437  1.0000
  Fe  Fe121     1.0  0.66811  0.75371  0.87488  1.0000
  S   S233      1.0  0.61720  0.73572  0.87803  1.0000
  Fe  Fe122     1.0  0.71766  0.80513  0.88028  1.0000
  S   S234      1.0  0.72560  0.85302  0.89359  1.0000
  S   S235      1.0  0.70281  0.72246  0.85865  1.0000
  S   S236      1.0  0.75545  0.77942  0.86381  1.0000
  Fe  Fe123     1.0  0.92446  0.89189  0.88025  1.0000
  S   S237      1.0  0.90961  0.84459  0.89135  1.0000
  S   S238      1.0  0.91088  0.90452  0.85338  1.0000
  Fe  Fe124     1.0  0.96321  0.90965  0.91166  1.0000
  S   S239      1.0  0.95235  0.86225  0.92449  1.0000
  S   S240      1.0  0.99915  0.94231  0.92427  1.0000
  Fe  Fe125     1.0  0.96129  0.83838  0.89909  1.0000
  H   H669      1.0  0.79222  0.82645  0.82288  1.0000
  Fe  Fe126     1.0  0.90189  0.87324  0.91521  1.0000
  S   S241      1.0  0.85803  0.86627  0.93145  1.0000
  S   S242      1.0  0.97676  0.88444  0.88690  1.0000
  S   S243      1.0  0.91206  0.92198  0.90374  1.0000
  C   C664      1.0  0.98750  0.97411  0.93890  1.0000
  H   H670      1.0  0.51922  0.88072  0.78081  1.0000
  H   H671      1.0  0.63750  0.68179  0.85467  1.0000
  H   H672      1.0  0.95003  0.78780  0.79380  1.0000
  H   H673      1.0  0.93261  0.86815  0.73074  1.0000
  C   C665      1.0  0.87114  0.76100  0.90907  1.0000
  C   C666      1.0  0.58204  0.76229  0.87687  1.0000
  C   C667      1.0  0.55147  0.74870  0.87626  1.0000
  C   C668      1.0  0.95289  0.56672  0.01827  1.0000
  C   C669      1.0  0.55533  0.81684  0.87646  1.0000
  C   C670      1.0  0.58386  0.79649  0.87679  1.0000
  H   H674      1.0  0.54982  0.72228  0.87637  1.0000
  H   H675      1.0  0.55700  0.84326  0.87675  1.0000
  H   H676      1.0  0.60719  0.80728  0.87739  1.0000
  C   C671      1.0  0.76283  0.85581  0.90382  1.0000
  C   C672      1.0  0.79028  0.83647  0.89878  1.0000
  C   C673      1.0  0.82010  0.84061  0.90669  1.0000
  C   C674      1.0  0.82219  0.86327  0.92001  1.0000
  C   C675      1.0  0.79469  0.88230  0.92510  1.0000
  C   C676      1.0  0.76528  0.87898  0.91684  1.0000
  H   H677      1.0  0.78866  0.81868  0.88866  1.0000
  H   H678      1.0  0.84125  0.82590  0.90266  1.0000
  H   H679      1.0  0.79618  0.90001  0.93530  1.0000
  H   H680      1.0  0.74421  0.89420  0.92066  1.0000
  C   C677      1.0  0.80066  0.84182  0.71452  1.0000
  S   S244      1.0  0.98384  0.67637  0.98262  1.0000
  C   C678      1.0  0.62831  0.66310  0.81310  1.0000
  H   H681      1.0  0.77463  0.71394  0.74837  1.0000
  H   H682      1.0  0.93982  0.98408  0.92902  1.0000
  C   C679      1.0  0.83227  0.71171  0.93506  1.0000
  C   C680      1.0  0.80420  0.73076  0.93120  1.0000
  C   C681      1.0  0.78885  0.72700  0.91564  1.0000
  C   C682      1.0  0.80114  0.70370  0.90388  1.0000
  C   C683      1.0  0.82929  0.68460  0.90769  1.0000
  C   C684      1.0  0.84497  0.68871  0.92322  1.0000
  H   H683      1.0  0.79409  0.74841  0.94026  1.0000
  H   H684      1.0  0.76721  0.74179  0.91285  1.0000
  H   H685      1.0  0.83888  0.66649  0.89863  1.0000
  H   H686      1.0  0.86661  0.67392  0.92607  1.0000
  C   C685      1.0  0.69189  0.68760  0.78653  1.0000
  C   C686      1.0  0.68713  0.71922  0.77999  1.0000
  C   C687      1.0  0.69510  0.74669  0.78970  1.0000
  C   C688      1.0  0.70737  0.74262  0.80603  1.0000
  C   C689      1.0  0.71251  0.71100  0.81241  1.0000
  C   C690      1.0  0.70480  0.68360  0.80269  1.0000
  H   H687      1.0  0.67683  0.72253  0.76762  1.0000
  H   H688      1.0  0.69124  0.77116  0.78467  1.0000
  H   H689      1.0  0.72290  0.70751  0.82474  1.0000
  H   H690      1.0  0.70857  0.65917  0.80780  1.0000
  C   C691      1.0  0.56949  0.74518  0.72121  1.0000
  C   C692      1.0  0.58910  0.75847  0.73355  1.0000
  C   C693      1.0  0.58016  0.78903  0.74103  1.0000
  C   C694      1.0  0.55151  0.80608  0.73630  1.0000
  S   S245      1.0  0.82103  0.85095  0.73333  1.0000
  H   H691      1.0  0.72557  0.79543  0.71364  1.0000
  H   H692      1.0  0.61109  0.74529  0.73729  1.0000
  H   H693      1.0  0.59543  0.79947  0.75048  1.0000
  H   H694      1.0  0.88129  0.90026  0.72542  1.0000
  C   C695      1.0  0.67788  0.77686  0.71066  1.0000
  H   H695      1.0  0.63687  0.63348  0.83517  1.0000
  C   C696      1.0  0.92787  0.74483  0.90694  1.0000
  C   C697      1.0  0.88921  0.81880  0.81807  1.0000
  C   C698      1.0  0.89760  0.81300  0.83486  1.0000
  C   C699      1.0  0.90497  0.83908  0.84554  1.0000
  C   C700      1.0  0.90305  0.87139  0.83976  1.0000
  C   C701      1.0  0.89468  0.87728  0.82289  1.0000
  C   C702      1.0  0.88805  0.85097  0.81199  1.0000
  H   H696      1.0  0.89878  0.78814  0.83960  1.0000
  H   H697      1.0  0.91258  0.83388  0.85816  1.0000
  H   H698      1.0  0.89323  0.90222  0.81826  1.0000
  H   H699      1.0  0.88134  0.85566  0.79904  1.0000
  C   C703      1.0  0.83161  0.69056  0.72876  1.0000
  C   C704      1.0  0.81361  0.66230  0.72906  1.0000
  C   C705      1.0  0.78441  0.66137  0.72026  1.0000
  C   C706      1.0  0.77383  0.68820  0.71054  1.0000
  C   C707      1.0  0.79208  0.71628  0.71003  1.0000
  C   C708      1.0  0.82058  0.71774  0.71941  1.0000
  H   H700      1.0  0.82213  0.64119  0.73622  1.0000
  C   C709      1.0  0.98217  0.63912  0.02771  1.0000
  C   C710      1.0  0.92513  0.58771  0.01913  1.0000
  H   H701      1.0  0.83433  0.73964  0.71913  1.0000
  S   S246      1.0  0.89429  0.78233  0.72821  1.0000
  S   S247      1.0  0.89648  0.83132  0.76155  1.0000
  C   C711      1.0  0.80591  0.74074  0.79965  1.0000
  H   H702      1.0  0.77063  0.63952  0.72061  1.0000
  H   H703      1.0  0.78416  0.73705  0.70249  1.0000
  H   H704      1.0  0.62383  0.75583  0.79742  1.0000
  C   C712      1.0  0.98646  0.82611  0.84695  1.0000
  C   C713      1.0  0.01620  0.52714  0.98347  1.0000
  H   H705      1.0  0.91631  0.60014  0.00792  1.0000
  C   C714      1.0  0.97488  0.84684  0.81912  1.0000
  H   H706      1.0  0.99519  0.74486  0.74618  1.0000
  H   H707      1.0  0.97408  0.76441  0.81905  1.0000
  C   C715      1.0  0.93138  0.84137  0.70721  1.0000
  C   C716      1.0  0.98206  0.85265  0.83609  1.0000
  N   N58       1.0  0.97182  0.81547  0.81321  1.0000
  H   H708      1.0  0.84671  0.76032  0.90429  1.0000
  N   N59       1.0  0.87396  0.87771  0.70143  1.0000
  H   H709      1.0  0.59780  0.76628  0.81540  1.0000
  S   S248      1.0  0.63929  0.55823  0.71259  1.0000
  H   H710      1.0  0.93486  0.56009  0.96461  1.0000
  H   H711      1.0  0.93860  0.80296  0.94725  1.0000
  N   N60       1.0  0.62562  0.72157  0.81779  1.0000
  H   H712      1.0  0.82207  0.89334  0.88061  1.0000
  N   N61       1.0  0.80395  0.87319  0.85768  1.0000
  H   H713      1.0  0.76233  0.87866  0.71926  1.0000
  C   C717      1.0  0.87714  0.77772  0.92414  1.0000
  N   N62       1.0  0.90787  0.77845  0.93025  1.0000
  C   C718      1.0  0.83027  0.88611  0.86761  1.0000
  H   H714      1.0  0.98682  0.77352  0.84927  1.0000
  H   H715      1.0  0.95363  0.82696  0.70961  1.0000
  H   H716      1.0  0.85698  0.67772  0.78621  1.0000
  H   H717      1.0  0.80321  0.75943  0.80949  1.0000
  N   N63       1.0  0.80550  0.81465  0.96432  1.0000
  C   C719      1.0  0.82327  0.84165  0.96694  1.0000
  C   C720      1.0  0.81409  0.78550  0.97188  1.0000
  C   C721      1.0  0.85052  0.83985  0.97726  1.0000
  C   C722      1.0  0.84108  0.78285  0.98234  1.0000
  C   C723      1.0  0.85946  0.81019  0.98499  1.0000
  C   C724      1.0  0.77852  0.81645  0.95246  1.0000
  H   H718      1.0  0.81684  0.86466  0.96076  1.0000
  H   H719      1.0  0.80051  0.76378  0.96961  1.0000
  H   H720      1.0  0.86484  0.86123  0.97898  1.0000
  H   H721      1.0  0.84810  0.75939  0.98797  1.0000
  H   H722      1.0  0.88076  0.80822  0.99287  1.0000
  H   H723      1.0  0.76589  0.84119  0.95279  1.0000
  H   H724      1.0  0.78775  0.81152  0.93938  1.0000
  H   H725      1.0  0.76021  0.79825  0.95553  1.0000
  C   C725      1.0  0.83600  0.69477  0.78669  1.0000
  C   C726      1.0  0.93311  0.76220  0.92191  1.0000
  H   H726      1.0  0.90893  0.77783  0.95687  1.0000
  C   C727      1.0  0.95761  0.99154  0.93800  1.0000
  H   H727      1.0  0.74904  0.69110  0.76221  1.0000
  H   H728      1.0  0.95009  0.83079  0.79004  1.0000
  C   C728      1.0  0.52477  0.80325  0.87602  1.0000
  S   S249      1.0  0.65279  0.65106  0.69959  1.0000
  H   H729      1.0  0.89715  0.81729  0.94796  1.0000
  Fe  Fe127     1.0  0.93536  0.68085  0.99559  1.0000
  H   H730      1.0  0.85702  0.78984  0.93099  1.0000
  H   H731      1.0  0.98496  0.63935  0.01414  1.0000
  C   C729      1.0  0.76247  0.71396  0.76095  1.0000
  C   C730      1.0  0.63000  0.71693  0.83469  1.0000
  C   C731      1.0  0.63385  0.68522  0.84122  1.0000
  C   C732      1.0  0.63329  0.65817  0.83030  1.0000
  C   C733      1.0  0.62177  0.75517  0.81142  1.0000
  C   C734      1.0  0.65815  0.75890  0.70024  1.0000
  H   H732      1.0  0.74475  0.73531  0.76137  1.0000
  H   H733      1.0  0.85092  0.72002  0.80914  1.0000
  S   S250      1.0  0.98528  0.60185  0.95352  1.0000
  S   S251      1.0  0.98057  0.81554  0.74330  1.0000
  C   C735      1.0  0.98372  0.79420  0.84079  1.0000
  C   C736      1.0  0.91337  0.79494  0.94640  1.0000
  C   C737      1.0  0.62413  0.69516  0.80705  1.0000
  H   H734      1.0  0.62849  0.64233  0.80439  1.0000
  H   H735      1.0  0.76274  0.75698  0.78694  1.0000
  H   H736      1.0  0.89217  0.73077  0.88896  1.0000
  H   H737      1.0  0.66853  0.78667  0.72263  1.0000
  H   H738      1.0  0.72217  0.87471  0.85648  1.0000
  H   H739      1.0  0.99151  0.83022  0.86020  1.0000
  C   C738      1.0  0.98546  0.56859  0.96753  1.0000
  H   H740      1.0  0.73478  0.83984  0.83104  1.0000
  C   C739      1.0  0.70971  0.78184  0.70563  1.0000
  H   H741      1.0  0.58901  0.86299  0.72090  1.0000
  H   H742      1.0  0.62080  0.69865  0.79361  1.0000
  H   H743      1.0  0.94802  0.73219  0.90033  1.0000
  C   C740      1.0  0.74712  0.86925  0.85257  1.0000
  H   H744      1.0  0.63079  0.73787  0.84322  1.0000
  C   C741      1.0  0.78302  0.73913  0.78686  1.0000
  C   C742      1.0  0.75422  0.84952  0.83838  1.0000
  H   H745      1.0  0.81513  0.67493  0.76440  1.0000
  H   H746      1.0  0.85036  0.86723  0.86891  1.0000
  C   C743      1.0  0.81234  0.69348  0.77428  1.0000
  C   C744      1.0  0.57523  0.90350  0.70479  1.0000
  C   C745      1.0  0.52294  0.76905  0.87574  1.0000
  C   C746      1.0  0.00394  0.01236  0.96084  1.0000
  S   S252      1.0  0.73846  0.68646  0.69857  1.0000
  H   H747      1.0  0.76657  0.89632  0.87312  1.0000
  C   C747      1.0  0.83263  0.71850  0.79949  1.0000
  H   H748      1.0  0.64111  0.77041  0.81652  1.0000
  C   C748      1.0  0.77242  0.88121  0.86203  1.0000
  C   C749      1.0  0.89667  0.74431  0.90049  1.0000
  C   C750      1.0  0.95746  0.55127  0.97009  1.0000
  S   S253      1.0  0.92026  0.72727  0.98242  1.0000
  C   C751      1.0  0.89060  0.88261  0.71600  1.0000
  S   S254      1.0  0.98583  0.79050  0.89059  1.0000
  C   C752      1.0  0.78643  0.84193  0.83385  1.0000
  Fe  Fe128     1.0  0.85901  0.81463  0.74340  1.0000
  S   S255      1.0  0.99253  0.76519  0.96048  1.0000
  H   H749      1.0  0.83988  0.90790  0.86129  1.0000
  H   H750      1.0  0.83606  0.84823  0.84006  1.0000
  C   C753      1.0  0.81113  0.85416  0.84367  1.0000
  N   N64       1.0  0.78649  0.71572  0.77435  1.0000
  C   C754      1.0  0.96464  0.80978  0.79535  1.0000
  S   S256      1.0  0.54103  0.84473  0.74522  1.0000
  H   H751      1.0  0.53221  0.60822  0.70751  1.0000
  C   C755      1.0  0.57955  0.87031  0.70872  1.0000
  H   H752      1.0  0.57521  0.60099  0.71092  1.0000
  C   C756      1.0  0.97647  0.78927  0.82375  1.0000
  H   H753      1.0  0.58106  0.92219  0.71393  1.0000
  C   C757      1.0  0.54085  0.76224  0.71655  1.0000
  H   H754      1.0  0.96526  0.56304  0.00626  1.0000
  H   H755      1.0  0.55793  0.64215  0.71105  1.0000
  H   H756      1.0  0.83542  0.80404  0.70598  1.0000
  C   C758      1.0  0.55658  0.61759  0.70497  1.0000
  H   H757      1.0  0.98745  0.80610  0.78784  1.0000
  C   C759      1.0  0.81370  0.81851  0.70294  1.0000
  C   C760      1.0  0.53179  0.79258  0.72415  1.0000
  C   C761      1.0  0.91954  0.86455  0.71911  1.0000
  H   H758      1.0  0.63330  0.75486  0.70389  1.0000
  H   H759      1.0  0.97098  0.86765  0.81082  1.0000
  C   C762      1.0  0.95123  0.01969  0.94827  1.0000
  H   H760      1.0  0.01448  0.81116  0.92191  1.0000
  H   H761      1.0  0.55612  0.00651  0.69928  1.0000
  H   H762      1.0  0.52580  0.75187  0.70701  1.0000
  H   H763      1.0  0.01008  0.53705  0.02069  1.0000
  H   H764      1.0  0.83127  0.90515  0.70961  1.0000
  C   C763      1.0  0.01036  0.98439  0.95053  1.0000
  H   H765      1.0  0.98317  0.87763  0.84089  1.0000
  H   H766      1.0  0.57465  0.82064  0.69990  1.0000
  C   C764      1.0  0.57134  0.84655  0.69696  1.0000
  H   H767      1.0  0.01537  0.68683  0.93428  1.0000
  C   C765      1.0  0.84508  0.89865  0.69780  1.0000
  C   C766      1.0  0.01773  0.75724  0.74609  1.0000
  C   C767      1.0  0.01734  0.79149  0.74499  1.0000
  C   C768      1.0  0.72290  0.55731  0.69748  1.0000
  H   H768      1.0  0.73595  0.60820  0.69759  1.0000
