data_image0
_chemical_formula_structural       FeHSC4HCH2S2HNH2CS2FeCSC3H2FeHFeC2H4SCHC3H4SH2CHC5H2CH2N2HCHSCH2SCH2C3HC3HCHCFeC4SHS2HCHC3H3S2HC2FeSCH2C2HS2CH2FeSCH3C2HCFeHSCFeCHFeHSH3CNCH2FeC2HC2HCH2FeHCSHFeSCH2SC2HSHCFeCHNH4CHSHCHCHCHSFeCH2C3S2CH2Fe2C2HSCHSHCH4C2H2CHNFeCH2SC2HCH2CSFeHSCFeCHFeCNH3CSCHS2HSC2HSHSH2CHSCSC2H2CSCH3C2HCH2C4H3C2HC2HN2C2HCH2C4H2CHCH3CHSHSH2CFeS2HC2H2SFeNC2SCHFeC2H4C2HCHSFeCSC3H4C3H2CNH2FeC2HCNC2H3C2H2C3H4CSCH2CS2C2HNCHC3HSH2SCHCHCNHSC2HCH2CHFeNC3Fe4SCFeHS2HC2H3CHC3HC2FeCSCHC2H2SH5CH2CSH2C3HSHCNH2SC2HCHCHCSCNC3SH2C2HCSCHCHCSCHSC2HFeC2SC2NSFeCHSCHFeHCH2SCSC3SCH3C2NC3NC3HCNHCH9C2H2CH2C3HCS2HS2CFeHCHSH2C2SC2HCH2Fe3CHCHFeCSH2CHC2H3C3HS2FeH2C3SHNH3NC5HCH2CHCHCH2NCSCH2C4H2C2H2C2HSHCHCH2C2HFe2S2HC2H4FeCSHFeCFeS3C2FeH2SC3SH2CH
_chemical_formula_sum              "Fe48 H288 S96 C288 N24"
_cell_length_a       22.7902
_cell_length_b       24.5485
_cell_length_c       22.1775
_cell_angle_alpha    116.352
_cell_angle_beta     80.7174
_cell_angle_gamma    109.379

_space_group_name_H-M_alt    "P 1"
_space_group_IT_number       1

loop_
  _space_group_symop_operation_xyz
  'x, y, z'

loop_
  _atom_site_type_symbol
  _atom_site_label
  _atom_site_symmetry_multiplicity
  _atom_site_fract_x
  _atom_site_fract_y
  _atom_site_fract_z
  _atom_site_occupancy
  Fe  Fe1       1.0  0.29191  0.52885  0.94777  1.0000
  H   H1        1.0  0.39343  0.79357  0.03528  1.0000
  S   S1        1.0  0.37166  0.66203  0.11124  1.0000
  C   C1        1.0  0.45737  0.88389  0.88954  1.0000
  C   C2        1.0  0.54079  0.56981  0.00035  1.0000
  C   C3        1.0  0.41137  0.96726  0.96606  1.0000
  C   C4        1.0  0.65009  0.88088  0.08876  1.0000
  H   H2        1.0  0.57555  0.76401  0.11684  1.0000
  C   C5        1.0  0.57711  0.57978  0.89586  1.0000
  H   H3        1.0  0.70433  0.67792  0.94897  1.0000
  H   H4        1.0  0.58687  0.82750  0.00581  1.0000
  S   S2        1.0  0.34148  0.62726  0.95771  1.0000
  S   S3        1.0  0.23868  0.56159  0.04542  1.0000
  H   H5        1.0  0.36732  0.96176  0.11634  1.0000
  N   N1        1.0  0.39945  0.76577  0.92984  1.0000
  H   H6        1.0  0.39471  0.85457  0.00980  1.0000
  H   H7        1.0  0.23567  0.83637  0.05769  1.0000
  C   C6        1.0  0.34905  0.75853  0.89779  1.0000
  S   S4        1.0  0.51424  0.66232  0.98394  1.0000
  S   S5        1.0  0.57595  0.88650  0.90921  1.0000
  Fe  Fe2       1.0  0.41483  0.62302  0.00950  1.0000
  C   C7        1.0  0.51178  0.91585  0.92721  1.0000
  S   S6        1.0  0.34853  0.99922  0.99339  1.0000
  C   C8        1.0  0.63509  0.85098  0.02089  1.0000
  C   C9        1.0  0.54721  0.60057  0.95862  1.0000
  C   C10       1.0  0.68264  0.85285  0.97264  1.0000
  H   H8        1.0  0.67060  0.82982  0.92018  1.0000
  H   H9        1.0  0.32089  0.79065  0.92182  1.0000
  Fe  Fe3       1.0  0.31965  0.56056  0.09048  1.0000
  H   H10       1.0  0.35357  0.89238  0.13207  1.0000
  Fe  Fe4       1.0  0.29488  0.66022  0.05882  1.0000
  C   C11       1.0  0.40679  0.90932  0.90944  1.0000
  C   C12       1.0  0.43507  0.72526  0.89951  1.0000
  H   H11       1.0  0.55858  0.99922  0.01206  1.0000
  H   H12       1.0  0.46462  0.83565  0.00579  1.0000
  H   H13       1.0  0.61392  0.88084  0.12695  1.0000
  H   H14       1.0  0.47383  0.72987  0.92588  1.0000
  S   S7        1.0  0.25887  0.74451  0.09300  1.0000
  C   C13       1.0  0.51637  0.97409  0.98307  1.0000
  H   H15       1.0  0.51566  0.58432  0.04771  1.0000
  C   C14       1.0  0.41347  0.81467  0.99859  1.0000
  C   C15       1.0  0.46656  0.00002  0.00205  1.0000
  C   C16       1.0  0.71203  0.91126  0.10740  1.0000
  H   H16       1.0  0.64430  0.74024  0.10273  1.0000
  H   H17       1.0  0.23557  0.01652  0.95100  1.0000
  H   H18       1.0  0.37732  0.82123  0.16596  1.0000
  H   H19       1.0  0.43039  0.64123  0.21669  1.0000
  S   S8        1.0  0.49633  0.89887  0.14898  1.0000
  H   H20       1.0  0.48878  0.72619  0.17967  1.0000
  H   H21       1.0  0.72424  0.93479  0.16009  1.0000
  C   C17       1.0  0.73000  0.94177  0.35801  1.0000
  H   H22       1.0  0.55897  0.88902  0.24816  1.0000
  C   C18       1.0  0.51220  0.69463  0.18026  1.0000
  C   C19       1.0  0.51025  0.86397  0.24783  1.0000
  C   C20       1.0  0.26889  0.98209  0.18854  1.0000
  C   C21       1.0  0.62942  0.58158  0.33418  1.0000
  C   C22       1.0  0.66687  0.93103  0.37556  1.0000
  H   H23       1.0  0.52323  0.99916  0.34013  1.0000
  H   H24       1.0  0.41664  0.92792  0.32969  1.0000
  C   C23       1.0  0.72011  0.54252  0.30000  1.0000
  H   H25       1.0  0.71970  0.78917  0.33142  1.0000
  H   H26       1.0  0.62839  0.79709  0.18567  1.0000
  N   N2        1.0  0.31014  0.95992  0.20304  1.0000
  N   N3        1.0  0.57328  0.70161  0.16052  1.0000
  H   H27       1.0  0.40620  0.96743  0.18397  1.0000
  C   C24       1.0  0.40799  0.82540  0.20114  1.0000
  H   H28       1.0  0.24871  0.95753  0.35173  1.0000
  S   S9        1.0  0.63748  0.00704  0.26633  1.0000
  C   C25       1.0  0.36168  0.94468  0.15639  1.0000
  H   H29       1.0  0.59464  0.58168  0.18281  1.0000
  H   H30       1.0  0.30289  0.63821  0.30329  1.0000
  S   S10       1.0  0.30765  0.53248  0.17637  1.0000
  C   C26       1.0  0.50844  0.60493  0.20053  1.0000
  H   H31       1.0  0.33569  0.77039  0.24424  1.0000
  H   H32       1.0  0.48305  0.56718  0.21613  1.0000
  C   C27       1.0  0.47065  0.86013  0.20286  1.0000
  C   C28       1.0  0.47885  0.64635  0.20067  1.0000
  C   C29       1.0  0.30290  0.95032  0.26042  1.0000
  H   H33       1.0  0.33519  0.93201  0.27158  1.0000
  C   C30       1.0  0.38434  0.79682  0.24579  1.0000
  C   C31       1.0  0.25389  0.96412  0.30570  1.0000
  C   C32       1.0  0.60325  0.66229  0.16207  1.0000
  H   H34       1.0  0.27452  0.98960  0.14294  1.0000
  C   C33       1.0  0.60733  0.75347  0.14068  1.0000
  H   H35       1.0  0.65204  0.66837  0.14755  1.0000
  C   C34       1.0  0.57112  0.61304  0.18156  1.0000
  Fe  Fe5       1.0  0.56631  0.99412  0.19897  1.0000
  C   C35       1.0  0.66128  0.54057  0.28569  1.0000
  C   C36       1.0  0.48667  0.83473  0.29228  1.0000
  C   C37       1.0  0.42348  0.80132  0.29137  1.0000
  C   C38       1.0  0.43079  0.96918  0.37627  1.0000
  S   S11       1.0  0.55182  0.74866  0.37390  1.0000
  H   H36       1.0  0.63503  0.93384  0.34650  1.0000
  S   S12       1.0  0.55509  0.57855  0.31897  1.0000
  S   S13       1.0  0.39061  0.76239  0.34393  1.0000
  H   H37       1.0  0.51718  0.83832  0.32735  1.0000
  C   C39       1.0  0.70752  0.75289  0.35198  1.0000
  H   H38       1.0  0.67686  0.70733  0.31650  1.0000
  C   C40       1.0  0.25733  0.64312  0.32793  1.0000
  C   C41       1.0  0.23709  0.73815  0.33490  1.0000
  C   C42       1.0  0.49121  0.00993  0.38209  1.0000
  H   H39       1.0  0.72703  0.54820  0.48781  1.0000
  H   H40       1.0  0.55881  0.60908  0.55383  1.0000
  H   H41       1.0  0.73350  0.65775  0.46022  1.0000
  S   S14       1.0  0.31629  0.92312  0.41815  1.0000
  S   S15       1.0  0.54750  0.71738  0.50463  1.0000
  H   H42       1.0  0.33788  0.58774  0.52726  1.0000
  C   C43       1.0  0.33422  0.78770  0.59858  1.0000
  C   C44       1.0  0.71368  0.62495  0.41134  1.0000
  Fe  Fe6       1.0  0.45387  0.75111  0.40172  1.0000
  S   S16       1.0  0.39531  0.71565  0.61373  1.0000
  C   C45       1.0  0.38910  0.98069  0.43056  1.0000
  H   H43       1.0  0.71781  0.62011  0.55608  1.0000
  H   H44       1.0  0.28981  0.84795  0.58866  1.0000
  C   C46       1.0  0.65640  0.62438  0.39633  1.0000
  C   C47       1.0  0.45938  0.58274  0.54426  1.0000
  H   H45       1.0  0.57970  0.01641  0.52766  1.0000
  S   S17       1.0  0.70178  0.77813  0.59709  1.0000
  S   S18       1.0  0.65629  0.88217  0.52750  1.0000
  C   C48       1.0  0.64444  0.91394  0.42902  1.0000
  H   H46       1.0  0.45310  0.61654  0.59516  1.0000
  H   H47       1.0  0.48324  0.93104  0.47688  1.0000
  Fe  Fe7       1.0  0.25036  0.93571  0.50563  1.0000
  S   S19       1.0  0.27083  0.00565  0.61261  1.0000
  C   C49       1.0  0.53806  0.01166  0.55886  1.0000
  H   H48       1.0  0.59517  0.90294  0.44097  1.0000
  H   H49       1.0  0.72663  0.55857  0.57367  1.0000
  H   H50       1.0  0.27947  0.55468  0.43439  1.0000
  C   C50       1.0  0.29909  0.83062  0.62195  1.0000
  C   C51       1.0  0.51934  0.57892  0.52107  1.0000
  H   H51       1.0  0.63258  0.65626  0.43361  1.0000
  C   C52       1.0  0.48382  0.96319  0.52994  1.0000
  Fe  Fe8       1.0  0.52371  0.66227  0.39508  1.0000
  H   H52       1.0  0.34972  0.77039  0.54665  1.0000
  S   S20       1.0  0.47424  0.81412  0.51064  1.0000
  C   C53       1.0  0.68572  0.91046  0.46645  1.0000
  Fe  Fe9       1.0  0.44999  0.72326  0.52262  1.0000
  C   C54       1.0  0.42954  0.95804  0.56907  1.0000
  H   H53       1.0  0.38690  0.92150  0.54649  1.0000
  Fe  Fe10      1.0  0.56964  0.80356  0.48471  1.0000
  H   H54       1.0  0.26036  0.76591  0.38294  1.0000
  S   S21       1.0  0.42342  0.66029  0.41502  1.0000
  H   H55       1.0  0.68039  0.76947  0.39956  1.0000
  H   H56       1.0  0.26482  0.67078  0.38290  1.0000
  H   H57       1.0  0.34206  0.55469  0.58387  1.0000
  C   C55       1.0  0.34668  0.54724  0.53030  1.0000
  N   N4        1.0  0.40919  0.54383  0.50385  1.0000
  C   C56       1.0  0.52782  0.53613  0.45549  1.0000
  H   H58       1.0  0.57400  0.53268  0.43672  1.0000
  H   H59       1.0  0.60812  0.84655  0.63128  1.0000
  Fe  Fe11      1.0  0.54939  0.65964  0.72353  1.0000
  C   C57       1.0  0.54840  0.95785  0.79782  1.0000
  C   C58       1.0  0.70007  0.93742  0.71229  1.0000
  H   H60       1.0  0.71978  0.60532  0.71150  1.0000
  C   C59       1.0  0.52762  0.87002  0.68849  1.0000
  C   C60       1.0  0.36979  0.66865  0.80187  1.0000
  H   H61       1.0  0.58083  0.60272  0.86300  1.0000
  C   C61       1.0  0.32543  0.78672  0.70827  1.0000
  H   H62       1.0  0.33643  0.77066  0.74204  1.0000
  H   H63       1.0  0.53230  0.98858  0.84572  1.0000
  Fe  Fe12      1.0  0.58544  0.79871  0.81924  1.0000
  H   H64       1.0  0.64450  0.99912  0.82483  1.0000
  C   C62       1.0  0.50595  0.91030  0.74872  1.0000
  S   S22       1.0  0.54767  0.74667  0.71435  1.0000
  H   H65       1.0  0.44743  0.64238  0.81260  1.0000
  Fe  Fe13      1.0  0.67764  0.72189  0.78615  1.0000
  S   S23       1.0  0.64582  0.66322  0.68028  1.0000
  C   C63       1.0  0.27574  0.85049  0.68799  1.0000
  H   H66       1.0  0.71587  0.59956  0.84063  1.0000
  H   H67       1.0  0.45409  0.83943  0.84563  1.0000
  S   S24       1.0  0.47761  0.56490  0.67936  1.0000
  C   C64       1.0  0.42049  0.67584  0.83539  1.0000
  C   C65       1.0  0.33360  0.71016  0.83327  1.0000
  H   H68       1.0  0.45634  0.90363  0.75796  1.0000
  S   S25       1.0  0.68405  0.81286  0.78266  1.0000
  H   H69       1.0  0.27100  0.84379  0.78246  1.0000
  C   C66       1.0  0.28896  0.82854  0.73124  1.0000
  Fe  Fe14      1.0  0.64695  0.75352  0.67911  1.0000
  C   C67       1.0  0.61197  0.96443  0.78558  1.0000
  H   H70       1.0  0.72597  0.98882  0.73699  1.0000
  N   N5        1.0  0.63298  0.92702  0.72504  1.0000
  H   H71       1.0  0.35831  0.63051  0.75203  1.0000
  H   H72       1.0  0.29340  0.70453  0.80822  1.0000
  H   H73       1.0  0.57483  0.55826  0.73821  1.0000
  H   H74       1.0  0.71117  0.92113  0.65750  1.0000
  C   C68       1.0  0.59166  0.87881  0.67760  1.0000
  H   H75       1.0  0.71713  0.91100  0.73173  1.0000
  S   S26       1.0  0.58152  0.71104  0.83043  1.0000
  H   H76       1.0  0.49508  0.83168  0.65083  1.0000
  C   C69       1.0  0.43000  0.00135  0.63644  1.0000
  H   H77       1.0  0.27079  0.97851  0.87026  1.0000
  C   C70       1.0  0.59988  0.52749  0.87451  1.0000
  H   H78       1.0  0.38776  0.99834  0.66702  1.0000
  C   C71       1.0  0.34815  0.76632  0.64190  1.0000
  H   H79       1.0  0.36444  0.88445  0.88075  1.0000
  S   S27       1.0  0.36914  0.52109  0.99194  1.0000
  Fe  Fe15      1.0  0.48046  0.17673  0.93394  1.0000
  C   C72       1.0  0.58324  0.32969  0.11771  1.0000
  H   H80       1.0  0.68190  0.26440  0.99633  1.0000
  H   H81       1.0  0.63521  0.31565  0.89694  1.0000
  C   C73       1.0  0.67107  0.33349  0.93522  1.0000
  C   C74       1.0  0.59588  0.49864  0.91762  1.0000
  C   C75       1.0  0.61333  0.13500  0.91615  1.0000
  S   S28       1.0  0.43512  0.25386  0.97285  1.0000
  S   S29       1.0  0.39265  0.09871  0.89409  1.0000
  C   C76       1.0  0.57279  0.36812  0.09187  1.0000
  H   H82       1.0  0.33814  0.42541  0.06266  1.0000
  H   H83       1.0  0.47046  0.04487  0.04557  1.0000
  Fe  Fe16      1.0  0.38083  0.09721  0.99551  1.0000
  Fe  Fe17      1.0  0.34637  0.17563  0.93965  1.0000
  C   C77       1.0  0.43473  0.36991  0.89498  1.0000
  C   C78       1.0  0.60189  0.36821  0.03132  1.0000
  H   H84       1.0  0.36101  0.32044  0.94310  1.0000
  S   S30       1.0  0.32580  0.16747  0.03776  1.0000
  C   C79       1.0  0.66188  0.11577  0.92361  1.0000
  H   H85       1.0  0.38243  0.34467  0.05944  1.0000
  S   S31       1.0  0.47247  0.17132  0.03378  1.0000
  H   H86       1.0  0.59300  0.39738  0.01073  1.0000
  C   C80       1.0  0.62269  0.29217  0.08305  1.0000
  H   H87       1.0  0.56219  0.49664  0.01339  1.0000
  H   H88       1.0  0.57114  0.12939  0.94582  1.0000
  H   H89       1.0  0.23762  0.43191  0.96694  1.0000
  H   H90       1.0  0.63030  0.26131  0.10209  1.0000
  C   C81       1.0  0.37285  0.34082  0.90669  1.0000
  C   C82       1.0  0.37985  0.38420  0.10635  1.0000
  H   H91       1.0  0.47181  0.37260  0.92229  1.0000
  H   H92       1.0  0.69814  0.38302  0.94361  1.0000
  C   C83       1.0  0.65155  0.29396  0.02307  1.0000
  H   H93       1.0  0.65676  0.09476  0.95875  1.0000
  N   N6        1.0  0.64095  0.33172  0.99807  1.0000
  Fe  Fe18      1.0  0.41802  0.24217  0.06878  1.0000
  C   C84       1.0  0.35439  0.42993  0.10833  1.0000
  H   H94       1.0  0.25568  0.25837  0.10225  1.0000
  H   H95       1.0  0.70290  0.30332  0.91399  1.0000
  S   S32       1.0  0.62328  0.43322  0.89255  1.0000
  C   C85       1.0  0.56667  0.51998  0.98069  1.0000
  C   C86       1.0  0.71569  0.12072  0.88339  1.0000
  H   H96       1.0  0.54161  0.39692  0.11819  1.0000
  C   C87       1.0  0.34651  0.47904  0.16996  1.0000
  H   H97       1.0  0.69741  0.34999  0.24136  1.0000
  H   H98       1.0  0.56893  0.27616  0.34524  1.0000
  C   C88       1.0  0.46472  0.20392  0.27478  1.0000
  S   S33       1.0  0.63474  0.04731  0.14499  1.0000
  Fe  Fe19      1.0  0.61285  0.13474  0.22434  1.0000
  H   H99       1.0  0.47884  0.16372  0.23318  1.0000
  S   S34       1.0  0.25578  0.24283  0.26089  1.0000
  C   C89       1.0  0.36622  0.48359  0.22911  1.0000
  Fe  Fe20      1.0  0.61101  0.09447  0.33681  1.0000
  C   C90       1.0  0.39390  0.43937  0.22666  1.0000
  H   H100      1.0  0.41415  0.19599  0.27126  1.0000
  Fe  Fe21      1.0  0.70369  0.06770  0.21909  1.0000
  C   C91       1.0  0.39960  0.38860  0.16550  1.0000
  N   N7        1.0  0.47912  0.20942  0.33974  1.0000
  H   H101      1.0  0.27709  0.35150  0.21196  1.0000
  H   H102      1.0  0.56006  0.32826  0.16401  1.0000
  H   H103      1.0  0.64043  0.50718  0.23741  1.0000
  C   C92       1.0  0.23965  0.34288  0.18129  1.0000
  S   S35       1.0  0.53682  0.07974  0.27115  1.0000
  C   C93       1.0  0.53500  0.24873  0.36937  1.0000
  H   H104      1.0  0.40853  0.44312  0.27270  1.0000
  S   S36       1.0  0.61877  0.22009  0.20794  1.0000
  S   S37       1.0  0.68452  0.15704  0.29661  1.0000
  H   H105      1.0  0.35969  0.52111  0.27709  1.0000
  S   S38       1.0  0.25505  0.42104  0.36522  1.0000
  C   C94       1.0  0.69943  0.25296  0.20043  1.0000
  C   C95       1.0  0.72648  0.31859  0.22199  1.0000
  H   H106      1.0  0.49014  0.24789  0.26742  1.0000
  S   S39       1.0  0.42783  0.33005  0.16638  1.0000
  H   H107      1.0  0.48335  0.46771  0.36139  1.0000
  S   S40       1.0  0.27794  0.15979  0.36803  1.0000
  H   H108      1.0  0.71742  0.16249  0.15981  1.0000
  H   H109      1.0  0.39493  0.13903  0.34366  1.0000
  C   C96       1.0  0.43793  0.17228  0.36849  1.0000
  H   H110      1.0  0.40980  0.27805  0.55393  1.0000
  S   S41       1.0  0.66516  0.40277  0.56152  1.0000
  C   C97       1.0  0.50709  0.21687  0.46108  1.0000
  S   S42       1.0  0.61614  0.25355  0.59431  1.0000
  C   C98       1.0  0.52054  0.46999  0.57854  1.0000
  C   C99       1.0  0.61285  0.44770  0.59111  1.0000
  H   H111      1.0  0.48352  0.11715  0.54351  1.0000
  H   H112      1.0  0.37820  0.47537  0.40519  1.0000
  C   C100      1.0  0.41743  0.50375  0.43850  1.0000
  S   S43       1.0  0.58615  0.11427  0.44497  1.0000
  C   C101      1.0  0.45113  0.17580  0.42976  1.0000
  H   H113      1.0  0.31024  0.50277  0.50175  1.0000
  H   H114      1.0  0.37537  0.04483  0.53283  1.0000
  H   H115      1.0  0.56279  0.40330  0.49859  1.0000
  C   C102      1.0  0.56540  0.43726  0.55075  1.0000
  C   C103      1.0  0.46876  0.07589  0.49680  1.0000
  H   H116      1.0  0.70962  0.08726  0.47059  1.0000
  C   C104      1.0  0.47675  0.49894  0.41349  1.0000
  H   H117      1.0  0.30309  0.34468  0.47265  1.0000
  H   H118      1.0  0.39552  0.30972  0.46616  1.0000
  C   C105      1.0  0.36956  0.29301  0.55566  1.0000
  C   C106      1.0  0.26549  0.33015  0.56205  1.0000
  C   C107      1.0  0.25187  0.11181  0.52426  1.0000
  C   C108      1.0  0.24762  0.15003  0.44174  1.0000
  H   H119      1.0  0.41899  0.14606  0.45250  1.0000
  H   H120      1.0  0.31167  0.10040  0.43666  1.0000
  H   H121      1.0  0.59415  0.28403  0.45401  1.0000
  C   C109      1.0  0.30966  0.33040  0.51028  1.0000
  C   C110      1.0  0.27433  0.11937  0.46499  1.0000
  H   H122      1.0  0.71301  0.19017  0.48639  1.0000
  C   C111      1.0  0.51050  0.06340  0.44214  1.0000
  C   C112      1.0  0.40759  0.03490  0.49077  1.0000
  H   H123      1.0  0.27282  0.08808  0.54196  1.0000
  N   N8        1.0  0.27295  0.31092  0.60880  1.0000
  N   N9        1.0  0.53819  0.05373  0.62499  1.0000
  C   C113      1.0  0.54967  0.25332  0.43070  1.0000
  C   C114      1.0  0.32474  0.29373  0.60685  1.0000
  H   H124      1.0  0.48418  0.46259  0.54744  1.0000
  C   C115      1.0  0.36165  0.31106  0.50681  1.0000
  H   H125      1.0  0.51788  0.21881  0.50796  1.0000
  H   H126      1.0  0.60688  0.13809  0.62880  1.0000
  C   C116      1.0  0.29154  0.18547  0.75755  1.0000
  C   C117      1.0  0.34181  0.36061  0.82123  1.0000
  C   C118      1.0  0.67369  0.16712  0.83069  1.0000
  C   C119      1.0  0.32065  0.18463  0.80784  1.0000
  H   H127      1.0  0.59121  0.13254  0.70842  1.0000
  H   H128      1.0  0.62066  0.50959  0.82485  1.0000
  C   C120      1.0  0.41812  0.41756  0.76144  1.0000
  H   H129      1.0  0.71991  0.31599  0.80220  1.0000
  C   C121      1.0  0.39016  0.19960  0.69704  1.0000
  H   H130      1.0  0.23667  0.36015  0.70488  1.0000
  H   H131      1.0  0.24263  0.18236  0.76239  1.0000
  H   H132      1.0  0.30523  0.35528  0.79163  1.0000
  C   C122      1.0  0.48505  0.04944  0.66373  1.0000
  H   H133      1.0  0.67832  0.18730  0.79493  1.0000
  S   S44       1.0  0.43673  0.22019  0.63508  1.0000
  H   H134      1.0  0.65108  0.49717  0.69052  1.0000
  S   S45       1.0  0.56452  0.37133  0.70533  1.0000
  H   H135      1.0  0.42880  0.38139  0.71232  1.0000
  H   H136      1.0  0.25925  0.05108  0.82996  1.0000
  C   C123      1.0  0.32607  0.33568  0.86935  1.0000
  Fe  Fe22      1.0  0.62212  0.37562  0.78079  1.0000
  S   S46       1.0  0.70680  0.37355  0.71361  1.0000
  S   S47       1.0  0.58770  0.27069  0.74958  1.0000
  H   H137      1.0  0.30361  0.19203  0.66253  1.0000
  C   C124      1.0  0.38348  0.18732  0.80035  1.0000
  C   C125      1.0  0.32621  0.19194  0.70153  1.0000
  H   H138      1.0  0.37934  0.43284  0.75560  1.0000
  H   H139      1.0  0.33156  0.27997  0.64462  1.0000
  S   S48       1.0  0.55912  0.18535  0.86077  1.0000
  Fe  Fe23      1.0  0.66965  0.26788  0.67907  1.0000
  N   N10       1.0  0.40233  0.39129  0.81183  1.0000
  C   C126      1.0  0.41814  0.19513  0.74536  1.0000
  C   C127      1.0  0.61529  0.49024  0.65895  1.0000
  S   S49       1.0  0.24653  0.45413  0.85073  1.0000
  C   C128      1.0  0.61918  0.16052  0.86964  1.0000
  H   H140      1.0  0.49674  0.41648  0.83729  1.0000
  Fe  Fe24      1.0  0.53650  0.26581  0.66786  1.0000
  C   C129      1.0  0.44866  0.39474  0.84679  1.0000
  C   C130      1.0  0.72207  0.14701  0.83743  1.0000
  H   H141      1.0  0.40609  0.18528  0.83783  1.0000
  H   H142      1.0  0.46662  0.19788  0.74057  1.0000
  H   H143      1.0  0.45941  0.46054  0.77685  1.0000
  H   H144      1.0  0.48484  0.08364  0.71589  1.0000
  C   C131      1.0  0.52447  0.51415  0.64600  1.0000
  C   C132      1.0  0.57162  0.52398  0.68616  1.0000
  H   H145      1.0  0.27807  0.31081  0.87630  1.0000
  C   C133      1.0  0.59541  0.10480  0.65319  1.0000
  H   H146      1.0  0.63494  0.08502  0.64459  1.0000
  S   S50       1.0  0.28100  0.18488  0.88246  1.0000
  Fe  Fe25      1.0  0.64628  0.35929  0.63485  1.0000
  C   C134      1.0  0.85994  0.58051  0.08507  1.0000
  S   S51       1.0  0.93132  0.80810  0.11352  1.0000
  C   C135      1.0  0.22898  0.73725  0.02129  1.0000
  C   C136      1.0  0.81935  0.61917  0.94568  1.0000
  C   C137      1.0  0.04107  0.62701  0.98246  1.0000
  H   H147      1.0  0.05397  0.61227  0.92830  1.0000
  H   H148      1.0  0.74447  0.68903  0.01864  1.0000
  H   H149      1.0  0.04956  0.82296  0.99762  1.0000
  H   H150      1.0  0.78377  0.72771  0.96360  1.0000
  C   C138      1.0  0.18793  0.66945  0.90949  1.0000
  C   C139      1.0  0.04487  0.73008  0.98821  1.0000
  C   C140      1.0  0.21220  0.67731  0.96765  1.0000
  H   H151      1.0  0.83072  0.93107  0.95910  1.0000
  H   H152      1.0  0.82055  0.54561  0.05441  1.0000
  C   C141      1.0  0.00710  0.99725  0.99421  1.0000
  N   N11       1.0  0.77326  0.62916  0.92300  1.0000
  H   H153      1.0  0.06653  0.60767  0.00320  1.0000
  H   H154      1.0  0.97863  0.98720  0.95380  1.0000
  Fe  Fe26      1.0  0.89370  0.87293  0.09685  1.0000
  C   C142      1.0  0.02711  0.97126  0.08065  1.0000
  C   C143      1.0  0.08448  0.82801  0.08531  1.0000
  H   H155      1.0  0.81259  0.84621  0.92727  1.0000
  C   C144      1.0  0.08157  0.72710  0.08072  1.0000
  N   N12       1.0  0.05691  0.69647  0.01775  1.0000
  C   C145      1.0  0.19698  0.78155  0.95807  1.0000
  C   C146      1.0  0.84193  0.56740  0.90583  1.0000
  H   H156      1.0  0.99039  0.60534  0.98751  1.0000
  H   H157      1.0  0.02547  0.70583  0.93823  1.0000
  H   H158      1.0  0.87727  0.55887  0.92494  1.0000
  C   C147      1.0  0.75840  0.91225  0.05787  1.0000
  C   C148      1.0  0.99066  0.95769  0.02782  1.0000
  H   H159      1.0  0.19065  0.82183  0.95455  1.0000
  H   H160      1.0  0.83896  0.65130  0.99481  1.0000
  C   C149      1.0  0.22206  0.78973  0.01644  1.0000
  C   C150      1.0  0.17850  0.72088  0.90520  1.0000
  C   C151      1.0  0.79257  0.88569  0.94039  1.0000
  H   H161      1.0  0.21712  0.63657  0.97124  1.0000
  H   H162      1.0  0.20521  0.93207  0.89945  1.0000
  H   H163      1.0  0.80656  0.93605  0.07311  1.0000
  H   H164      1.0  0.77484  0.88051  0.89378  1.0000
  C   C152      1.0  0.05901  0.79639  0.02121  1.0000
  S   S52       1.0  0.92275  0.89347  0.00624  1.0000
  C   C153      1.0  0.22590  0.97953  0.89862  1.0000
  H   H165      1.0  0.01603  0.93947  0.10502  1.0000
  H   H166      1.0  0.09093  0.70051  0.10431  1.0000
  C   C154      1.0  0.75033  0.68378  0.96582  1.0000
  S   S53       1.0  0.79525  0.66801  0.12250  1.0000
  S   S54       1.0  0.79646  0.82991  0.12517  1.0000
  C   C155      1.0  0.91240  0.56291  0.08592  1.0000
  C   C156      1.0  0.85877  0.64330  0.12369  1.0000
  H   H167      1.0  0.10176  0.93896  0.89768  1.0000
  N   N13       1.0  0.74324  0.88432  0.99150  1.0000
  C   C157      1.0  0.09554  0.79321  0.11547  1.0000
  H   H168      1.0  0.09451  0.87927  0.11219  1.0000
  C   C158      1.0  0.96329  0.60812  0.12571  1.0000
  C   C159      1.0  0.21464  0.76889  0.30770  1.0000
  C   C160      1.0  0.96170  0.67053  0.16478  1.0000
  H   H169      1.0  0.16253  0.64337  0.15980  1.0000
  S   S55       1.0  0.04459  0.90887  0.25601  1.0000
  H   H170      1.0  0.17363  0.99764  0.32625  1.0000
  H   H171      1.0  0.00006  0.70507  0.19735  1.0000
  S   S56       1.0  0.85657  0.84306  0.25856  1.0000
  C   C161      1.0  0.74580  0.58436  0.36332  1.0000
  H   H172      1.0  0.11467  0.81731  0.16554  1.0000
  C   C162      1.0  0.21177  0.98687  0.29149  1.0000
  H   H173      1.0  0.94960  0.90327  0.35661  1.0000
  C   C163      1.0  0.84957  0.69932  0.32061  1.0000
  N   N14       1.0  0.76423  0.74373  0.36375  1.0000
  H   H174      1.0  0.21988  0.81936  0.33484  1.0000
  S   S57       1.0  0.02652  0.58635  0.13302  1.0000
  C   C164      1.0  0.20587  0.64084  0.23799  1.0000
  C   C165      1.0  0.03612  0.88204  0.31870  1.0000
  H   H175      1.0  0.17088  0.75801  0.22224  1.0000
  C   C166      1.0  0.18733  0.73455  0.24457  1.0000
  H   H176      1.0  0.90874  0.73634  0.19434  1.0000
  H   H177      1.0  0.77637  0.68472  0.26031  1.0000
  C   C167      1.0  0.90989  0.68823  0.16313  1.0000
  H   H178      1.0  0.20347  0.59103  0.20987  1.0000
  Fe  Fe27      1.0  0.83650  0.77226  0.15200  1.0000
  N   N15       1.0  0.23194  0.67471  0.30028  1.0000
  C   C168      1.0  0.98373  0.88373  0.36127  1.0000
  C   C169      1.0  0.08204  0.85994  0.32708  1.0000
  C   C170      1.0  0.07503  0.83876  0.37771  1.0000
  Fe  Fe28      1.0  0.82334  0.90422  0.22939  1.0000
  Fe  Fe29      1.0  0.89185  0.55255  0.32299  1.0000
  Fe  Fe30      1.0  0.99466  0.55603  0.21692  1.0000
  Fe  Fe31      1.0  0.02140  0.55877  0.34832  1.0000
  S   S58       1.0  0.91748  0.95156  0.19946  1.0000
  C   C171      1.0  0.79483  0.70788  0.31059  1.0000
  Fe  Fe32      1.0  0.94949  0.88385  0.21827  1.0000
  H   H179      1.0  0.12286  0.85914  0.29460  1.0000
  S   S59       1.0  0.98576  0.62173  0.32493  1.0000
  S   S60       1.0  0.75623  0.95758  0.28792  1.0000
  H   H180      1.0  0.87271  0.66913  0.27903  1.0000
  C   C172      1.0  0.18286  0.67013  0.20936  1.0000
  C   C173      1.0  0.21905  0.99583  0.23254  1.0000
  H   H181      1.0  0.18654  0.01386  0.22147  1.0000
  H   H182      1.0  0.22543  0.59498  0.31897  1.0000
  H   H183      1.0  0.82015  0.94670  0.38169  1.0000
  C   C174      1.0  0.84673  0.57283  0.52865  1.0000
  H   H184      1.0  0.08760  0.76168  0.55989  1.0000
  C   C175      1.0  0.83579  0.67179  0.54687  1.0000
  C   C176      1.0  0.84159  0.76440  0.43910  1.0000
  C   C177      1.0  0.02275  0.84081  0.42055  1.0000
  H   H185      1.0  0.85968  0.78625  0.48937  1.0000
  C   C178      1.0  0.77136  0.93826  0.39545  1.0000
  C   C179      1.0  0.91135  0.59589  0.52250  1.0000
  Fe  Fe33      1.0  0.11213  0.88555  0.53483  1.0000
  C   C180      1.0  0.08142  0.77020  0.61256  1.0000
  S   S61       1.0  0.81676  0.58980  0.38917  1.0000
  C   C181      1.0  0.77843  0.81536  0.62560  1.0000
  H   H186      1.0  0.94049  0.56569  0.51286  1.0000
  C   C182      1.0  0.93797  0.65762  0.52738  1.0000
  C   C183      1.0  0.78701  0.77216  0.42741  1.0000
  H   H187      1.0  0.21368  0.62584  0.46585  1.0000
  H   H188      1.0  0.78093  0.92048  0.47971  1.0000
  S   S62       1.0  0.01957  0.82353  0.48956  1.0000
  H   H189      1.0  0.01556  0.82266  0.63148  1.0000
  H   H190      1.0  0.92024  0.74426  0.54392  1.0000
  H   H191      1.0  0.93909  0.86932  0.44838  1.0000
  H   H192      1.0  0.17602  0.72585  0.55528  1.0000
  H   H193      1.0  0.98757  0.67470  0.51924  1.0000
  C   C184      1.0  0.15478  0.71066  0.59621  1.0000
  H   H194      1.0  0.12800  0.65947  0.57317  1.0000
  H   H195      1.0  0.76208  0.79976  0.46959  1.0000
  C   C185      1.0  0.97746  0.86395  0.41279  1.0000
  S   S63       1.0  0.09006  0.60259  0.43073  1.0000
  H   H196      1.0  0.80644  0.70047  0.55250  1.0000
  H   H197      1.0  0.90680  0.93328  0.61977  1.0000
  C   C186      1.0  0.81726  0.86322  0.60717  1.0000
  C   C187      1.0  0.19385  0.57506  0.43850  1.0000
  C   C188      1.0  0.74195  0.58316  0.53975  1.0000
  H   H198      1.0  0.91507  0.72116  0.39394  1.0000
  S   S64       1.0  0.19433  0.85356  0.52983  1.0000
  H   H199      1.0  0.96268  0.01140  0.57498  1.0000
  C   C189      1.0  0.13253  0.55017  0.41656  1.0000
  N   N16       1.0  0.80982  0.61062  0.54043  1.0000
  H   H200      1.0  0.80031  0.87704  0.57490  1.0000
  H   H201      1.0  0.02636  0.97883  0.53570  1.0000
  S   S65       1.0  0.16666  0.96065  0.50013  1.0000
  C   C190      1.0  0.90018  0.69634  0.54071  1.0000
  C   C191      1.0  0.23092  0.53472  0.42148  1.0000
  H   H202      1.0  0.11069  0.82210  0.38469  1.0000
  C   C192      1.0  0.74931  0.92380  0.45080  1.0000
  H   H203      1.0  0.90906  0.02421  0.50313  1.0000
  C   C193      1.0  0.00874  0.02009  0.54961  1.0000
  H   H204      1.0  0.19367  0.71669  0.62530  1.0000
  C   C194      1.0  0.87312  0.72811  0.38525  1.0000
  S   S66       1.0  0.90032  0.52568  0.63163  1.0000
  C   C195      1.0  0.12146  0.96930  0.87144  1.0000
  N   N17       1.0  0.11357  0.74817  0.63942  1.0000
  C   C196      1.0  0.87710  0.89579  0.63346  1.0000
  C   C197      1.0  0.85986  0.83237  0.69613  1.0000
  C   C198      1.0  0.08148  0.98405  0.84316  1.0000
  S   S67       1.0  0.98136  0.58252  0.80102  1.0000
  H   H205      1.0  0.05609  0.79772  0.79883  1.0000
  H   H206      1.0  0.99841  0.83978  0.75103  1.0000
  C   C199      1.0  0.86294  0.58291  0.68424  1.0000
  C   C200      1.0  0.03069  0.81392  0.71984  1.0000
  H   H207      1.0  0.88765  0.72555  0.82130  1.0000
  C   C201      1.0  0.77350  0.53910  0.81764  1.0000
  S   S68       1.0  0.12177  0.95250  0.64334  1.0000
  C   C202      1.0  0.10456  0.75758  0.70541  1.0000
  H   H208      1.0  0.77114  0.76095  0.68210  1.0000
  C   C203      1.0  0.81885  0.52713  0.84126  1.0000
  H   H209      1.0  0.12981  0.73981  0.72659  1.0000
  C   C204      1.0  0.89484  0.63922  0.73624  1.0000
  S   S69       1.0  0.14006  0.70801  0.83570  1.0000
  C   C205      1.0  0.86325  0.68276  0.78010  1.0000
  H   H210      1.0  0.94387  0.64929  0.74261  1.0000
  S   S70       1.0  0.75964  0.72216  0.82991  1.0000
  C   C206      1.0  0.89740  0.88219  0.67999  1.0000
  C   C207      1.0  0.04002  0.80395  0.65247  1.0000
  H   H211      1.0  0.87533  0.82172  0.73223  1.0000
  Fe  Fe34      1.0  0.97389  0.52818  0.68934  1.0000
  C   C208      1.0  0.06301  0.79052  0.74660  1.0000
  C   C209      1.0  0.80020  0.67093  0.77071  1.0000
  S   S71       1.0  0.07664  0.55667  0.66997  1.0000
  C   C210      1.0  0.76882  0.61554  0.71758  1.0000
  C   C211      1.0  0.79993  0.57115  0.67498  1.0000
  N   N18       1.0  0.18456  0.99340  0.86666  1.0000
  S   S72       1.0  0.22794  0.90051  0.71656  1.0000
  Fe  Fe35      1.0  0.08441  0.60521  0.78257  1.0000
  C   C212      1.0  0.80032  0.79902  0.66897  1.0000
  H   H212      1.0  0.17718  0.62358  0.86768  1.0000
  S   S73       1.0  0.96477  0.93412  0.72532  1.0000
  C   C213      1.0  0.75081  0.59033  0.85958  1.0000
  H   H213      1.0  0.77461  0.52671  0.63624  1.0000
  Fe  Fe36      1.0  0.20829  0.92545  0.63733  1.0000
  H   H214      1.0  0.03146  0.96441  0.84595  1.0000
  C   C214      1.0  0.10639  0.02480  0.81136  1.0000
  H   H215      1.0  0.10649  0.45795  0.94999  1.0000
  H   H216      1.0  0.75469  0.08561  0.02257  1.0000
  S   S74       1.0  0.05836  0.24760  0.93825  1.0000
  C   C215      1.0  0.97002  0.39461  0.06355  1.0000
  S   S75       1.0  0.77035  0.08742  0.88819  1.0000
  C   C216      1.0  0.20081  0.39553  0.93365  1.0000
  C   C217      1.0  0.97029  0.18820  0.06924  1.0000
  C   C218      1.0  0.11152  0.30221  0.91061  1.0000
  S   S76       1.0  0.15287  0.13880  0.09970  1.0000
  C   C219      1.0  0.01706  0.42471  0.02994  1.0000
  H   H217      1.0  0.94230  0.24533  0.03559  1.0000
  H   H218      1.0  0.87175  0.29646  0.93292  1.0000
  H   H219      1.0  0.10407  0.30877  0.07384  1.0000
  C   C220      1.0  0.78897  0.05991  0.01592  1.0000
  C   C221      1.0  0.91712  0.34873  0.02894  1.0000
  N   N19       1.0  0.01236  0.40794  0.96292  1.0000
  C   C222      1.0  0.16925  0.22624  0.01354  1.0000
  C   C223      1.0  0.86877  0.15938  0.02580  1.0000
  C   C224      1.0  0.15856  0.35050  0.95375  1.0000
  N   N20       1.0  0.85153  0.10433  0.03454  1.0000
  C   C225      1.0  0.89329  0.08940  0.05800  1.0000
  C   C226      1.0  0.22707  0.29012  0.11928  1.0000
  C   C227      1.0  0.05903  0.05139  0.01469  1.0000
  H   H220      1.0  0.16267  0.35325  0.00265  1.0000
  C   C228      1.0  0.09299  0.06714  0.07039  1.0000
  N   N21       1.0  0.17947  0.27887  0.08082  1.0000
  H   H221      1.0  0.87982  0.32629  0.05521  1.0000
  C   C229      1.0  0.96149  0.36156  0.92805  1.0000
  H   H222      1.0  0.05692  0.46216  0.05791  1.0000
  H   H223      1.0  0.91320  0.51424  0.05641  1.0000
  H   H224      1.0  0.78910  0.02536  0.96250  1.0000
  H   H225      1.0  0.83606  0.17112  0.00664  1.0000
  H   H226      1.0  0.19744  0.19385  0.00405  1.0000
  H   H227      1.0  0.77225  0.03371  0.04811  1.0000
  H   H228      1.0  0.97399  0.40734  0.11633  1.0000
  H   H229      1.0  0.18240  0.24491  0.97434  1.0000
  H   H230      1.0  0.04772  0.48666  0.93803  1.0000
  C   C230      1.0  0.05953  0.44351  0.92984  1.0000
  C   C231      1.0  0.95265  0.13185  0.07733  1.0000
  H   H231      1.0  0.88036  0.04520  0.06359  1.0000
  H   H232      1.0  0.11971  0.19728  0.00750  1.0000
  C   C232      1.0  0.91269  0.33196  0.96064  1.0000
  H   H233      1.0  0.98466  0.12136  0.09891  1.0000
  H   H234      1.0  0.07110  0.08255  0.98930  1.0000
  C   C233      1.0  0.92851  0.20185  0.04257  1.0000
  C   C234      1.0  0.07761  0.02654  0.10270  1.0000
  C   C235      1.0  0.14250  0.31831  0.10368  1.0000
  H   H235      1.0  0.01622  0.22121  0.08367  1.0000
  C   C236      1.0  0.91458  0.09917  0.22288  1.0000
  S   S77       1.0  0.79817  0.06096  0.17752  1.0000
  S   S78       1.0  0.92717  0.49365  0.35335  1.0000
  H   H236      1.0  0.92670  0.07206  0.17148  1.0000
  S   S79       1.0  0.13121  0.13585  0.28085  1.0000
  S   S80       1.0  0.89709  0.49284  0.21272  1.0000
  C   C237      1.0  0.88268  0.16565  0.35688  1.0000
  Fe  Fe37      1.0  0.22032  0.19928  0.33458  1.0000
  H   H237      1.0  0.00190  0.06550  0.33742  1.0000
  C   C238      1.0  0.15519  0.37279  0.16443  1.0000
  H   H238      1.0  0.12415  0.39319  0.33861  1.0000
  S   S81       1.0  0.11788  0.26199  0.27300  1.0000
  H   H239      1.0  0.81215  0.39467  0.24011  1.0000
  H   H240      1.0  0.12738  0.40537  0.18138  1.0000
  C   C239      1.0  0.82955  0.30361  0.19770  1.0000
  C   C240      1.0  0.83685  0.13226  0.30778  1.0000
  S   S82       1.0  0.03820  0.49821  0.24003  1.0000
  C   C241      1.0  0.94423  0.16567  0.33879  1.0000
  C   C242      1.0  0.73766  0.21301  0.17679  1.0000
  H   H241      1.0  0.10482  0.03755  0.14442  1.0000
  C   C243      1.0  0.20496  0.38561  0.20263  1.0000
  H   H242      1.0  0.00791  0.13260  0.25781  1.0000
  H   H243      1.0  0.90256  0.28172  0.29674  1.0000
  Fe  Fe38      1.0  0.93975  0.43886  0.24309  1.0000
  Fe  Fe39      1.0  0.16311  0.18510  0.21191  1.0000
  Fe  Fe40      1.0  0.20798  0.31622  0.32746  1.0000
  C   C244      1.0  0.96036  0.13273  0.27184  1.0000
  H   H244      1.0  0.83133  0.20697  0.16027  1.0000
  C   C245      1.0  0.85304  0.09958  0.24071  1.0000
  H   H245      1.0  0.74478  0.51088  0.26285  1.0000
  Fe  Fe41      1.0  0.09343  0.21740  0.34601  1.0000
  C   C246      1.0  0.80238  0.23821  0.17606  1.0000
  S   S83       1.0  0.91098  0.33285  0.19470  1.0000
  H   H246      1.0  0.78914  0.13163  0.32172  1.0000
  H   H247      1.0  0.05982  0.46507  0.36341  1.0000
  C   C247      1.0  0.79156  0.34394  0.22125  1.0000
  H   H248      1.0  0.83097  0.34378  0.36798  1.0000
  C   C248      1.0  0.91451  0.31558  0.34836  1.0000
  C   C249      1.0  0.14356  0.44372  0.36661  1.0000
  H   H249      1.0  0.00076  0.29667  0.34371  1.0000
  H   H250      1.0  0.10031  0.06238  0.36851  1.0000
  H   H251      1.0  0.21728  0.42892  0.24831  1.0000
  C   C250      1.0  0.97020  0.32445  0.37518  1.0000
  C   C251      1.0  0.00282  0.05513  0.37994  1.0000
  C   C252      1.0  0.10726  0.48445  0.38055  1.0000
  H   H252      1.0  0.03033  0.34899  0.50355  1.0000
  S   S84       1.0  0.18007  0.27735  0.40493  1.0000
  S   S85       1.0  0.94472  0.14383  0.62421  1.0000
  Fe  Fe42      1.0  0.18293  0.02610  0.60865  1.0000
  H   H253      1.0  0.08380  0.27050  0.51217  1.0000
  H   H254      1.0  0.78052  0.08152  0.42203  1.0000
  C   C253      1.0  0.88970  0.39284  0.45515  1.0000
  C   C254      1.0  0.04217  0.37334  0.46932  1.0000
  C   C255      1.0  0.87552  0.25887  0.56434  1.0000
  S   S86       1.0  0.12243  0.39752  0.61272  1.0000
  H   H255      1.0  0.04055  0.06330  0.58685  1.0000
  N   N22       1.0  0.78894  0.16919  0.50766  1.0000
  H   H256      1.0  0.92119  0.27746  0.58630  1.0000
  H   H257      1.0  0.86460  0.35111  0.59246  1.0000
  H   H258      1.0  0.01165  0.17161  0.51632  1.0000
  N   N23       1.0  0.98523  0.36647  0.44040  1.0000
  C   C256      1.0  0.06539  0.27008  0.56001  1.0000
  C   C257      1.0  0.75860  0.20920  0.50847  1.0000
  C   C258      1.0  0.05856  0.04060  0.45275  1.0000
  C   C259      1.0  0.05810  0.05357  0.39749  1.0000
  C   C260      1.0  0.20248  0.13478  0.56050  1.0000
  H   H259      1.0  0.07467  0.35164  0.43004  1.0000
  C   C261      1.0  0.19764  0.17222  0.47751  1.0000
  H   H260      1.0  0.95753  0.43324  0.53218  1.0000
  H   H261      1.0  0.13634  0.18164  0.56424  1.0000
  C   C262      1.0  0.20576  0.46895  0.38637  1.0000
  H   H262      1.0  0.85858  0.41981  0.48725  1.0000
  C   C263      1.0  0.95092  0.03136  0.47296  1.0000
  H   H263      1.0  0.10160  0.03924  0.46612  1.0000
  C   C264      1.0  0.84687  0.19317  0.53470  1.0000
  H   H264      1.0  0.87075  0.19245  0.40832  1.0000
  H   H265      1.0  0.22474  0.34452  0.56406  1.0000
  N   N24       1.0  0.00557  0.03033  0.49006  1.0000
  C   C265      1.0  0.87414  0.35019  0.38859  1.0000
  S   S87       1.0  0.00146  0.20854  0.39948  1.0000
  C   C266      1.0  0.02467  0.21404  0.56245  1.0000
  H   H266      1.0  0.06748  0.42431  0.49800  1.0000
  H   H267      1.0  0.76020  0.30674  0.54128  1.0000
  C   C267      1.0  0.76101  0.10015  0.47400  1.0000
  C   C268      1.0  0.84399  0.30006  0.56741  1.0000
  C   C269      1.0  0.00033  0.21312  0.62416  1.0000
  C   C270      1.0  0.94879  0.04402  0.41780  1.0000
  H   H268      1.0  0.90602  0.04653  0.40512  1.0000
  H   H269      1.0  0.17548  0.19414  0.45896  1.0000
  C   C271      1.0  0.94576  0.40033  0.48035  1.0000
  C   C272      1.0  0.07919  0.32622  0.61870  1.0000
  H   H270      1.0  0.77006  0.07620  0.50238  1.0000
  H   H271      1.0  0.87127  0.16161  0.53378  1.0000
  C   C273      1.0  0.78532  0.27520  0.53895  1.0000
  C   C274      1.0  0.17561  0.16532  0.53729  1.0000
  H   H272      1.0  0.82611  0.52426  0.52307  1.0000
  S   S88       1.0  0.17100  0.12007  0.63110  1.0000
  H   H273      1.0  0.76352  0.15040  0.80597  1.0000
  C   C275      1.0  0.05584  0.32529  0.68076  1.0000
  H   H274      1.0  0.87138  0.24912  0.68572  1.0000
  C   C276      1.0  0.89677  0.33966  0.77169  1.0000
  H   H275      1.0  0.99947  0.26746  0.73148  1.0000
  H   H276      1.0  0.22559  0.27641  0.68225  1.0000
  C   C277      1.0  0.79071  0.27694  0.73787  1.0000
  C   C278      1.0  0.19570  0.39331  0.87071  1.0000
  H   H277      1.0  0.06694  0.36860  0.72648  1.0000
  Fe  Fe43      1.0  0.07528  0.46995  0.68172  1.0000
  Fe  Fe44      1.0  0.98650  0.49353  0.80164  1.0000
  S   S89       1.0  0.97162  0.43730  0.69110  1.0000
  S   S90       1.0  0.87401  0.04196  0.72278  1.0000
  H   H278      1.0  0.83655  0.48720  0.80935  1.0000
  C   C279      1.0  0.17063  0.04891  0.80653  1.0000
  C   C280      1.0  0.01775  0.26819  0.68364  1.0000
  H   H279      1.0  0.17914  0.29828  0.64478  1.0000
  H   H280      1.0  0.19046  0.07985  0.78088  1.0000
  H   H281      1.0  0.14460  0.34334  0.77846  1.0000
  H   H282      1.0  0.07606  0.03683  0.78934  1.0000
  Fe  Fe45      1.0  0.99628  0.17253  0.85312  1.0000
  C   C281      1.0  0.10704  0.29895  0.84681  1.0000
  S   S91       1.0  0.73817  0.21870  0.67444  1.0000
  H   H283      1.0  0.94606  0.34750  0.76170  1.0000
  Fe  Fe46      1.0  0.85917  0.10300  0.83039  1.0000
  C   C282      1.0  0.14922  0.34468  0.82684  1.0000
  Fe  Fe47      1.0  0.95460  0.03124  0.75792  1.0000
  S   S92       1.0  0.93492  0.08635  0.86632  1.0000
  S   S93       1.0  0.02377  0.11607  0.74715  1.0000
  S   S94       1.0  0.92828  0.45795  0.87535  1.0000
  C   C283      1.0  0.85451  0.28436  0.72839  1.0000
  C   C284      1.0  0.76922  0.32173  0.79456  1.0000
  Fe  Fe48      1.0  0.94175  0.13047  0.71846  1.0000
  H   H284      1.0  0.75647  0.50953  0.76691  1.0000
  H   H285      1.0  0.07066  0.26174  0.81322  1.0000
  S   S95       1.0  0.91920  0.19322  0.82382  1.0000
  C   C285      1.0  0.22667  0.31172  0.66311  1.0000
  C   C286      1.0  0.81149  0.37554  0.83968  1.0000
  C   C287      1.0  0.87531  0.38556  0.82680  1.0000
  S   S96       1.0  0.09009  0.51972  0.79280  1.0000
  H   H286      1.0  0.95802  0.34794  0.87489  1.0000
  H   H287      1.0  0.06176  0.41450  0.87470  1.0000
  C   C288      1.0  0.20928  0.03275  0.83474  1.0000
  H   H288      1.0  0.79472  0.41124  0.88191  1.0000
