data_image0
_chemical_formula_structural       C2HNC4HCHFeSCHCH2S2CHNH3C3H2CH3CSCHCHCHSHC2HCHCHSCFe2H2SFeC2NHCHCS2H4CHCHCSHC2HCSHC2FeNHCFeC2SHCH2CHSHSHC2SHCH3CH4C5HCHCH3CHS2FeCFeC5SHCHSFeH3SC3HCHCHFeC2SHNHNC2HCHCSFeH3C4SCFeC3H2C2HSC2H2CHSC3HCHCHFeH3NHC2H2CSC4HS2CSCH2CHNSHCH3SC2HCH2NCH3CHCHC2HSCH2C4H2CH2CFeHCHFeNFeCS2HCSHSCFeCSHSCH3C3H2CHCH5NCHSH2NFeCH4CSC3H3C3SCHC2HNHCH3FeHC3HFeC2S3FeHSC2FeCH2SCHS2CHCHFe2SCSCFeHC4H2SCH2FeHCH4CH4FeCHCH2CNCSC2H2CSH2CHSC3NC2H2CH3SFeHFeCSHCSCSH2SFeC3HSC3H4CH2C3HSCHSCHSFeNC3HSFeCHC
_chemical_formula_sum              "C192 H192 N16 Fe32 S64"
_cell_length_a       17.9282
_cell_length_b       12.9732
_cell_length_c       30.8359
_cell_angle_alpha    88.1474
_cell_angle_beta     92.5147
_cell_angle_gamma    82.6206

_space_group_name_H-M_alt    "P 1"
_space_group_IT_number       1

loop_
  _space_group_symop_operation_xyz
  'x, y, z'

loop_
  _atom_site_type_symbol
  _atom_site_label
  _atom_site_symmetry_multiplicity
  _atom_site_fract_x
  _atom_site_fract_y
  _atom_site_fract_z
  _atom_site_occupancy
  C   C1        1.0  0.32760  0.84446  0.63093  1.0000
  C   C2        1.0  0.46329  0.73264  0.57309  1.0000
  H   H1        1.0  0.45032  0.69680  0.60353  1.0000
  N   N1        1.0  0.53058  0.76963  0.56876  1.0000
  C   C3        1.0  0.49660  0.81680  0.49382  1.0000
  C   C4        1.0  0.12960  0.59210  0.68423  1.0000
  C   C5        1.0  0.40970  0.74163  0.53855  1.0000
  C   C6        1.0  0.21713  0.78630  0.59605  1.0000
  H   H2        1.0  0.55602  0.77118  0.63676  1.0000
  C   C7        1.0  0.47951  0.06569  0.63689  1.0000
  H   H3        1.0  0.51201  0.84511  0.46250  1.0000
  Fe  Fe1       1.0  0.14076  0.71975  0.49962  1.0000
  S   S1        1.0  0.40120  0.83156  0.67107  1.0000
  C   C8        1.0  0.26842  0.93466  0.56549  1.0000
  H   H4        1.0  0.17973  0.58121  0.66409  1.0000
  C   C9        1.0  0.21422  0.86657  0.56415  1.0000
  H   H5        1.0  0.48716  0.98178  0.63943  1.0000
  H   H6        1.0  0.11643  0.67658  0.68953  1.0000
  S   S2        1.0  0.24155  0.60798  0.52090  1.0000
  S   S3        1.0  0.14441  0.88062  0.52186  1.0000
  C   C10       1.0  0.32396  0.92487  0.59919  1.0000
  H   H7        1.0  0.27725  0.71176  0.65342  1.0000
  N   N2        1.0  0.12954  0.03720  0.63232  1.0000
  H   H8        1.0  0.35592  0.71535  0.54298  1.0000
  H   H9        1.0  0.17536  0.73304  0.59508  1.0000
  H   H10       1.0  0.38585  0.78780  0.47121  1.0000
  C   C11       1.0  0.27441  0.77448  0.62919  1.0000
  C   C12       1.0  0.42637  0.78380  0.49860  1.0000
  C   C13       1.0  0.54808  0.80994  0.52952  1.0000
  H   H11       1.0  0.36517  0.97851  0.59990  1.0000
  H   H12       1.0  0.26742  0.99525  0.54044  1.0000
  C   C14       1.0  0.53726  0.58567  0.45933  1.0000
  H   H13       1.0  0.55299  0.01739  0.45618  1.0000
  H   H14       1.0  0.45255  0.03376  0.51026  1.0000
  H   H15       1.0  0.09411  0.89469  0.65407  1.0000
  C   C15       1.0  0.17429  0.05061  0.66823  1.0000
  S   S4        1.0  0.57640  0.04307  0.57129  1.0000
  C   C16       1.0  0.58532  0.76068  0.60585  1.0000
  H   H16       1.0  0.18864  0.64625  0.94049  1.0000
  C   C17       1.0  0.29055  0.70771  0.83632  1.0000
  H   H17       1.0  0.18438  0.91141  0.91809  1.0000
  C   C18       1.0  0.17593  0.71677  0.87593  1.0000
  H   H18       1.0  0.54969  0.70948  0.92560  1.0000
  S   S5        1.0  0.42525  0.59801  0.86600  1.0000
  H   H19       1.0  0.32303  0.87904  0.92707  1.0000
  C   C19       1.0  0.33087  0.65107  0.87102  1.0000
  C   C20       1.0  0.29445  0.63268  0.90914  1.0000
  H   H20       1.0  0.16755  0.00953  0.69868  1.0000
  C   C21       1.0  0.11355  0.57004  0.76246  1.0000
  H   H21       1.0  0.32585  0.59489  0.93709  1.0000
  C   C22       1.0  0.21679  0.66274  0.91117  1.0000
  H   H22       1.0  0.31909  0.72833  0.80784  1.0000
  S   S6        1.0  0.52183  0.67355  0.75980  1.0000
  C   C23       1.0  0.21337  0.74090  0.83886  1.0000
  Fe  Fe2       1.0  0.43338  0.67628  0.70561  1.0000
  Fe  Fe3       1.0  0.44692  0.57776  0.79529  1.0000
  H   H23       1.0  0.18344  0.78579  0.81223  1.0000
  H   H24       1.0  0.52004  0.02950  0.73955  1.0000
  S   S7        1.0  0.35493  0.58957  0.74285  1.0000
  Fe  Fe4       1.0  0.47563  0.01116  0.08607  1.0000
  C   C24       1.0  0.22850  0.98425  0.14728  1.0000
  C   C25       1.0  0.19994  0.84485  0.02458  1.0000
  N   N3        1.0  0.16696  0.87496  0.98454  1.0000
  H   H25       1.0  0.52111  0.60429  0.08368  1.0000
  C   C26       1.0  0.27830  0.82546  0.03064  1.0000
  H   H26       1.0  0.25522  0.57686  0.18020  1.0000
  C   C27       1.0  0.33319  0.80984  0.17001  1.0000
  S   S8        1.0  0.13773  0.61731  0.03346  1.0000
  S   S9        1.0  0.45096  0.89063  0.13519  1.0000
  H   H27       1.0  0.37365  0.74270  0.17946  1.0000
  H   H28       1.0  0.16563  0.83330  0.05190  1.0000
  H   H29       1.0  0.54761  0.71535  0.18198  1.0000
  H   H30       1.0  0.18842  0.05248  0.13900  1.0000
  C   C28       1.0  0.35591  0.89405  0.14697  1.0000
  H   H31       1.0  0.30411  0.80075  0.06242  1.0000
  C   C29       1.0  0.25817  0.81237  0.18121  1.0000
  H   H32       1.0  0.22383  0.67068  0.10885  1.0000
  C   C30       1.0  0.20927  0.59304  0.11410  1.0000
  S   S10       1.0  0.11408  0.90498  0.18775  1.0000
  H   H33       1.0  0.32015  0.04595  0.11737  1.0000
  C   C31       1.0  0.20609  0.89993  0.17045  1.0000
  C   C32       1.0  0.32288  0.83680  0.99531  1.0000
  H   H34       1.0  0.38357  0.82052  0.99936  1.0000
  C   C33       1.0  0.30318  0.98049  0.13490  1.0000
  S   S11       1.0  0.49680  0.95650  0.01915  1.0000
  H   H35       1.0  0.58248  0.06033  0.19697  1.0000
  C   C34       1.0  0.21039  0.88767  0.94988  1.0000
  C   C35       1.0  0.28894  0.86882  0.95471  1.0000
  Fe  Fe5       1.0  0.54172  0.72255  0.31149  1.0000
  N   N4        1.0  0.27420  0.61528  0.29660  1.0000
  H   H36       1.0  0.45417  0.02044  0.20982  1.0000
  C   C36       1.0  0.19873  0.81663  0.29274  1.0000
  Fe  Fe6       1.0  0.50909  0.95473  0.31965  1.0000
  C   C37       1.0  0.47303  0.58141  0.43226  1.0000
  C   C38       1.0  0.30948  0.69495  0.31217  1.0000
  S   S12       1.0  0.13679  0.66995  0.43080  1.0000
  H   H37       1.0  0.46988  0.61392  0.39942  1.0000
  C   C39       1.0  0.32897  0.03479  0.36703  1.0000
  H   H38       1.0  0.36824  0.96529  0.37344  1.0000
  H   H39       1.0  0.23840  0.97427  0.39951  1.0000
  C   C40       1.0  0.16326  0.73488  0.27692  1.0000
  H   H40       1.0  0.16964  0.89546  0.29060  1.0000
  S   S13       1.0  0.50151  0.82138  0.36656  1.0000
  H   H41       1.0  0.10686  0.75024  0.26192  1.0000
  S   S14       1.0  0.53678  0.85520  0.26295  1.0000
  H   H42       1.0  0.30087  0.85997  0.32192  1.0000
  C   C41       1.0  0.20233  0.63417  0.27874  1.0000
  C   C42       1.0  0.27240  0.79679  0.31030  1.0000
  S   S15       1.0  0.50313  0.57444  0.28948  1.0000
  H   H43       1.0  0.36668  0.67992  0.32607  1.0000
  C   C43       1.0  0.25589  0.04066  0.38245  1.0000
  H   H44       1.0  0.17531  0.57128  0.26527  1.0000
  H   H45       1.0  0.58371  0.62182  0.44745  1.0000
  H   H46       1.0  0.24105  0.74773  0.19934  1.0000
  C   C44       1.0  0.45031  0.08906  0.48296  1.0000
  H   H47       1.0  0.19462  0.20513  0.56151  1.0000
  H   H48       1.0  0.53619  0.26496  0.57811  1.0000
  H   H49       1.0  0.48548  0.45931  0.54926  1.0000
  H   H50       1.0  0.40241  0.08303  0.68852  1.0000
  C   C45       1.0  0.48155  0.49495  0.51688  1.0000
  C   C46       1.0  0.13607  0.09234  0.59440  1.0000
  C   C47       1.0  0.54157  0.54260  0.50160  1.0000
  C   C48       1.0  0.51739  0.11632  0.60581  1.0000
  C   C49       1.0  0.23611  0.17446  0.62781  1.0000
  H   H51       1.0  0.45440  0.36644  0.62811  1.0000
  C   C50       1.0  0.19028  0.16036  0.59137  1.0000
  H   H52       1.0  0.37080  0.45440  0.50178  1.0000
  C   C51       1.0  0.41672  0.49221  0.49000  1.0000
  H   H53       1.0  0.09923  0.08402  0.56626  1.0000
  H   H54       1.0  0.20559  0.40255  0.69607  1.0000
  H   H55       1.0  0.27611  0.23034  0.62630  1.0000
  C   C52       1.0  0.39249  0.17210  0.47882  1.0000
  H   H56       1.0  0.34953  0.18106  0.50260  1.0000
  S   S16       1.0  0.15490  0.42217  0.60225  1.0000
  S   S17       1.0  0.16144  0.42711  0.47272  1.0000
  Fe  Fe7       1.0  0.15914  0.50075  0.53754  1.0000
  C   C53       1.0  0.50828  0.22501  0.60268  1.0000
  Fe  Fe8       1.0  0.23222  0.54982  0.45389  1.0000
  C   C54       1.0  0.46223  0.28273  0.63125  1.0000
  C   C55       1.0  0.22805  0.11962  0.66657  1.0000
  C   C56       1.0  0.42463  0.23197  0.66266  1.0000
  C   C57       1.0  0.50611  0.07939  0.45257  1.0000
  C   C58       1.0  0.43183  0.12324  0.66468  1.0000
  S   S18       1.0  0.49067  0.53498  0.67468  1.0000
  H   H57       1.0  0.26238  0.13185  0.69530  1.0000
  C   C59       1.0  0.41267  0.53539  0.44765  1.0000
  H   H58       1.0  0.20067  0.17325  0.89631  1.0000
  S   S19       1.0  0.34414  0.12165  0.94214  1.0000
  Fe  Fe9       1.0  0.42041  0.44718  0.71739  1.0000
  H   H59       1.0  0.51479  0.16711  0.74462  1.0000
  H   H60       1.0  0.22561  0.29559  0.76419  1.0000
  H   H61       1.0  0.30505  0.29032  0.86963  1.0000
  S   S20       1.0  0.37028  0.30299  0.70030  1.0000
  C   C60       1.0  0.19081  0.15758  0.93010  1.0000
  C   C61       1.0  0.55388  0.09307  0.74747  1.0000
  C   C62       1.0  0.18363  0.43434  0.72581  1.0000
  H   H62       1.0  0.17266  0.36583  0.83242  1.0000
  C   C63       1.0  0.33668  0.35684  0.87627  1.0000
  H   H63       1.0  0.39473  0.33482  0.86555  1.0000
  C   C64       1.0  0.16641  0.41334  0.80262  1.0000
  H   H64       1.0  0.45298  0.39800  0.92721  1.0000
  Fe  Fe10      1.0  0.57142  0.52351  0.73253  1.0000
  C   C65       1.0  0.19559  0.37370  0.76441  1.0000
  C   C66       1.0  0.12568  0.51256  0.80182  1.0000
  S   S21       1.0  0.50494  0.42672  0.77348  1.0000
  H   H65       1.0  0.21898  0.37055  0.92636  1.0000
  N   N5        1.0  0.33659  0.37858  0.92262  1.0000
  H   H66       1.0  0.31116  0.42723  0.85687  1.0000
  N   N6        1.0  0.14374  0.53164  0.72535  1.0000
  C   C67       1.0  0.27057  0.38414  0.94356  1.0000
  C   C68       1.0  0.40125  0.39855  0.94413  1.0000
  H   H67       1.0  0.10049  0.54325  0.83098  1.0000
  C   C69       1.0  0.11697  0.16880  0.94418  1.0000
  H   H68       1.0  0.57708  0.08052  0.78142  1.0000
  C   C70       1.0  0.54794  0.22558  0.18861  1.0000
  S   S22       1.0  0.50611  0.38888  0.08887  1.0000
  Fe  Fe11      1.0  0.43168  0.10961  0.99720  1.0000
  H   H69       1.0  0.33353  0.44539  0.04394  1.0000
  H   H70       1.0  0.28912  0.18112  0.18347  1.0000
  H   H71       1.0  0.12722  0.40620  0.06223  1.0000
  C   C71       1.0  0.33436  0.42667  0.00985  1.0000
  C   C72       1.0  0.16416  0.11566  0.01724  1.0000
  C   C73       1.0  0.22649  0.54056  0.15451  1.0000
  C   C74       1.0  0.15328  0.44518  0.08811  1.0000
  S   S23       1.0  0.58094  0.08648  0.09296  1.0000
  C   C75       1.0  0.25172  0.12818  0.95982  1.0000
  Fe  Fe12      1.0  0.51025  0.22873  0.06393  1.0000
  C   C76       1.0  0.10365  0.14936  0.98786  1.0000
  C   C77       1.0  0.26863  0.40701  0.98753  1.0000
  C   C78       1.0  0.58066  0.45311  0.07257  1.0000
  H   H72       1.0  0.15495  0.31623  0.13378  1.0000
  H   H73       1.0  0.21626  0.41051  0.00396  1.0000
  C   C79       1.0  0.23806  0.10490  0.00319  1.0000
  C   C80       1.0  0.40099  0.42342  0.98791  1.0000
  H   H74       1.0  0.49524  0.38463  0.18125  1.0000
  S   S24       1.0  0.53372  0.19348  0.99489  1.0000
  C   C81       1.0  0.48716  0.30448  0.18799  1.0000
  C   C82       1.0  0.20330  0.44307  0.16232  1.0000
  H   H75       1.0  0.15417  0.09975  0.05101  1.0000
  H   H76       1.0  0.28410  0.07678  0.02584  1.0000
  C   C83       1.0  0.17015  0.54660  0.08141  1.0000
  H   H77       1.0  0.45201  0.44126  0.00446  1.0000
  S   S25       1.0  0.40297  0.15849  0.06404  1.0000
  C   C84       1.0  0.16925  0.39378  0.12866  1.0000
  C   C85       1.0  0.57308  0.56143  0.07379  1.0000
  C   C86       1.0  0.41521  0.27929  0.19517  1.0000
  H   H78       1.0  0.36815  0.34091  0.19433  1.0000
  C   C87       1.0  0.53604  0.12269  0.19669  1.0000
  H   H79       1.0  0.53709  0.36036  0.26828  1.0000
  C   C88       1.0  0.50294  0.15324  0.41828  1.0000
  H   H80       1.0  0.36436  0.50037  0.32001  1.0000
  Fe  Fe13      1.0  0.12920  0.27509  0.22557  1.0000
  H   H81       1.0  0.56508  0.52845  0.20317  1.0000
  H   H82       1.0  0.30897  0.19532  0.24079  1.0000
  H   H83       1.0  0.27712  0.45230  0.30685  1.0000
  N   N7        1.0  0.44620  0.23470  0.41466  1.0000
  H   H84       1.0  0.47162  0.28256  0.35101  1.0000
  C   C89       1.0  0.29816  0.20689  0.33349  1.0000
  C   C90       1.0  0.44708  0.31556  0.38064  1.0000
  H   H85       1.0  0.54711  0.14664  0.39513  1.0000
  H   H86       1.0  0.38921  0.35192  0.37102  1.0000
  C   C91       1.0  0.32862  0.15459  0.21154  1.0000
  S   S26       1.0  0.16783  0.12011  0.25810  1.0000
  C   C92       1.0  0.56718  0.37174  0.29842  1.0000
  C   C93       1.0  0.31454  0.50974  0.29682  1.0000
  C   C94       1.0  0.22590  0.21342  0.34918  1.0000
  C   C95       1.0  0.34847  0.11591  0.34055  1.0000
  H   H87       1.0  0.31320  0.26972  0.31319  1.0000
  S   S27       1.0  0.21378  0.38608  0.21477  1.0000
  S   S28       1.0  0.43176  0.10419  0.31239  1.0000
  C   C96       1.0  0.20339  0.12841  0.37174  1.0000
  S   S29       1.0  0.10684  0.12071  0.37299  1.0000
  C   C97       1.0  0.46329  0.10031  0.20366  1.0000
  H   H88       1.0  0.18542  0.28097  0.34045  1.0000
  H   H89       1.0  0.48050  0.37618  0.39241  1.0000
  C   C98       1.0  0.55938  0.46959  0.31661  1.0000
  H   H90       1.0  0.33416  0.49237  0.26387  1.0000
  N   N8        1.0  0.40422  0.17823  0.20301  1.0000
  S   S30       1.0  0.33258  0.53224  0.41353  1.0000
  H   H91       1.0  0.34705  0.31039  0.44159  1.0000
  C   C99       1.0  0.39147  0.24496  0.44434  1.0000
  H   H92       1.0  0.32729  0.07016  0.21814  1.0000
  H   H93       1.0  0.94236  0.62369  0.58330  1.0000
  H   H94       1.0  0.62296  0.82201  0.60371  1.0000
  S   S31       1.0  0.05862  0.61734  0.52178  1.0000
  C   C100      1.0  0.83043  0.75999  0.45610  1.0000
  C   C101      1.0  0.87052  0.65212  0.68503  1.0000
  H   H95       1.0  0.71291  0.70040  0.54020  1.0000
  C   C102      1.0  0.71056  0.00538  0.67540  1.0000
  H   H96       1.0  0.73613  0.93402  0.66185  1.0000
  H   H97       1.0  0.02227  0.00697  0.65139  1.0000
  N   N9        1.0  0.82707  0.65153  0.56095  1.0000
  C   C103      1.0  0.89453  0.68140  0.57414  1.0000
  H   H98       1.0  0.84548  0.94325  0.57101  1.0000
  H   H99       1.0  0.95635  0.81002  0.58722  1.0000
  H   H100      1.0  0.05256  0.94478  0.60260  1.0000
  C   C104      1.0  0.84014  0.86147  0.56819  1.0000
  H   H101      1.0  0.83685  0.83493  0.46913  1.0000
  C   C105      1.0  0.07169  0.96738  0.63531  1.0000
  H   H102      1.0  0.72251  0.88768  0.54792  1.0000
  C   C106      1.0  0.76571  0.72422  0.55185  1.0000
  C   C107      1.0  0.90254  0.78686  0.57691  1.0000
  H   H103      1.0  0.61920  0.68253  0.60696  1.0000
  S   S32       1.0  0.94730  0.72110  0.67711  1.0000
  C   C108      1.0  0.77104  0.83019  0.55576  1.0000
  H   H104      1.0  0.94936  0.70848  0.45799  1.0000
  H   H105      1.0  0.60202  0.83681  0.52550  1.0000
  C   C109      1.0  0.89405  0.68837  0.44985  1.0000
  C   C110      1.0  0.78911  0.95494  0.93376  1.0000
  C   C111      1.0  0.60803  0.70894  0.91741  1.0000
  C   C112      1.0  0.72278  0.67841  0.81904  1.0000
  H   H106      1.0  0.81424  0.71073  0.88649  1.0000
  H   H107      1.0  0.71287  0.75508  0.80119  1.0000
  C   C113      1.0  0.73699  0.72607  0.93786  1.0000
  H   H108      1.0  0.68983  0.62230  0.80290  1.0000
  H   H109      1.0  0.60086  0.03281  0.93661  1.0000
  C   C114      1.0  0.75628  0.70864  0.89504  1.0000
  Fe  Fe14      1.0  0.95573  0.83254  0.73004  1.0000
  H   H110      1.0  0.85070  0.93963  0.87571  1.0000
  C   C115      1.0  0.79644  0.96175  0.88882  1.0000
  H   H111      1.0  0.79945  0.78166  0.70968  1.0000
  Fe  Fe15      1.0  0.00878  0.03064  0.76105  1.0000
  N   N10       1.0  0.70263  0.69093  0.86425  1.0000
  Fe  Fe16      1.0  0.01720  0.84359  0.82215  1.0000
  C   C116      1.0  0.74606  0.64154  0.71203  1.0000
  S   S33       1.0  0.06670  0.86827  0.75766  1.0000
  S   S34       1.0  0.91053  0.79401  0.79403  1.0000
  H   H112      1.0  0.69540  0.67846  0.72567  1.0000
  C   C117      1.0  0.62921  0.69145  0.87487  1.0000
  S   S35       1.0  0.07941  0.75783  0.88020  1.0000
  H   H113      1.0  0.78313  0.64702  0.81680  1.0000
  S   S36       1.0  0.90285  0.99828  0.72574  1.0000
  C   C118      1.0  0.73387  0.99778  0.86127  1.0000
  Fe  Fe17      1.0  0.86500  0.96273  0.79204  1.0000
  C   C119      1.0  0.66326  0.02302  0.87849  1.0000
  S   S37       1.0  0.96660  0.00960  0.82741  1.0000
  H   H114      1.0  0.62623  0.93278  0.70778  1.0000
  S   S38       1.0  0.74446  0.01460  0.80559  1.0000
  C   C120      1.0  0.65560  0.01425  0.92341  1.0000
  H   H115      1.0  0.61458  0.04991  0.85732  1.0000
  H   H116      1.0  0.07821  0.64432  0.76168  1.0000
  H   H117      1.0  0.58627  0.67896  0.85045  1.0000
  C   C121      1.0  0.80459  0.70006  0.70259  1.0000
  C   C122      1.0  0.64825  0.00538  0.70118  1.0000
  C   C123      1.0  0.72574  0.65483  0.15260  1.0000
  H   H118      1.0  0.83790  0.92864  0.95509  1.0000
  H   H119      1.0  0.61457  0.87046  0.16974  1.0000
  C   C124      1.0  0.87919  0.88446  0.07821  1.0000
  H   H120      1.0  0.06406  0.83858  0.10585  1.0000
  C   C125      1.0  0.00909  0.88181  0.09758  1.0000
  H   H121      1.0  0.69969  0.85614  0.14125  1.0000
  H   H122      1.0  0.04929  0.03129  0.10277  1.0000
  H   H123      1.0  0.62675  0.69851  0.06370  1.0000
  H   H124      1.0  0.64719  0.74275  0.98204  1.0000
  H   H125      1.0  0.81425  0.03654  0.06840  1.0000
  N   N11       1.0  0.65856  0.71369  0.15940  1.0000
  C   C126      1.0  0.63286  0.61469  0.06269  1.0000
  H   H126      1.0  0.77915  0.74190  0.96215  1.0000
  S   S39       1.0  0.77728  0.62887  0.04354  1.0000
  H   H127      1.0  0.61235  0.83346  0.11390  1.0000
  H   H128      1.0  0.05814  0.93141  0.00548  1.0000
  N   N12       1.0  0.94835  0.83031  0.08954  1.0000
  Fe  Fe18      1.0  0.59583  0.04435  0.02395  1.0000
  C   C127      1.0  0.66245  0.72689  0.94901  1.0000
  H   H129      1.0  0.98554  0.68786  0.06131  1.0000
  H   H130      1.0  0.99677  0.68555  0.11964  1.0000
  H   H131      1.0  0.77052  0.68962  0.13763  1.0000
  H   H132      1.0  0.90505  0.68415  0.09413  1.0000
  C   C128      1.0  0.95915  0.71639  0.09124  1.0000
  S   S40       1.0  0.94006  0.64009  0.97101  1.0000
  C   C129      1.0  0.60130  0.66904  0.17719  1.0000
  C   C130      1.0  0.00112  0.99055  0.09596  1.0000
  C   C131      1.0  0.64585  0.82374  0.14521  1.0000
  H   H133      1.0  0.85805  0.93474  0.18473  1.0000
  H   H134      1.0  0.06502  0.81041  0.97674  1.0000
  H   H135      1.0  0.83137  0.84386  0.07007  1.0000
  C   C132      1.0  0.86914  0.99338  0.07674  1.0000
  C   C133      1.0  0.08470  0.88811  0.97849  1.0000
  C   C134      1.0  0.71875  0.98152  0.95100  1.0000
  S   S41       1.0  0.71034  0.97349  0.00704  1.0000
  C   C135      1.0  0.93053  0.04647  0.08574  1.0000
  H   H136      1.0  0.06523  0.93302  0.94786  1.0000
  C   C136      1.0  0.75094  0.64058  0.42566  1.0000
  C   C137      1.0  0.85861  0.98453  0.39332  1.0000
  H   H137      1.0  0.06873  0.92388  0.42986  1.0000
  N   N13       1.0  0.96683  0.02702  0.43449  1.0000
  H   H138      1.0  0.01182  0.80839  0.37913  1.0000
  C   C138      1.0  0.75892  0.73634  0.44357  1.0000
  H   H139      1.0  0.79913  0.00103  0.38375  1.0000
  H   H140      1.0  0.88968  0.63851  0.28741  1.0000
  H   H141      1.0  0.69592  0.62174  0.41604  1.0000
  Fe  Fe19      1.0  0.65653  0.86007  0.28472  1.0000
  H   H142      1.0  0.67550  0.06276  0.26045  1.0000
  C   C139      1.0  0.90185  0.89790  0.37768  1.0000
  C   C140      1.0  0.89225  0.04894  0.42173  1.0000
  C   C141      1.0  0.97784  0.87597  0.39088  1.0000
  H   H143      1.0  0.76024  0.62388  0.25876  1.0000
  Fe  Fe20      1.0  0.62410  0.83137  0.38001  1.0000
  C   C142      1.0  0.76469  0.98691  0.22370  1.0000
  C   C143      1.0  0.88587  0.59313  0.43137  1.0000
  S   S42       1.0  0.68031  0.82992  0.44611  1.0000
  S   S43       1.0  0.62909  0.97177  0.33720  1.0000
  S   S44       1.0  0.74540  0.86057  0.23598  1.0000
  Fe  Fe21      1.0  0.08154  0.06079  0.21504  1.0000
  H   H144      1.0  0.87604  0.84719  0.35587  1.0000
  S   S45       1.0  0.66400  0.72045  0.32928  1.0000
  C   C144      1.0  0.00952  0.94129  0.41975  1.0000
  C   C145      1.0  0.82508  0.00111  0.19797  1.0000
  Fe  Fe22      1.0  0.71375  0.21908  0.45615  1.0000
  C   C146      1.0  0.07347  0.36102  0.60002  1.0000
  H   H145      1.0  0.78269  0.51545  0.58164  1.0000
  H   H146      1.0  0.08517  0.30811  0.66710  1.0000
  S   S46       1.0  0.78337  0.32613  0.49025  1.0000
  C   C147      1.0  0.96047  0.23227  0.59214  1.0000
  H   H147      1.0  0.72957  0.26220  0.67925  1.0000
  S   S47       1.0  0.70342  0.25673  0.57894  1.0000
  S   S48       1.0  0.74494  0.08525  0.50382  1.0000
  C   C148      1.0  0.74029  0.09807  0.66770  1.0000
  H   H148      1.0  0.78911  0.09924  0.64815  1.0000
  C   C149      1.0  0.97618  0.29328  0.55645  1.0000
  H   H149      1.0  0.94788  0.28675  0.52516  1.0000
  Fe  Fe23      1.0  0.67688  0.37343  0.52428  1.0000
  Fe  Fe24      1.0  0.64383  0.15184  0.53792  1.0000
  S   S49       1.0  0.60587  0.27488  0.48654  1.0000
  C   C150      1.0  0.70707  0.18953  0.68527  1.0000
  S   S50       1.0  0.90250  0.13560  0.58494  1.0000
  C   C151      1.0  0.87672  0.54680  0.67557  1.0000
  Fe  Fe25      1.0  0.80293  0.19775  0.54181  1.0000
  H   H150      1.0  0.04762  0.39919  0.53196  1.0000
  C   C152      1.0  0.03294  0.35732  0.56037  1.0000
  C   C153      1.0  0.99711  0.24128  0.63251  1.0000
  C   C154      1.0  0.81956  0.54132  0.55649  1.0000
  C   C155      1.0  0.05372  0.30594  0.63648  1.0000
  H   H151      1.0  0.98392  0.19529  0.66032  1.0000
  H   H152      1.0  0.87484  0.49132  0.55984  1.0000
  S   S51       1.0  0.62551  0.53645  0.53319  1.0000
  C   C156      1.0  0.82027  0.48733  0.68729  1.0000
  H   H153      1.0  0.79404  0.52972  0.52381  1.0000
  H   H154      1.0  0.92742  0.50936  0.66192  1.0000
  Fe  Fe26      1.0  0.06601  0.55256  0.45561  1.0000
  H   H155      1.0  0.82801  0.40436  0.68265  1.0000
  C   C157      1.0  0.00003  0.09456  0.46512  1.0000
  H   H156      1.0  0.98732  0.17730  0.45358  1.0000
  H   H157      1.0  0.08125  0.56580  0.66581  1.0000
  H   H158      1.0  0.06248  0.07643  0.46810  1.0000
  H   H159      1.0  0.97770  0.08451  0.49783  1.0000
  C   C158      1.0  0.81286  0.20937  0.91341  1.0000
  H   H160      1.0  0.77948  0.24283  0.76968  1.0000
  H   H161      1.0  0.05194  0.19062  0.83686  1.0000
  H   H162      1.0  0.82307  0.35440  0.78607  1.0000
  H   H163      1.0  0.99213  0.33497  0.87951  1.0000
  Fe  Fe27      1.0  0.94399  0.51081  0.92454  1.0000
  C   C159      1.0  0.64429  0.18702  0.71040  1.0000
  H   H164      1.0  0.07018  0.19320  0.92128  1.0000
  C   C160      1.0  0.02582  0.27292  0.77518  1.0000
  H   H165      1.0  0.67942  0.32636  0.81774  1.0000
  H   H166      1.0  0.99254  0.37466  0.71917  1.0000
  C   C161      1.0  0.68891  0.28390  0.88603  1.0000
  N   N14       1.0  0.61583  0.09563  0.71815  1.0000
  C   C162      1.0  0.95956  0.44749  0.77836  1.0000
  S   S52       1.0  0.69169  0.45450  0.72666  1.0000
  C   C163      1.0  0.95966  0.43666  0.82358  1.0000
  C   C164      1.0  0.99302  0.36592  0.75415  1.0000
  H   H167      1.0  0.93435  0.51957  0.76217  1.0000
  H   H168      1.0  0.89783  0.19588  0.86662  1.0000
  C   C165      1.0  0.71701  0.29331  0.84461  1.0000
  S   S53       1.0  0.06521  0.16972  0.74489  1.0000
  H   H169      1.0  0.62999  0.30842  0.89123  1.0000
  H   H170      1.0  0.87456  0.22526  0.79094  1.0000
  C   C166      1.0  0.99280  0.34396  0.84465  1.0000
  H   H171      1.0  0.61875  0.25864  0.72378  1.0000
  S   S54       1.0  0.91878  0.53976  0.85333  1.0000
  C   C167      1.0  0.83902  0.22038  0.87168  1.0000
  C   C168      1.0  0.81858  0.27132  0.79407  1.0000
  C   C169      1.0  0.02577  0.26195  0.82046  1.0000
  N   N15       1.0  0.79099  0.26043  0.83781  1.0000
  C   C170      1.0  0.75554  0.53408  0.70633  1.0000
  C   C171      1.0  0.73726  0.24118  0.92056  1.0000
  H   H172      1.0  0.85105  0.17586  0.94000  1.0000
  H   H173      1.0  0.78932  0.50098  0.15693  1.0000
  C   C172      1.0  0.64765  0.39789  0.05935  1.0000
  H   H174      1.0  0.71621  0.23167  0.95274  1.0000
  H   H175      1.0  0.60381  0.24396  0.18216  1.0000
  H   H176      1.0  0.89569  0.11037  0.17411  1.0000
  S   S55       1.0  0.01188  0.17262  0.00602  1.0000
  Fe  Fe28      1.0  0.87312  0.54097  0.01066  1.0000
  H   H177      1.0  0.65357  0.31394  0.05848  1.0000
  Fe  Fe29      1.0  0.97671  0.34363  0.99442  1.0000
  C   C173      1.0  0.84612  0.10056  0.19175  1.0000
  S   S56       1.0  0.86849  0.41874  0.96125  1.0000
  H   H178      1.0  0.68635  0.41903  0.18930  1.0000
  C   C174      1.0  0.70829  0.45145  0.04898  1.0000
  S   S57       1.0  0.05026  0.21196  0.17743  1.0000
  C   C175      1.0  0.67852  0.50195  0.18133  1.0000
  S   S58       1.0  0.97270  0.45591  0.04827  1.0000
  H   H179      1.0  0.76113  0.40879  0.04044  1.0000
  H   H180      1.0  0.92373  0.13093  0.08431  1.0000
  S   S59       1.0  0.05234  0.42719  0.95387  1.0000
  Fe  Fe30      1.0  0.04034  0.54565  0.00480  1.0000
  C   C176      1.0  0.73665  0.54813  0.16331  1.0000
  C   C177      1.0  0.70103  0.55984  0.05140  1.0000
  C   C178      1.0  0.61065  0.56290  0.18885  1.0000
  H   H181      1.0  0.77800  0.31655  0.31721  1.0000
  S   S60       1.0  0.99146  0.08608  0.26287  1.0000
  C   C179      1.0  0.79195  0.55993  0.27790  1.0000
  C   C180      1.0  0.90472  0.48530  0.31885  1.0000
  C   C181      1.0  0.86475  0.56812  0.29394  1.0000
  H   H182      1.0  0.91294  0.23629  0.33918  1.0000
  H   H183      1.0  0.96114  0.49246  0.33139  1.0000
  H   H184      1.0  0.97290  0.32296  0.36254  1.0000
  H   H185      1.0  0.88544  0.30825  0.38666  1.0000
  C   C182      1.0  0.76001  0.46961  0.28698  1.0000
  H   H186      1.0  0.70335  0.46232  0.27503  1.0000
  H   H187      1.0  0.85823  0.11653  0.43350  1.0000
  C   C183      1.0  0.61373  0.28822  0.31944  1.0000
  C   C184      1.0  0.80626  0.18598  0.21075  1.0000
  C   C185      1.0  0.91322  0.31171  0.35524  1.0000
  H   H188      1.0  0.71282  0.23867  0.24931  1.0000
  S   S61       1.0  0.04183  0.32046  0.27352  1.0000
  C   C186      1.0  0.64276  0.39960  0.37763  1.0000
  H   H189      1.0  0.67187  0.41108  0.40824  1.0000
  S   S62       1.0  0.71096  0.19841  0.38464  1.0000
  C   C187      1.0  0.80197  0.38790  0.31148  1.0000
  H   H190      1.0  0.61937  0.21244  0.30540  1.0000
  S   S63       1.0  0.84508  0.30263  0.21261  1.0000
  Fe  Fe31      1.0  0.96624  0.24346  0.22862  1.0000
  N   N16       1.0  0.87304  0.39671  0.32741  1.0000
  C   C188      1.0  0.65113  0.30201  0.35918  1.0000
  C   C189      1.0  0.74294  0.17298  0.23411  1.0000
  C   C190      1.0  0.59777  0.48360  0.35598  1.0000
  H   H191      1.0  0.80770  0.49516  0.40547  1.0000
  S   S64       1.0  0.96471  0.50521  0.42160  1.0000
  Fe  Fe32      1.0  0.07476  0.16026  0.30289  1.0000
  C   C191      1.0  0.81433  0.56891  0.41956  1.0000
  H   H192      1.0  0.59193  0.55890  0.37019  1.0000
  C   C192      1.0  0.72245  0.07314  0.24083  1.0000
