data_image0
_chemical_formula_structural       HSH4CHCFeCSHFeHCSCFeC3FeH2S3CHCSCHCHCSCH2CSHCHSC2FeH4C2H3S2NHCH2CNHFeCHCH3SCH2FeC5NC6FeSHCH5SH4CHFeS2FeS2FeSFeHS2FeS2FeS2FeSFeS3FeS2FeS2FeSFeS5C6HSH2C3NH3C6H4C6H4C6H4C6H4CH3SHCH4CH2CFeC6HNH2SCHCHCHNC6H12SCHNC6H8CSCH3C2HC2HC2HC3HC2SC2HCSHSCFeCHC2NHC2HCHSFeCNFeNCNCHCH4CHC2HFeH2SHCFeHCSCHC3FeCSCHSHSH2CHC2HC2HCFeCHSC3HFeHNC2SCNH3C2HCNHCH4C3H2C3HC3HC4H2CSH3CH3CH5CHCH2NCHCH2CHCFeSCHSCHCHCH4CNHCHC2H2NHC3HCSCFeCFeSCHCHCHC2HC2HCHSHCH2C2H2CHC2SH2C2HNCHCSH2SCFeC2H4SH2FeHSHC2H2CHC2HNCH2CH2SCHCH3NH2CSCS2CHCFeS2FeS2FeS2FeS2FeSFeS3CSC2H2FeHCSH2FeH2NCFeCHC2HSFeHCH3CHCSFeCHSCHCHC3SHC6H5C2HCHC3H4C6H2CHC3H3CHC2NC2HCH3NCHCH2CHC4H3NC5HCH3NH2C2S2HSHFeC2H2C3FeH4CHC3H2CHC3NHC2SH2SC4H2C2H2C2HC2HCHCH3S2H2C2HSC2HC2HCHFeCNFeH2SCSFeNHCHCSHSH3CH2SHSH3SHSC3SCHCFeHNS3CSFeSCHSCHFeCHCHSC4H2CHCH2SHCHC2HC2H3NFeHC2HCSHC3SHSH4C2HFeSCH3C2NHCH2CHC2HFeCNCFeHFeSHC2HC2SH2CHCHCHCFeHCHC2SCHSCHSC3HC2SFeH2SCSC2HC4H3CHFeH2SFeCHCHCH2SFeC2NCFeHCH4C2HSH3CH2CFeS2NSHFeCHCHSC2HC2S2H2CHCHC3H3FeHNS2FeSFeS2FeS4H2NSH4CHSHCFeCFeC2HS2H2C3SCHSCSC7H3C4HCHCFeHC2HCH2C3HC2H2CSFeHCNCNHC2H5SC7H3CFeCHS2HNHSCSC2H2CHSHCHNHFeHCSCHCFeC2H2FeHC2H2CHCH4CH2SCH2CH2C2HCSCNC2HCSHC3SC3HCHCHCHCHC2HC3HC2H3CH2C2NH5CH3CH2S2CHCHC2H2C3H2FeC2H2NHCHSCFeH2CH3SH2SCH3C2HFeS2FeSCHSH2NHFeSNHCHSCS2HCHS2C3HCH3C4HC8H3CFeSHC2FeCH2C3SH3CH3FeCHSC2FeC2HCHSFeHFeHCHCSHCH2CHCFeHFeC3FeC2SHFeCH3CHCHSCHCHNHSC2H4C2SHCHC2HCSCSCH3SFeCSHFeNH3NH2C2HSCHCH2C2SCHCHCFeHCH4CHCH2CHCHC2HFeH3FeS2CHSH3CHSCH2CNCFeCSFeC2HC4HCHC6HCH2C2HCH3C3H5S2H2CHSNHCHSCNCHCFeCSHSH2CHCSC2H3C2HSFeHFeSCH2FeS2FeS2FeSFeS3HSFeCSHFeSFeHSCS2FeSFeHSC3SHSH2CFeCSCHSCH2C6H4C2HCHCHC6H5CS2HFeSC8H4CHCH2CH2C2HSNHCHSCHCHC3HFeHCSCS2NHCFeCH3S3HNC3HSNC4SCHCH6NC7HC2H6SNSC5H2NCH3C2FeC2SNCHC3HCSCH4CHCHCFe2C3HCHFeHSCH2FeC2SHC2NCHSHFeNFeC4HCHCHC2H2FeHCHC3HFeHCH2SCHSHSHC2H4CHCHCHCHC2HCFeHCH2CS2HC2H2CSNHCH4SHC2HSH2C2H5CHCNC3HC3HCH2NFeHSH2CFeCH
_chemical_formula_sum              "H768 S256 C768 Fe128 N64"
_cell_length_a       50.5033
_cell_length_b       52.1617
_cell_length_c       54.8568
_cell_angle_alpha    79.3556
_cell_angle_beta     77.6261
_cell_angle_gamma    74.8826

_space_group_name_H-M_alt    "P 1"
_space_group_IT_number       1

loop_
  _space_group_symop_operation_xyz
  'x, y, z'

loop_
  _atom_site_type_symbol
  _atom_site_label
  _atom_site_symmetry_multiplicity
  _atom_site_fract_x
  _atom_site_fract_y
  _atom_site_fract_z
  _atom_site_occupancy
  H   H1        1.0  0.17263  0.35992  0.30208  1.0000
  S   S1        1.0  0.44934  0.16699  0.27918  1.0000
  H   H2        1.0  0.41781  0.99023  0.12742  1.0000
  H   H3        1.0  0.45458  0.17544  0.21222  1.0000
  H   H4        1.0  0.47954  0.04620  0.25667  1.0000
  H   H5        1.0  0.45161  0.99316  0.24994  1.0000
  C   C1        1.0  0.43717  0.05731  0.25105  1.0000
  H   H6        1.0  0.15868  0.45946  0.16269  1.0000
  C   C2        1.0  0.16343  0.39032  0.23307  1.0000
  Fe  Fe1       1.0  0.45992  0.00225  0.19622  1.0000
  C   C3        1.0  0.43280  0.10301  0.27253  1.0000
  S   S2        1.0  0.45217  0.00179  0.15760  1.0000
  H   H7        1.0  0.20336  0.39192  0.23998  1.0000
  Fe  Fe2       1.0  0.48082  0.12944  0.28955  1.0000
  H   H8        1.0  0.36031  0.02781  0.24524  1.0000
  C   C4        1.0  0.45833  0.08420  0.26907  1.0000
  S   S3        1.0  0.41568  0.00401  0.21502  1.0000
  C   C5        1.0  0.41255  0.07719  0.25216  1.0000
  Fe  Fe3       1.0  0.41036  0.04845  0.20694  1.0000
  C   C6        1.0  0.14507  0.42441  0.20092  1.0000
  C   C7        1.0  0.22028  0.39735  0.29622  1.0000
  C   C8        1.0  0.08341  0.47667  0.14600  1.0000
  Fe  Fe4       1.0  0.11017  0.44747  0.27341  1.0000
  H   H9        1.0  0.32276  0.07465  0.15118  1.0000
  H   H10       1.0  0.16110  0.37361  0.24781  1.0000
  S   S4        1.0  0.48864  0.09006  0.27536  1.0000
  S   S5        1.0  0.45554  0.04662  0.19123  1.0000
  S   S6        1.0  0.46097  0.07383  0.12184  1.0000
  C   C9        1.0  0.32779  0.04023  0.17975  1.0000
  H   H11       1.0  0.33320  0.05430  0.25761  1.0000
  C   C10       1.0  0.46755  0.13245  0.21471  1.0000
  S   S7        1.0  0.07389  0.45556  0.25345  1.0000
  C   C11       1.0  0.16505  0.40266  0.29096  1.0000
  H   H12       1.0  0.33231  0.08876  0.22311  1.0000
  C   C12       1.0  0.18141  0.37740  0.29811  1.0000
  H   H13       1.0  0.12825  0.43384  0.19049  1.0000
  C   C13       1.0  0.07827  0.47853  0.17179  1.0000
  S   S8        1.0  0.01247  0.46159  0.13561  1.0000
  C   C14       1.0  0.18714  0.40062  0.22868  1.0000
  H   H14       1.0  0.43878  0.03939  0.24322  1.0000
  H   H15       1.0  0.16289  0.47619  0.18700  1.0000
  C   C15       1.0  0.46079  0.15831  0.20195  1.0000
  S   S9        1.0  0.39783  0.05231  0.16947  1.0000
  H   H16       1.0  0.46663  0.12952  0.23490  1.0000
  C   C16       1.0  0.20448  0.42233  0.28752  1.0000
  H   H17       1.0  0.39070  0.11497  0.26499  1.0000
  S   S10       1.0  0.09077  0.47872  0.29885  1.0000
  C   C17       1.0  0.14209  0.40243  0.21935  1.0000
  C   C18       1.0  0.17103  0.45778  0.17769  1.0000
  Fe  Fe5       1.0  0.44362  0.04661  0.15434  1.0000
  H   H18       1.0  0.12311  0.39519  0.22335  1.0000
  H   H19       1.0  0.01405  0.46448  0.18730  1.0000
  H   H20       1.0  0.46573  0.13113  0.12855  1.0000
  H   H21       1.0  0.04967  0.47447  0.20678  1.0000
  C   C19       1.0  0.40991  0.09967  0.26376  1.0000
  C   C20       1.0  0.33052  0.07507  0.21118  1.0000
  H   H22       1.0  0.48486  0.09790  0.16471  1.0000
  H   H23       1.0  0.32528  0.10603  0.17933  1.0000
  H   H24       1.0  0.46647  0.16556  0.12762  1.0000
  S   S11       1.0  0.38698  0.07500  0.23612  1.0000
  S   S12       1.0  0.13010  0.40587  0.28926  1.0000
  N   N1        1.0  0.16863  0.43412  0.19641  1.0000
  H   H25       1.0  0.33469  0.00969  0.21128  1.0000
  C   C21       1.0  0.18928  0.42286  0.21035  1.0000
  H   H26       1.0  0.32494  0.02352  0.25498  1.0000
  H   H27       1.0  0.43089  0.12056  0.28107  1.0000
  C   C22       1.0  0.32655  0.08498  0.18639  1.0000
  N   N2        1.0  0.33289  0.04839  0.22003  1.0000
  H   H28       1.0  0.16419  0.44467  0.28021  1.0000
  Fe  Fe6       1.0  0.40728  0.00736  0.17605  1.0000
  C   C23       1.0  0.46016  0.06097  0.25909  1.0000
  H   H29       1.0  0.21316  0.43985  0.28395  1.0000
  C   C24       1.0  0.33181  0.03100  0.20461  1.0000
  H   H30       1.0  0.44900  0.99017  0.29585  1.0000
  H   H31       1.0  0.19300  0.45688  0.16837  1.0000
  H   H32       1.0  0.22169  0.35519  0.30608  1.0000
  S   S13       1.0  0.13336  0.47366  0.24439  1.0000
  C   C25       1.0  0.33798  0.03797  0.24575  1.0000
  H   H33       1.0  0.45948  0.18230  0.16584  1.0000
  H   H34       1.0  0.20743  0.43120  0.20756  1.0000
  Fe  Fe7       1.0  0.48179  0.18798  0.28218  1.0000
  C   C26       1.0  0.47577  0.14461  0.13513  1.0000
  C   C27       1.0  0.17673  0.42505  0.28528  1.0000
  C   C28       1.0  0.32516  0.06740  0.17062  1.0000
  C   C29       1.0  0.20904  0.37475  0.30067  1.0000
  C   C30       1.0  0.46346  0.16202  0.17572  1.0000
  N   N3        1.0  0.47194  0.14048  0.16268  1.0000
  C   C31       1.0  0.47596  0.11056  0.20133  1.0000
  C   C32       1.0  0.03357  0.46752  0.17582  1.0000
  C   C33       1.0  0.03855  0.46608  0.14992  1.0000
  C   C34       1.0  0.06375  0.47008  0.13514  1.0000
  C   C35       1.0  0.05371  0.47317  0.18685  1.0000
  C   C36       1.0  0.47804  0.11496  0.17511  1.0000
  Fe  Fe8       1.0  0.09526  0.48487  0.22660  1.0000
  S   S14       1.0  0.25261  0.39515  0.30420  1.0000
  H   H35       1.0  0.00763  0.41968  0.10487  1.0000
  C   C37       1.0  0.49095  0.23497  0.20286  1.0000
  H   H36       1.0  0.06755  0.46924  0.11510  1.0000
  H   H37       1.0  0.32765  0.02617  0.16746  1.0000
  H   H38       1.0  0.48104  0.09036  0.21119  1.0000
  H   H39       1.0  0.99373  0.42378  0.07618  1.0000
  H   H40       1.0  0.10237  0.48082  0.13427  1.0000
  S   S15       1.0  0.48807  0.22398  0.25413  1.0000
  H   H41       1.0  0.48230  0.25572  0.20564  1.0000
  H   H42       1.0  0.34741  0.30288  0.36273  1.0000
  H   H43       1.0  0.35061  0.15752  0.38046  1.0000
  H   H44       1.0  0.25348  0.41917  0.53801  1.0000
  C   C38       1.0  0.46657  0.17102  0.41394  1.0000
  H   H45       1.0  0.35180  0.13455  0.42421  1.0000
  Fe  Fe9       1.0  0.26278  0.30905  0.36505  1.0000
  S   S16       1.0  0.22596  0.34190  0.35695  1.0000
  S   S17       1.0  0.26497  0.26711  0.35912  1.0000
  Fe  Fe10      1.0  0.29070  0.34564  0.38202  1.0000
  S   S18       1.0  0.25674  0.38226  0.37497  1.0000
  S   S19       1.0  0.32775  0.34177  0.40020  1.0000
  Fe  Fe11      1.0  0.22794  0.35529  0.39263  1.0000
  S   S20       1.0  0.18956  0.36627  0.42101  1.0000
  Fe  Fe12      1.0  0.25762  0.36616  0.33952  1.0000
  H   H46       1.0  0.40898  0.19590  0.45394  1.0000
  S   S21       1.0  0.26154  0.31999  0.40276  1.0000
  S   S22       1.0  0.29456  0.33210  0.34457  1.0000
  Fe  Fe13      1.0  0.35570  0.39219  0.55586  1.0000
  S   S23       1.0  0.34474  0.36071  0.58728  1.0000
  S   S24       1.0  0.38725  0.41479  0.55771  1.0000
  Fe  Fe14      1.0  0.31377  0.38677  0.52647  1.0000
  S   S25       1.0  0.29867  0.35504  0.55546  1.0000
  S   S26       1.0  0.29261  0.40581  0.49354  1.0000
  Fe  Fe15      1.0  0.30061  0.38047  0.58351  1.0000
  S   S27       1.0  0.27072  0.38876  0.61934  1.0000
  Fe  Fe16      1.0  0.34401  0.33819  0.55659  1.0000
  S   S28       1.0  0.35923  0.29363  0.56179  1.0000
  S   S29       1.0  0.31147  0.41394  0.55431  1.0000
  S   S30       1.0  0.35926  0.36787  0.52511  1.0000
  Fe  Fe17      1.0  0.30187  0.18098  0.47462  1.0000
  S   S31       1.0  0.32061  0.14273  0.49715  1.0000
  S   S32       1.0  0.26237  0.18693  0.46018  1.0000
  Fe  Fe18      1.0  0.34736  0.20809  0.47671  1.0000
  S   S33       1.0  0.37009  0.17242  0.49969  1.0000
  S   S34       1.0  0.36232  0.24588  0.46365  1.0000
  Fe  Fe19      1.0  0.36110  0.14889  0.47343  1.0000
  S   S35       1.0  0.39576  0.11944  0.45360  1.0000
  Fe  Fe20      1.0  0.32738  0.17022  0.52114  1.0000
  S   S36       1.0  0.31749  0.16143  0.56330  1.0000
  S   S37       1.0  0.34161  0.18499  0.44874  1.0000
  S   S38       1.0  0.30540  0.20800  0.50019  1.0000
  S   S39       1.0  0.20941  0.30597  0.59328  1.0000
  S   S40       1.0  0.23462  0.33398  0.52350  1.0000
  C   C39       1.0  0.28849  0.18309  0.57850  1.0000
  C   C40       1.0  0.27564  0.17401  0.60259  1.0000
  C   C41       1.0  0.25077  0.18962  0.61414  1.0000
  C   C42       1.0  0.23871  0.21440  0.60166  1.0000
  C   C43       1.0  0.25225  0.22426  0.57817  1.0000
  C   C44       1.0  0.27727  0.20864  0.56666  1.0000
  H   H47       1.0  0.28444  0.15445  0.61200  1.0000
  S   S41       1.0  0.03414  0.16982  0.61054  1.0000
  H   H48       1.0  0.24330  0.24378  0.56892  1.0000
  H   H49       1.0  0.28793  0.21640  0.54883  1.0000
  C   C45       1.0  0.23805  0.38215  0.62160  1.0000
  C   C46       1.0  0.23173  0.37299  0.60170  1.0000
  C   C47       1.0  0.20593  0.36689  0.60392  1.0000
  N   N4        1.0  0.44670  0.17264  0.43531  1.0000
  H   H50       1.0  0.24654  0.37082  0.58446  1.0000
  H   H51       1.0  0.20093  0.36068  0.58808  1.0000
  H   H52       1.0  0.07723  0.09355  0.56264  1.0000
  C   C48       1.0  0.36297  0.27990  0.53412  1.0000
  C   C49       1.0  0.36708  0.29528  0.51045  1.0000
  C   C50       1.0  0.36818  0.28437  0.48861  1.0000
  C   C51       1.0  0.36400  0.25855  0.49055  1.0000
  C   C52       1.0  0.35993  0.24325  0.51423  1.0000
  C   C53       1.0  0.36007  0.25367  0.53592  1.0000
  H   H53       1.0  0.36960  0.31547  0.50894  1.0000
  H   H54       1.0  0.37150  0.29616  0.47030  1.0000
  H   H55       1.0  0.35653  0.22338  0.51599  1.0000
  H   H56       1.0  0.35700  0.24166  0.55417  1.0000
  C   C54       1.0  0.31889  0.36024  0.42566  1.0000
  C   C55       1.0  0.29584  0.38196  0.42700  1.0000
  C   C56       1.0  0.28806  0.39591  0.44786  1.0000
  C   C57       1.0  0.30297  0.38785  0.46776  1.0000
  C   C58       1.0  0.32619  0.36620  0.46648  1.0000
  C   C59       1.0  0.33441  0.35268  0.44522  1.0000
  H   H57       1.0  0.28408  0.38823  0.41187  1.0000
  H   H58       1.0  0.27014  0.41269  0.44872  1.0000
  H   H59       1.0  0.33786  0.35990  0.48175  1.0000
  H   H60       1.0  0.35236  0.33599  0.44415  1.0000
  C   C60       1.0  0.26609  0.24403  0.38668  1.0000
  C   C61       1.0  0.27740  0.24808  0.40641  1.0000
  C   C62       1.0  0.27724  0.22991  0.42871  1.0000
  C   C63       1.0  0.26506  0.20810  0.43150  1.0000
  C   C64       1.0  0.25442  0.20364  0.41154  1.0000
  C   C65       1.0  0.25523  0.22145  0.38902  1.0000
  H   H61       1.0  0.28686  0.26485  0.40423  1.0000
  H   H62       1.0  0.28620  0.23290  0.44388  1.0000
  H   H63       1.0  0.24555  0.18643  0.41348  1.0000
  H   H64       1.0  0.24685  0.21805  0.37362  1.0000
  C   C66       1.0  0.20100  0.35977  0.44995  1.0000
  C   C67       1.0  0.22822  0.36074  0.45074  1.0000
  C   C68       1.0  0.23834  0.35323  0.47349  1.0000
  C   C69       1.0  0.22153  0.34404  0.49532  1.0000
  C   C70       1.0  0.19435  0.34290  0.49451  1.0000
  C   C71       1.0  0.18391  0.35121  0.47193  1.0000
  H   H65       1.0  0.24148  0.36741  0.43381  1.0000
  H   H66       1.0  0.25930  0.35429  0.47408  1.0000
  H   H67       1.0  0.18134  0.33544  0.51116  1.0000
  H   H68       1.0  0.16295  0.35014  0.47130  1.0000
  C   C72       1.0  0.24225  0.12498  0.59504  1.0000
  H   H69       1.0  0.15438  0.20717  0.56200  1.0000
  H   H70       1.0  0.33584  0.41992  0.59337  1.0000
  H   H71       1.0  0.43904  0.08181  0.32535  1.0000
  S   S42       1.0  0.46662  0.19214  0.32311  1.0000
  H   H72       1.0  0.12035  0.23168  0.49377  1.0000
  C   C73       1.0  0.39353  0.40424  0.47163  1.0000
  H   H73       1.0  0.46535  0.40606  0.62724  1.0000
  H   H74       1.0  0.24365  0.25245  0.63829  1.0000
  H   H75       1.0  0.10734  0.27904  0.50220  1.0000
  H   H76       1.0  0.18815  0.38894  0.52296  1.0000
  C   C74       1.0  0.37296  0.43525  0.58157  1.0000
  H   H77       1.0  0.07767  0.23837  0.55678  1.0000
  H   H78       1.0  0.19333  0.99626  0.64351  1.0000
  C   C75       1.0  0.32128  0.46400  0.49346  1.0000
  Fe  Fe21      1.0  0.43704  0.16777  0.32082  1.0000
  C   C76       1.0  0.39419  0.15790  0.37254  1.0000
  C   C77       1.0  0.41920  0.15024  0.38188  1.0000
  C   C78       1.0  0.42011  0.13629  0.40616  1.0000
  C   C79       1.0  0.39573  0.13118  0.42163  1.0000
  C   C80       1.0  0.37072  0.13863  0.41228  1.0000
  C   C81       1.0  0.36997  0.15184  0.38766  1.0000
  H   H79       1.0  0.43772  0.15578  0.37073  1.0000
  N   N5        1.0  0.16207  0.42329  0.34899  1.0000
  H   H80       1.0  0.13497  0.39710  0.35150  1.0000
  H   H81       1.0  0.48447  0.15411  0.41270  1.0000
  S   S43       1.0  0.15884  0.12392  0.57818  1.0000
  C   C82       1.0  0.15342  0.39810  0.35900  1.0000
  H   H82       1.0  0.33813  0.27723  0.33281  1.0000
  C   C83       1.0  0.19750  0.44847  0.33981  1.0000
  H   H83       1.0  0.40772  0.45389  0.57500  1.0000
  C   C84       1.0  0.08509  0.03394  0.60078  1.0000
  H   H84       1.0  0.06555  0.27411  0.55745  1.0000
  N   N6        1.0  0.28628  0.28582  0.51268  1.0000
  C   C85       1.0  0.26894  0.27109  0.50919  1.0000
  C   C86       1.0  0.29926  0.30045  0.49253  1.0000
  C   C87       1.0  0.26474  0.27022  0.48500  1.0000
  C   C88       1.0  0.29588  0.29969  0.46806  1.0000
  C   C89       1.0  0.27857  0.28442  0.46436  1.0000
  C   C90       1.0  0.29081  0.28555  0.53826  1.0000
  H   H85       1.0  0.25830  0.25991  0.52516  1.0000
  H   H86       1.0  0.31227  0.31287  0.49526  1.0000
  H   H87       1.0  0.25130  0.25824  0.48222  1.0000
  H   H88       1.0  0.30655  0.31089  0.45206  1.0000
  H   H89       1.0  0.27593  0.28356  0.44552  1.0000
  H   H90       1.0  0.30366  0.29975  0.53871  1.0000
  H   H91       1.0  0.27058  0.29171  0.55085  1.0000
  H   H92       1.0  0.30162  0.26513  0.54569  1.0000
  H   H93       1.0  0.32366  0.48376  0.48276  1.0000
  H   H94       1.0  0.26970  0.16943  0.53166  1.0000
  H   H95       1.0  0.23885  0.19566  0.53312  1.0000
  H   H96       1.0  0.30227  0.45944  0.48977  1.0000
  S   S44       1.0  0.14662  0.29380  0.60523  1.0000
  C   C91       1.0  0.44082  0.21255  0.39421  1.0000
  H   H97       1.0  0.31159  0.30872  0.60285  1.0000
  N   N7        1.0  0.19210  0.23594  0.45988  1.0000
  C   C92       1.0  0.19782  0.24580  0.43491  1.0000
  C   C93       1.0  0.18797  0.25216  0.47796  1.0000
  C   C94       1.0  0.20114  0.27207  0.42750  1.0000
  C   C95       1.0  0.19052  0.27875  0.47122  1.0000
  C   C96       1.0  0.19746  0.28860  0.44581  1.0000
  C   C97       1.0  0.18904  0.20823  0.46721  1.0000
  H   H98       1.0  0.20016  0.23324  0.42053  1.0000
  H   H99       1.0  0.18247  0.24464  0.49772  1.0000
  H   H100      1.0  0.20649  0.27957  0.40766  1.0000
  H   H101      1.0  0.18687  0.29169  0.48557  1.0000
  H   H102      1.0  0.19965  0.30909  0.44021  1.0000
  H   H103      1.0  0.16704  0.20738  0.46846  1.0000
  H   H104      1.0  0.20266  0.19499  0.45352  1.0000
  H   H105      1.0  0.19540  0.19969  0.48577  1.0000
  C   C98       1.0  0.16896  0.08644  0.64509  1.0000
  S   S45       1.0  0.46555  0.12832  0.33079  1.0000
  C   C99       1.0  0.42112  0.21444  0.41632  1.0000
  H   H106      1.0  0.20157  0.19401  0.56800  1.0000
  H   H107      1.0  0.37177  0.39954  0.44345  1.0000
  H   H108      1.0  0.15827  0.45319  0.58832  1.0000
  C   C100      1.0  0.21444  0.42635  0.56396  1.0000
  C   C101      1.0  0.45005  0.15182  0.45711  1.0000
  H   H109      1.0  0.18197  0.43124  0.60797  1.0000
  C   C102      1.0  0.04629  0.23416  0.60939  1.0000
  C   C103      1.0  0.28326  0.25434  0.61491  1.0000
  H   H110      1.0  0.20326  0.40729  0.35663  1.0000
  C   C104      1.0  0.30245  0.27019  0.60486  1.0000
  C   C105      1.0  0.34882  0.24288  0.39962  1.0000
  H   H111      1.0  0.43839  0.22792  0.37803  1.0000
  C   C106      1.0  0.44875  0.41816  0.61667  1.0000
  C   C107      1.0  0.13848  0.21647  0.52726  1.0000
  C   C108      1.0  0.02443  0.10352  0.62868  1.0000
  H   H112      1.0  0.32192  0.26216  0.59296  1.0000
  C   C109      1.0  0.34712  0.43359  0.59644  1.0000
  C   C110      1.0  0.18657  0.36923  0.62625  1.0000
  S   S46       1.0  0.11484  0.30266  0.54307  1.0000
  C   C111      1.0  0.03090  0.16351  0.64337  1.0000
  C   C112      1.0  0.29666  0.29634  0.61044  1.0000
  H   H113      1.0  0.31613  0.44733  0.62777  1.0000
  C   C113      1.0  0.45614  0.06629  0.39527  1.0000
  S   S47       1.0  0.10175  0.11887  0.61885  1.0000
  H   H114      1.0  0.36715  0.44814  0.51415  1.0000
  S   S48       1.0  0.20637  0.23232  0.61543  1.0000
  C   C114      1.0  0.25846  0.26493  0.63048  1.0000
  Fe  Fe22      1.0  0.14717  0.30558  0.56374  1.0000
  C   C115      1.0  0.13780  0.24946  0.55320  1.0000
  H   H115      1.0  0.23666  0.39483  0.51170  1.0000
  C   C116      1.0  0.12537  0.23670  0.51026  1.0000
  C   C117      1.0  0.07183  0.07618  0.57462  1.0000
  N   N8        1.0  0.23688  0.16157  0.56133  1.0000
  H   H116      1.0  0.14859  0.39592  0.37993  1.0000
  C   C118      1.0  0.04457  0.07266  0.57807  1.0000
  C   C119      1.0  0.48212  0.02311  0.38387  1.0000
  H   H117      1.0  0.05289  0.01293  0.61607  1.0000
  C   C120      1.0  0.22281  0.40302  0.52794  1.0000
  H   H118      1.0  0.40922  0.41333  0.50194  1.0000
  S   S49       1.0  0.15165  0.13992  0.64831  1.0000
  Fe  Fe23      1.0  0.20338  0.31785  0.55329  1.0000
  C   C121      1.0  0.15732  0.99381  0.59845  1.0000
  N   N9        1.0  0.18797  0.42230  0.57047  1.0000
  Fe  Fe24      1.0  0.16519  0.32918  0.60196  1.0000
  N   N10       1.0  0.34004  0.24114  0.35867  1.0000
  C   C122      1.0  0.34135  0.26740  0.35153  1.0000
  N   N11       1.0  0.06247  0.24961  0.59325  1.0000
  C   C123      1.0  0.34644  0.28202  0.36834  1.0000
  H   H119      1.0  0.27064  0.12702  0.55981  1.0000
  C   C124      1.0  0.34986  0.26973  0.39263  1.0000
  H   H120      1.0  0.42411  0.05270  0.33459  1.0000
  H   H121      1.0  0.43946  0.13042  0.41328  1.0000
  H   H122      1.0  0.34328  0.20783  0.38790  1.0000
  H   H123      1.0  0.26755  0.32656  0.63057  1.0000
  C   C125      1.0  0.44605  0.07200  0.37253  1.0000
  H   H124      1.0  0.25405  0.10576  0.60266  1.0000
  C   C126      1.0  0.20319  0.16299  0.59963  1.0000
  C   C127      1.0  0.19557  0.39965  0.53431  1.0000
  H   H125      1.0  0.15727  0.40637  0.56082  1.0000
  Fe  Fe25      1.0  0.12278  0.10497  0.58206  1.0000
  H   H126      1.0  0.18162  0.04429  0.64253  1.0000
  H   H127      1.0  0.14252  0.25418  0.56994  1.0000
  S   S50       1.0  0.09742  0.13913  0.55947  1.0000
  H   H128      1.0  0.18456  0.17355  0.61096  1.0000
  C   C128      1.0  0.38777  0.45242  0.58652  1.0000
  Fe  Fe26      1.0  0.19070  0.27181  0.59322  1.0000
  H   H129      1.0  0.35316  0.28106  0.40604  1.0000
  C   C129      1.0  0.21292  0.17445  0.57531  1.0000
  S   S51       1.0  0.11133  0.17868  0.59344  1.0000
  C   C130      1.0  0.46382  0.19085  0.39306  1.0000
  H   H130      1.0  0.23942  0.16504  0.52177  1.0000
  C   C131      1.0  0.34413  0.22869  0.38225  1.0000
  C   C132      1.0  0.23228  0.41661  0.54273  1.0000
  C   C133      1.0  0.03752  0.04988  0.59313  1.0000
  Fe  Fe27      1.0  0.13518  0.14112  0.61330  1.0000
  C   C134      1.0  0.41752  0.38982  0.61463  1.0000
  S   S52       1.0  0.19000  0.28068  0.55179  1.0000
  C   C135      1.0  0.42441  0.19421  0.43682  1.0000
  H   H131      1.0  0.07301  0.16581  0.64299  1.0000
  S   S53       1.0  0.14680  0.18312  0.52219  1.0000
  H   H132      1.0  0.02904  0.08756  0.56906  1.0000
  S   S54       1.0  0.16059  0.34361  0.56184  1.0000
  H   H133      1.0  0.40349  0.23153  0.41772  1.0000
  H   H134      1.0  0.00091  0.13124  0.60256  1.0000
  C   C136      1.0  0.06156  0.25415  0.56623  1.0000
  H   H135      1.0  0.33112  0.20638  0.34952  1.0000
  C   C137      1.0  0.14453  0.22284  0.54875  1.0000
  C   C138      1.0  0.17327  0.00354  0.61100  1.0000
  H   H136      1.0  0.28766  0.23389  0.61084  1.0000
  C   C139      1.0  0.11790  0.26337  0.51507  1.0000
  C   C140      1.0  0.25145  0.13707  0.57080  1.0000
  H   H137      1.0  0.41177  0.38861  0.46639  1.0000
  C   C141      1.0  0.12422  0.26970  0.53652  1.0000
  Fe  Fe28      1.0  0.13172  0.15944  0.55854  1.0000
  C   C142      1.0  0.24659  0.17354  0.53568  1.0000
  H   H138      1.0  0.35132  0.23326  0.41846  1.0000
  S   S55       1.0  0.39329  0.17506  0.34204  1.0000
  C   C143      1.0  0.21798  0.13810  0.60950  1.0000
  C   C144      1.0  0.36815  0.43768  0.49847  1.0000
  C   C145      1.0  0.09210  0.05679  0.58599  1.0000
  H   H139      1.0  0.33020  0.43473  0.45610  1.0000
  Fe  Fe29      1.0  0.07955  0.15495  0.59616  1.0000
  H   H140      1.0  0.09790  0.26163  0.63418  1.0000
  N   N12       1.0  0.45430  0.05383  0.35571  1.0000
  C   C146      1.0  0.37691  0.46743  0.60671  1.0000
  C   C147      1.0  0.44348  0.05992  0.33203  1.0000
  S   S56       1.0  0.12593  0.06131  0.58276  1.0000
  C   C148      1.0  0.17826  0.40957  0.55572  1.0000
  N   N13       1.0  0.42310  0.40857  0.62603  1.0000
  H   H141      1.0  0.22225  0.43630  0.57570  1.0000
  H   H142      1.0  0.21893  0.44910  0.33930  1.0000
  H   H143      1.0  0.15109  0.00539  0.58117  1.0000
  C   C149      1.0  0.16972  0.43219  0.59307  1.0000
  C   C150      1.0  0.33603  0.44897  0.61617  1.0000
  H   H144      1.0  0.44533  0.43950  0.61934  1.0000
  C   C151      1.0  0.18859  0.42477  0.34947  1.0000
  N   N14       1.0  0.34611  0.44320  0.48605  1.0000
  H   H145      1.0  0.48304  0.03724  0.41807  1.0000
  C   C152      1.0  0.39214  0.41809  0.49152  1.0000
  H   H146      1.0  0.15448  0.41951  0.60141  1.0000
  H   H147      1.0  0.09332  0.27202  0.58928  1.0000
  H   H148      1.0  0.10047  0.01904  0.60982  1.0000
  H   H149      1.0  0.43169  0.09109  0.36841  1.0000
  C   C153      1.0  0.08063  0.25961  0.60199  1.0000
  C   C154      1.0  0.37116  0.41037  0.45876  1.0000
  C   C155      1.0  0.14352  0.44531  0.33989  1.0000
  H   H150      1.0  0.11518  0.05102  0.64117  1.0000
  H   H151      1.0  0.03461  0.21671  0.64780  1.0000
  C   C156      1.0  0.05789  0.03056  0.60442  1.0000
  C   C157      1.0  0.04776  0.22869  0.63506  1.0000
  C   C158      1.0  0.08313  0.25399  0.62745  1.0000
  H   H152      1.0  0.17032  0.38075  0.35325  1.0000
  C   C159      1.0  0.06659  0.23836  0.64405  1.0000
  C   C160      1.0  0.40522  0.41798  0.64660  1.0000
  C   C161      1.0  0.27169  0.30629  0.62611  1.0000
  H   H153      1.0  0.43149  0.38253  0.59813  1.0000
  C   C162      1.0  0.17890  0.47088  0.33002  1.0000
  C   C163      1.0  0.47160  0.02942  0.36136  1.0000
  C   C164      1.0  0.15167  0.46942  0.33022  1.0000
  C   C165      1.0  0.47452  0.04178  0.40079  1.0000
  H   H154      1.0  0.24044  0.18210  0.63247  1.0000
  H   H155      1.0  0.38826  0.36651  0.61375  1.0000
  C   C166      1.0  0.34762  0.43026  0.46607  1.0000
  S   S57       1.0  0.15602  0.35814  0.62969  1.0000
  H   H156      1.0  0.12250  0.44414  0.33948  1.0000
  H   H157      1.0  0.17079  0.09205  0.62497  1.0000
  H   H158      1.0  0.17916  0.02242  0.60345  1.0000
  C   C167      1.0  0.35109  0.46552  0.62166  1.0000
  H   H159      1.0  0.45904  0.05013  0.31685  1.0000
  H   H160      1.0  0.45588  0.41708  0.59619  1.0000
  H   H161      1.0  0.35309  0.22317  0.32514  1.0000
  C   C168      1.0  0.33481  0.22638  0.34058  1.0000
  H   H162      1.0  0.04303  0.11123  0.62172  1.0000
  H   H163      1.0  0.44976  0.08075  0.40852  1.0000
  H   H164      1.0  0.31603  0.23768  0.33250  1.0000
  H   H165      1.0  0.21074  0.12914  0.62845  1.0000
  H   H166      1.0  0.03221  0.22582  0.60245  1.0000
  C   C169      1.0  0.39304  0.38064  0.62340  1.0000
  H   H167      1.0  0.04086  0.25362  0.56272  1.0000
  C   C170      1.0  0.37424  0.39079  0.64391  1.0000
  H   H168      1.0  0.45993  0.13179  0.45104  1.0000
  H   H169      1.0  0.31782  0.46516  0.51398  1.0000
  N   N15       1.0  0.25288  0.29067  0.63575  1.0000
  C   C171      1.0  0.21829  0.38557  0.64366  1.0000
  H   H170      1.0  0.42951  0.15007  0.46880  1.0000
  C   C172      1.0  0.02412  0.08239  0.64833  1.0000
  H   H171      1.0  0.46296  0.15657  0.46893  1.0000
  H   H172      1.0  0.47750  0.01473  0.34834  1.0000
  C   C173      1.0  0.18105  0.98900  0.63342  1.0000
  H   H173      1.0  0.47943  0.18927  0.37606  1.0000
  C   C174      1.0  0.00074  0.11469  0.61780  1.0000
  Fe  Fe30      1.0  0.00453  0.00472  0.61982  1.0000
  S   S58       1.0  0.00330  0.04562  0.59838  1.0000
  C   C175      1.0  0.19248  0.37912  0.64600  1.0000
  H   H174      1.0  0.38837  0.48061  0.61056  1.0000
  S   S59       1.0  0.33769  0.48230  0.64813  1.0000
  C   C176      1.0  0.15615  0.06560  0.85271  1.0000
  H   H175      1.0  0.40972  0.43282  0.65551  1.0000
  C   C177      1.0  0.45183  0.46074  0.77960  1.0000
  H   H176      1.0  0.02993  0.99075  0.80760  1.0000
  C   C178      1.0  0.99572  0.19090  0.79945  1.0000
  H   H177      1.0  0.99416  0.12238  0.85340  1.0000
  H   H178      1.0  0.22991  0.00074  0.87879  1.0000
  H   H179      1.0  0.23055  0.29477  0.67277  1.0000
  H   H180      1.0  0.18822  0.03744  0.88617  1.0000
  C   C179      1.0  0.00444  0.15214  0.68464  1.0000
  N   N16       1.0  0.01112  0.15323  0.82978  1.0000
  H   H181      1.0  0.06903  0.02012  0.69065  1.0000
  C   C180      1.0  0.08011  0.07143  0.81286  1.0000
  H   H182      1.0  0.44907  0.41675  0.73128  1.0000
  C   C181      1.0  0.05961  0.07480  0.71936  1.0000
  C   C182      1.0  0.19595  0.03232  0.86722  1.0000
  H   H183      1.0  0.08355  0.10498  0.70714  1.0000
  H   H184      1.0  0.04710  0.08425  0.73540  1.0000
  N   N17       1.0  0.18198  0.04503  0.84791  1.0000
  H   H185      1.0  0.14326  0.00764  0.87389  1.0000
  C   C183      1.0  0.21424  0.01634  0.81978  1.0000
  C   C184      1.0  0.22864  0.00332  0.83933  1.0000
  C   C185      1.0  0.05213  0.15556  0.68055  1.0000
  H   H186      1.0  0.16172  0.06561  0.71742  1.0000
  C   C186      1.0  0.00601  0.13725  0.85454  1.0000
  S   S60       1.0  0.11611  0.06816  0.80566  1.0000
  C   C187      1.0  0.06669  0.06702  0.83786  1.0000
  Fe  Fe31      1.0  0.12993  0.03515  0.78173  1.0000
  C   C188      1.0  0.08015  0.08642  0.70351  1.0000
  Fe  Fe32      1.0  0.42626  0.46725  0.68116  1.0000
  S   S61       1.0  0.38431  0.45937  0.69837  1.0000
  C   C189      1.0  0.06501  0.07646  0.79324  1.0000
  H   H187      1.0  0.07536  0.07985  0.77390  1.0000
  C   C190      1.0  0.22730  0.30095  0.65296  1.0000
  H   H188      1.0  0.99378  0.15005  0.86915  1.0000
  C   C191      1.0  0.09661  0.07371  0.68325  1.0000
  H   H189      1.0  0.40756  0.47490  0.78136  1.0000
  C   C192      1.0  0.05563  0.05078  0.71472  1.0000
  C   C193      1.0  0.19076  0.03726  0.82445  1.0000
  H   H190      1.0  0.15463  0.99555  0.83096  1.0000
  C   C194      1.0  0.03651  0.07720  0.79857  1.0000
  C   C195      1.0  0.17225  0.05172  0.68114  1.0000
  H   H191      1.0  0.11278  0.08269  0.67125  1.0000
  C   C196      1.0  0.00600  0.15909  0.65849  1.0000
  H   H192      1.0  0.15193  0.11389  0.69959  1.0000
  S   S62       1.0  0.46064  0.43080  0.67487  1.0000
  H   H193      1.0  0.40569  0.44643  0.75034  1.0000
  C   C197      1.0  0.01802  0.18079  0.78119  1.0000
  H   H194      1.0  0.22313  0.39278  0.65909  1.0000
  H   H195      1.0  0.04248  0.07374  0.65677  1.0000
  C   C198      1.0  0.03318  0.14335  0.81207  1.0000
  C   C199      1.0  0.45003  0.42896  0.74495  1.0000
  H   H196      1.0  0.22060  0.00958  0.80139  1.0000
  H   H197      1.0  0.04755  0.12449  0.81665  1.0000
  C   C200      1.0  0.03699  0.15695  0.78754  1.0000
  H   H198      1.0  0.17905  0.04672  0.80941  1.0000
  C   C201      1.0  0.02317  0.07197  0.82344  1.0000
  C   C202      1.0  0.38038  0.40952  0.65570  1.0000
  S   S63       1.0  0.11870  0.99682  0.80128  1.0000
  H   H199      1.0  0.05386  0.14848  0.77326  1.0000
  H   H200      1.0  0.15446  0.08177  0.83638  1.0000
  C   C203      1.0  0.15846  0.09866  0.68717  1.0000
  C   C204      1.0  0.07232  0.03875  0.69414  1.0000
  H   H201      1.0  0.06999  0.15447  0.68897  1.0000
  N   N18       1.0  0.09259  0.05016  0.67881  1.0000
  C   C205      1.0  0.42643  0.46173  0.77297  1.0000
  H   H202      1.0  0.00608  0.01594  0.82466  1.0000
  C   C206      1.0  0.03824  0.06695  0.84314  1.0000
  S   S64       1.0  0.02646  0.14146  0.72808  1.0000
  H   H203      1.0  0.02507  0.08127  0.78331  1.0000
  H   H204      1.0  0.06840  0.23366  0.66383  1.0000
  S   S65       1.0  0.11558  0.03353  0.74626  1.0000
  C   C207      1.0  0.16387  0.07139  0.69724  1.0000
  Fe  Fe33      1.0  0.10908  0.99316  0.76450  1.0000
  C   C208      1.0  0.15911  0.98986  0.86957  1.0000
  C   C209      1.0  0.02755  0.15040  0.69563  1.0000
  H   H205      1.0  0.07847  0.06269  0.85304  1.0000
  H   H206      1.0  0.15512  0.07499  0.86960  1.0000
  H   H207      1.0  0.02590  0.12625  0.86089  1.0000
  H   H208      1.0  0.04019  0.04121  0.72730  1.0000
  S   S66       1.0  0.17475  0.01725  0.76777  1.0000
  H   H209      1.0  0.02010  0.19085  0.76193  1.0000
  H   H210      1.0  0.10219  0.02134  0.65314  1.0000
  Fe  Fe34      1.0  0.15947  0.01122  0.73415  1.0000
  H   H211      1.0  0.36554  0.41824  0.67115  1.0000
  S   S67       1.0  0.17810  0.01758  0.69314  1.0000
  H   H212      1.0  0.02796  0.06290  0.86241  1.0000
  C   C210      1.0  0.16072  0.10615  0.66108  1.0000
  C   C211      1.0  0.17508  0.05932  0.65507  1.0000
  H   H213      1.0  0.13794  0.05646  0.85560  1.0000
  H   H214      1.0  0.48033  0.46960  0.69422  1.0000
  C   C212      1.0  0.42544  0.44574  0.75557  1.0000
  H   H215      1.0  0.45283  0.47324  0.79302  1.0000
  C   C213      1.0  0.47599  0.44360  0.76880  1.0000
  C   C214      1.0  0.21956  0.01141  0.86318  1.0000
  H   H216      1.0  0.17748  0.38110  0.66329  1.0000
  N   N19       1.0  0.47489  0.42801  0.75170  1.0000
  C   C215      1.0  0.11119  0.03645  0.65835  1.0000
  H   H217      1.0  0.35460  0.38476  0.65021  1.0000
  H   H218      1.0  0.02424  0.02522  0.79337  1.0000
  C   C216      1.0  0.01391  0.00984  0.80557  1.0000
  H   H219      1.0  0.13135  0.02599  0.66446  1.0000
  H   H220      1.0  0.24624  0.98643  0.83619  1.0000
  S   S68       1.0  0.01586  0.99706  0.65810  1.0000
  C   C217      1.0  0.00009  0.07240  0.65665  1.0000
  H   H221      1.0  0.20962  0.29334  0.65028  1.0000
  C   C218      1.0  0.05388  0.16185  0.65446  1.0000
  H   H222      1.0  0.99997  0.05588  0.67187  1.0000
  H   H223      1.0  0.22094  0.32318  0.64948  1.0000
  H   H224      1.0  0.30615  0.71364  0.99929  1.0000
  N   N20       1.0  0.16648  0.62640  0.19057  1.0000
  H   H225      1.0  0.20678  0.63263  0.17287  1.0000
  H   H226      1.0  0.16770  0.60485  0.22728  1.0000
  C   C219      1.0  0.18676  0.63061  0.17027  1.0000
  S   S69       1.0  0.37807  0.98268  0.17317  1.0000
  C   C220      1.0  0.39988  0.77805  0.14986  1.0000
  S   S70       1.0  0.01174  0.49851  0.29500  1.0000
  S   S71       1.0  0.17020  0.89939  0.02674  1.0000
  C   C221      1.0  0.46778  0.98018  0.28444  1.0000
  H   H227      1.0  0.42014  0.76342  0.14572  1.0000
  C   C222      1.0  0.47592  0.75293  0.05864  1.0000
  Fe  Fe35      1.0  0.35695  0.85422  0.11470  1.0000
  S   S72       1.0  0.36876  0.82332  0.08855  1.0000
  S   S73       1.0  0.32339  0.85284  0.14867  1.0000
  Fe  Fe36      1.0  0.37100  0.85810  0.05807  1.0000
  S   S74       1.0  0.35658  0.85808  0.02222  1.0000
  S   S75       1.0  0.35507  0.88934  0.08409  1.0000
  Fe  Fe37      1.0  0.27682  0.73437  0.09238  1.0000
  S   S76       1.0  0.25551  0.73788  0.13236  1.0000
  S   S77       1.0  0.32327  0.72074  0.08198  1.0000
  Fe  Fe38      1.0  0.22403  0.75752  0.07137  1.0000
  S   S78       1.0  0.19750  0.76242  0.10917  1.0000
  S   S79       1.0  0.20828  0.77332  0.03515  1.0000
  Fe  Fe39      1.0  0.23183  0.77788  0.11668  1.0000
  S   S80       1.0  0.21907  0.81374  0.13708  1.0000
  Fe  Fe40      1.0  0.22291  0.72207  0.12179  1.0000
  S   S81       1.0  0.20233  0.69349  0.15038  1.0000
  S   S82       1.0  0.25654  0.77633  0.07776  1.0000
  S   S83       1.0  0.24607  0.71509  0.08298  1.0000
  C   C223      1.0  0.35060  0.77761  0.15486  1.0000
  S   S84       1.0  0.09888  0.65655  0.25318  1.0000
  C   C224      1.0  0.48674  0.92716  0.13943  1.0000
  C   C225      1.0  0.13801  0.58218  0.27968  1.0000
  H   H228      1.0  0.43454  0.96474  0.09104  1.0000
  H   H229      1.0  0.00610  0.56954  0.25596  1.0000
  Fe  Fe41      1.0  0.05332  0.69572  0.17868  1.0000
  H   H230      1.0  0.34576  0.79040  0.16951  1.0000
  C   C226      1.0  0.03249  0.65231  0.30929  1.0000
  S   S85       1.0  0.05748  0.71388  0.21122  1.0000
  H   H231      1.0  0.40421  0.75020  0.11238  1.0000
  H   H232      1.0  0.17356  0.71429  0.10800  1.0000
  Fe  Fe42      1.0  0.40021  0.88420  0.08553  1.0000
  H   H233      1.0  0.10636  0.68748  0.18235  1.0000
  H   H234      1.0  0.00325  0.64735  0.16432  1.0000
  N   N21       1.0  0.45232  0.92648  0.17720  1.0000
  C   C227      1.0  0.44903  0.86491  0.99811  1.0000
  Fe  Fe43      1.0  0.06480  0.67147  0.23033  1.0000
  C   C228      1.0  0.32156  0.71405  0.01013  1.0000
  H   H235      1.0  0.31037  0.86253  0.07356  1.0000
  C   C229      1.0  0.29103  0.86708  0.06637  1.0000
  C   C230      1.0  0.47305  0.91308  0.12885  1.0000
  H   H236      1.0  0.15539  0.57334  0.28946  1.0000
  S   S86       1.0  0.42094  0.91830  0.08057  1.0000
  Fe  Fe44      1.0  0.11105  0.50590  0.26828  1.0000
  H   H237      1.0  0.41924  0.94625  0.20305  1.0000
  C   C231      1.0  0.43987  0.77232  0.02368  1.0000
  H   H238      1.0  0.42594  0.77995  0.01029  1.0000
  H   H239      1.0  0.40210  0.79773  0.13904  1.0000
  H   H240      1.0  0.32620  0.83232  0.00146  1.0000
  C   C232      1.0  0.12403  0.56568  0.27249  1.0000
  H   H241      1.0  0.36647  0.73561  0.10026  1.0000
  C   C233      1.0  0.03111  0.56947  0.21879  1.0000
  S   S87       1.0  0.40073  0.85216  0.11889  1.0000
  Fe  Fe45      1.0  0.01770  0.65990  0.21123  1.0000
  C   C234      1.0  0.00226  0.53817  0.23714  1.0000
  H   H242      1.0  0.04343  0.58079  0.16074  1.0000
  S   S88       1.0  0.41601  0.85559  0.05713  1.0000
  C   C235      1.0  0.15515  0.63339  0.14203  1.0000
  H   H243      1.0  0.02309  0.70367  0.28748  1.0000
  C   C236      1.0  0.16740  0.69881  0.14754  1.0000
  H   H244      1.0  0.45329  0.94549  0.20844  1.0000
  C   C237      1.0  0.00123  0.53142  0.30224  1.0000
  C   C238      1.0  0.11195  0.70377  0.14304  1.0000
  C   C239      1.0  0.12069  0.69378  0.16618  1.0000
  S   S89       1.0  0.07488  0.51965  0.24783  1.0000
  H   H245      1.0  0.13010  0.84016  0.12182  1.0000
  C   C240      1.0  0.29424  0.84303  0.14420  1.0000
  C   C241      1.0  0.29642  0.82708  0.12563  1.0000
  C   C242      1.0  0.27346  0.81769  0.12364  1.0000
  C   C243      1.0  0.24791  0.82525  0.13946  1.0000
  C   C244      1.0  0.24548  0.84181  0.15755  1.0000
  C   C245      1.0  0.26874  0.85031  0.16019  1.0000
  H   H246      1.0  0.31600  0.82101  0.11349  1.0000
  H   H247      1.0  0.27553  0.80455  0.10996  1.0000
  H   H248      1.0  0.22577  0.84761  0.16989  1.0000
  H   H249      1.0  0.26694  0.86260  0.17462  1.0000
  H   H250      1.0  0.29165  0.82577  0.06585  1.0000
  C   C246      1.0  0.37609  0.94587  0.14459  1.0000
  C   C247      1.0  0.32896  0.76942  0.14857  1.0000
  H   H251      1.0  0.39568  0.77966  0.17030  1.0000
  C   C248      1.0  0.01178  0.57214  0.30904  1.0000
  H   H252      1.0  0.04271  0.53590  0.30135  1.0000
  C   C249      1.0  0.33618  0.88859  0.01024  1.0000
  C   C250      1.0  0.33015  0.91143  0.02220  1.0000
  C   C251      1.0  0.31083  0.93448  0.01416  1.0000
  H   H253      1.0  0.48052  0.90851  0.10969  1.0000
  H   H254      1.0  0.19711  0.63883  0.12977  1.0000
  H   H255      1.0  0.33981  0.91128  0.03792  1.0000
  H   H256      1.0  0.30544  0.95186  0.02394  1.0000
  C   C252      1.0  0.17968  0.86436  0.02905  1.0000
  C   C253      1.0  0.18229  0.84897  0.05253  1.0000
  C   C254      1.0  0.19147  0.82102  0.05434  1.0000
  C   C255      1.0  0.19689  0.80830  0.03288  1.0000
  C   C256      1.0  0.19396  0.82369  0.00943  1.0000
  C   C257      1.0  0.18594  0.85174  0.00744  1.0000
  H   H257      1.0  0.17787  0.85871  0.06922  1.0000
  H   H258      1.0  0.19417  0.80933  0.07238  1.0000
  C   C258      1.0  0.38815  0.96669  0.14614  1.0000
  H   H259      1.0  0.45549  0.87780  0.00800  1.0000
  C   C259      1.0  0.36102  0.71594  0.03821  1.0000
  C   C260      1.0  0.33362  0.71584  0.05021  1.0000
  C   C261      1.0  0.31411  0.71431  0.03621  1.0000
  H   H260      1.0  0.37626  0.71701  0.04894  1.0000
  H   H261      1.0  0.29305  0.71398  0.04529  1.0000
  H   H262      1.0  0.07267  0.55309  0.16682  1.0000
  C   C262      1.0  0.01256  0.55991  0.23905  1.0000
  H   H263      1.0  0.22194  0.88405  0.04145  1.0000
  C   C263      1.0  0.30926  0.82320  0.00150  1.0000
  C   C264      1.0  0.36838  0.71614  0.01201  1.0000
  N   N22       1.0  0.25225  0.89956  0.05194  1.0000
  C   C265      1.0  0.27639  0.89368  0.06145  1.0000
  C   C266      1.0  0.23692  0.92750  0.04715  1.0000
  H   H264      1.0  0.28461  0.90959  0.06507  1.0000
  C   C267      1.0  0.24148  0.87940  0.04820  1.0000
  H   H265      1.0  0.22574  0.93053  0.03107  1.0000
  H   H266      1.0  0.22148  0.93311  0.06414  1.0000
  H   H267      1.0  0.25125  0.94137  0.04192  1.0000
  N   N23       1.0  0.30888  0.79819  0.01431  1.0000
  C   C268      1.0  0.28850  0.78586  0.01304  1.0000
  H   H268      1.0  0.14062  0.62272  0.27980  1.0000
  C   C269      1.0  0.38313  0.75539  0.12285  1.0000
  H   H269      1.0  0.15035  0.63731  0.12314  1.0000
  H   H270      1.0  0.19334  0.62470  0.21663  1.0000
  C   C270      1.0  0.33130  0.78401  0.02831  1.0000
  H   H271      1.0  0.28845  0.76579  0.02265  1.0000
  C   C271      1.0  0.01000  0.52672  0.21496  1.0000
  C   C272      1.0  0.05626  0.56950  0.17512  1.0000
  C   C273      1.0  0.14077  0.62533  0.18713  1.0000
  C   C274      1.0  0.17161  0.62406  0.21627  1.0000
  H   H272      1.0  0.34175  0.79809  0.03345  1.0000
  H   H273      1.0  0.32311  0.77224  0.04605  1.0000
  H   H274      1.0  0.34718  0.77021  0.01651  1.0000
  N   N24       1.0  0.13648  0.79890  0.13662  1.0000
  C   C275      1.0  0.11497  0.78872  0.13410  1.0000
  C   C276      1.0  0.14973  0.78945  0.15692  1.0000
  C   C277      1.0  0.10629  0.76844  0.15212  1.0000
  C   C278      1.0  0.14185  0.76890  0.17508  1.0000
  C   C279      1.0  0.11985  0.75852  0.17271  1.0000
  H   H275      1.0  0.10449  0.79612  0.11800  1.0000
  C   C280      1.0  0.02786  0.53734  0.19475  1.0000
  H   H276      1.0  0.08940  0.76016  0.14996  1.0000
  H   H277      1.0  0.15289  0.76093  0.19078  1.0000
  H   H278      1.0  0.11349  0.74258  0.18667  1.0000
  N   N25       1.0  0.03833  0.55830  0.19693  1.0000
  H   H279      1.0  0.00176  0.50997  0.21340  1.0000
  H   H280      1.0  0.15740  0.64093  0.22575  1.0000
  C   C281      1.0  0.26693  0.82494  0.98699  1.0000
  C   C282      1.0  0.33470  0.75410  0.12894  1.0000
  S   S90       1.0  0.13578  0.53073  0.27906  1.0000
  S   S91       1.0  0.44432  0.78535  0.09306  1.0000
  H   H281      1.0  0.43828  0.89467  0.13462  1.0000
  S   S92       1.0  0.02000  0.67400  0.24661  1.0000
  H   H282      1.0  0.11403  0.62895  0.16009  1.0000
  Fe  Fe46      1.0  0.01220  0.71478  0.22419  1.0000
  C   C283      1.0  0.45163  0.77259  0.06432  1.0000
  C   C284      1.0  0.44082  0.93376  0.20255  1.0000
  H   H283      1.0  0.02497  0.63923  0.29971  1.0000
  H   H284      1.0  0.35992  0.94043  0.15960  1.0000
  C   C285      1.0  0.12963  0.61010  0.27425  1.0000
  C   C286      1.0  0.46457  0.75315  0.01773  1.0000
  C   C287      1.0  0.43357  0.78229  0.04684  1.0000
  Fe  Fe47      1.0  0.41234  0.82385  0.09018  1.0000
  H   H285      1.0  0.31804  0.74781  0.12377  1.0000
  H   H286      1.0  0.38935  0.71707  0.00270  1.0000
  H   H287      1.0  0.04995  0.65951  0.29617  1.0000
  H   H288      1.0  0.30774  0.77546  0.15846  1.0000
  C   C288      1.0  0.40669  0.93817  0.10474  1.0000
  H   H289      1.0  0.12455  0.62264  0.20330  1.0000
  C   C289      1.0  0.41814  0.95954  0.10592  1.0000
  C   C290      1.0  0.00728  0.69965  0.30355  1.0000
  C   C291      1.0  0.18142  0.63410  0.14572  1.0000
  H   H290      1.0  0.09035  0.56481  0.25457  1.0000
  H   H291      1.0  0.03913  0.58626  0.22056  1.0000
  C   C292      1.0  0.44922  0.90535  0.14285  1.0000
  H   H292      1.0  0.48560  0.83275  0.00191  1.0000
  C   C293      1.0  0.38540  0.93155  0.12393  1.0000
  C   C294      1.0  0.10739  0.62168  0.26137  1.0000
  C   C295      1.0  0.02075  0.54548  0.30396  1.0000
  N   N26       1.0  0.37740  0.76982  0.14258  1.0000
  H   H293      1.0  0.44054  0.91543  0.21649  1.0000
  C   C296      1.0  0.26736  0.79896  0.99924  1.0000
  C   C297      1.0  0.14827  0.69158  0.16849  1.0000
  S   S93       1.0  0.47435  0.74195  0.98813  1.0000
  H   H294      1.0  0.16613  0.82221  0.11811  1.0000
  H   H295      1.0  0.37646  0.91507  0.12310  1.0000
  S   S94       1.0  0.10216  0.48909  0.18438  1.0000
  C   C298      1.0  0.43883  0.91262  0.16699  1.0000
  C   C299      1.0  0.36189  0.74722  0.11581  1.0000
  C   C300      1.0  0.34846  0.71575  0.99793  1.0000
  C   C301      1.0  0.14457  0.82076  0.11789  1.0000
  H   H296      1.0  0.12429  0.71917  0.10415  1.0000
  H   H297      1.0  0.15483  0.68403  0.18651  1.0000
  C   C302      1.0  0.13473  0.62877  0.16282  1.0000
  C   C303      1.0  0.25547  0.85257  0.05300  1.0000
  H   H298      1.0  0.41958  0.90757  0.17730  1.0000
  H   H299      1.0  0.16685  0.79745  0.15894  1.0000
  C   C304      1.0  0.13098  0.71143  0.12210  1.0000
  C   C305      1.0  0.48253  0.74346  0.03527  1.0000
  H   H300      1.0  0.41474  0.79745  0.05107  1.0000
  C   C306      1.0  0.28054  0.84645  0.06196  1.0000
  C   C307      1.0  0.15875  0.70893  0.12434  1.0000
  H   H301      1.0  0.06677  0.58338  0.18040  1.0000
  C   C308      1.0  0.09310  0.60531  0.25437  1.0000
  H   H302      1.0  0.07563  0.61419  0.24474  1.0000
  C   C309      1.0  0.10142  0.57730  0.25997  1.0000
  H   H303      1.0  0.02685  0.58306  0.31028  1.0000
  H   H304      1.0  0.14425  0.81734  0.09854  1.0000
  H   H305      1.0  0.24671  0.83673  0.04997  1.0000
  S   S95       1.0  0.07712  0.70735  0.14056  1.0000
  S   S96       1.0  0.06366  0.65301  0.19699  1.0000
  H   H306      1.0  0.25151  0.78892  0.99794  1.0000
  H   H307      1.0  0.03324  0.52882  0.17725  1.0000
  C   C310      1.0  0.49070  0.96597  0.29566  1.0000
  C   C311      1.0  0.46929  0.98203  0.25837  1.0000
  H   H308      1.0  0.19823  0.81393  0.99276  1.0000
  S   S97       1.0  0.00690  0.70086  0.18958  1.0000
  C   C312      1.0  0.40889  0.97378  0.12663  1.0000
  C   C313      1.0  0.47622  0.93346  0.16391  1.0000
  H   H309      1.0  0.39460  0.89782  0.01439  1.0000
  C   C314      1.0  0.29747  0.93453  0.99429  1.0000
  C   C315      1.0  0.46613  0.83949  0.99477  1.0000
  H   H310      1.0  0.48996  0.74542  0.07207  1.0000
  C   C316      1.0  0.40589  0.89925  0.99462  1.0000
  H   H311      1.0  0.41816  0.91477  0.99153  1.0000
  Fe  Fe48      1.0  0.19325  0.91675  0.99067  1.0000
  C   C317      1.0  0.28803  0.83717  0.98812  1.0000
  N   N27       1.0  0.42406  0.87309  0.98979  1.0000
  Fe  Fe49      1.0  0.05646  0.48952  0.27642  1.0000
  H   H312      1.0  0.48704  0.94438  0.17200  1.0000
  H   H313      1.0  0.18407  0.86355  0.98924  1.0000
  S   S98       1.0  0.26971  0.96107  0.98720  1.0000
  C   C318      1.0  0.32466  0.88963  0.98899  1.0000
  S   S99       1.0  0.23939  0.90161  0.98379  1.0000
  Fe  Fe50      1.0  0.04469  0.95998  0.64452  1.0000
  N   N28       1.0  0.14913  0.97041  0.60807  1.0000
  H   H314      1.0  0.18557  0.48929  0.32196  1.0000
  C   C319      1.0  0.17262  0.96517  0.64310  1.0000
  H   H315      1.0  0.13718  0.48675  0.32248  1.0000
  C   C320      1.0  0.13128  0.96143  0.59515  1.0000
  S   S100      1.0  0.00292  0.73451  0.39770  1.0000
  H   H316      1.0  0.99584  0.88633  0.54394  1.0000
  S   S101      1.0  0.99483  0.91650  0.60077  1.0000
  H   H317      1.0  0.00270  0.86100  0.47273  1.0000
  H   H318      1.0  0.99767  0.77513  0.52219  1.0000
  H   H319      1.0  0.13086  0.94001  0.60167  1.0000
  C   C321      1.0  0.15639  0.95620  0.63021  1.0000
  H   H320      1.0  0.44145  0.60924  0.64151  1.0000
  H   H321      1.0  0.00367  0.93047  0.54131  1.0000
  S   S102      1.0  0.41189  0.49548  0.64803  1.0000
  H   H322      1.0  0.04094  0.64006  0.32594  1.0000
  S   S103      1.0  0.00822  0.77250  0.45200  1.0000
  H   H323      1.0  0.13872  0.96372  0.57446  1.0000
  H   H324      1.0  0.02767  0.81620  0.46086  1.0000
  H   H325      1.0  0.14917  0.93808  0.63831  1.0000
  S   S104      1.0  0.03572  0.96931  0.60528  1.0000
  H   H326      1.0  0.42218  0.72876  0.62977  1.0000
  S   S105      1.0  0.48917  0.96557  0.32801  1.0000
  C   C322      1.0  0.00515  0.82201  0.46342  1.0000
  C   C323      1.0  0.45654  0.59029  0.64345  1.0000
  C   C324      1.0  0.42304  0.71395  0.64642  1.0000
  S   S106      1.0  0.47788  0.69798  0.62673  1.0000
  C   C325      1.0  0.48504  0.58973  0.63775  1.0000
  H   H327      1.0  0.10951  0.97342  0.59917  1.0000
  C   C326      1.0  0.44796  0.69516  0.64936  1.0000
  Fe  Fe51      1.0  0.00172  0.94744  0.62073  1.0000
  H   H328      1.0  0.49180  0.60825  0.63134  1.0000
  N   N29       1.0  0.00936  0.67454  0.31701  1.0000
  S   S107      1.0  0.43480  0.72043  0.94529  1.0000
  S   S108      1.0  0.38424  0.84101  0.93119  1.0000
  S   S109      1.0  0.36462  0.70373  0.83256  1.0000
  C   C327      1.0  0.40039  0.69557  0.68702  1.0000
  S   S110      1.0  0.34839  0.67093  0.78208  1.0000
  Fe  Fe52      1.0  0.37096  0.62785  0.78827  1.0000
  S   S111      1.0  0.34514  0.59806  0.80591  1.0000
  C   C328      1.0  0.45764  0.82255  0.98264  1.0000
  H   H329      1.0  0.38014  0.72874  0.66268  1.0000
  S   S112      1.0  0.19095  0.94935  0.80990  1.0000
  C   C329      1.0  0.99480  0.98614  0.78119  1.0000
  H   H330      1.0  0.34025  0.76831  0.87392  1.0000
  Fe  Fe53      1.0  0.39012  0.74214  0.95259  1.0000
  C   C330      1.0  0.47766  0.54444  0.71828  1.0000
  H   H331      1.0  0.28644  0.63573  0.75404  1.0000
  C   C331      1.0  0.34455  0.78110  0.85561  1.0000
  H   H332      1.0  0.40924  0.57504  0.72032  1.0000
  S   S113      1.0  0.15242  0.97038  0.75065  1.0000
  C   C332      1.0  0.38270  0.66545  0.91992  1.0000
  C   C333      1.0  0.44892  0.67606  0.67098  1.0000
  C   C334      1.0  0.47902  0.68984  0.72682  1.0000
  C   C335      1.0  0.10417  0.96754  0.69012  1.0000
  H   H333      1.0  0.43037  0.61304  0.69899  1.0000
  H   H334      1.0  0.39011  0.90608  0.98200  1.0000
  C   C336      1.0  0.35213  0.64389  0.69525  1.0000
  H   H335      1.0  0.12293  0.96968  0.67703  1.0000
  C   C337      1.0  0.44347  0.59383  0.70497  1.0000
  H   H336      1.0  0.28845  0.85700  0.97801  1.0000
  H   H337      1.0  0.41568  0.64534  0.86420  1.0000
  S   S114      1.0  0.42246  0.49920  0.70479  1.0000
  H   H338      1.0  0.39924  0.76659  0.83875  1.0000
  C   C338      1.0  0.35098  0.56847  0.79278  1.0000
  H   H339      1.0  0.20614  0.93945  0.89654  1.0000
  C   C339      1.0  0.33743  0.54853  0.80593  1.0000
  C   C340      1.0  0.47228  0.72051  0.68875  1.0000
  H   H340      1.0  0.32451  0.55120  0.82418  1.0000
  C   C341      1.0  0.18535  0.95958  0.83963  1.0000
  C   C342      1.0  0.20018  0.94403  0.85815  1.0000
  H   H341      1.0  0.40515  0.72304  0.89745  1.0000
  H   H342      1.0  0.38262  0.53909  0.74009  1.0000
  H   H343      1.0  0.42497  0.81787  0.96544  1.0000
  N   N30       1.0  0.13608  0.92675  0.89539  1.0000
  Fe  Fe54      1.0  0.23516  0.90201  0.94400  1.0000
  H   H344      1.0  0.36697  0.71572  0.88029  1.0000
  C   C343      1.0  0.38707  0.71559  0.86838  1.0000
  C   C344      1.0  0.08375  0.95846  0.68287  1.0000
  H   H345      1.0  0.43589  0.78737  0.84421  1.0000
  C   C345      1.0  0.34868  0.84791  0.92971  1.0000
  S   S115      1.0  0.35627  0.71976  0.96498  1.0000
  H   H346      1.0  0.32609  0.58219  0.73246  1.0000
  C   C346      1.0  0.36235  0.65454  0.88756  1.0000
  C   C347      1.0  0.30542  0.88023  0.92401  1.0000
  C   C348      1.0  0.33367  0.87452  0.92590  1.0000
  S   S116      1.0  0.25677  0.86621  0.92442  1.0000
  H   H347      1.0  0.36796  0.64964  0.86793  1.0000
  S   S117      1.0  0.18861  0.91318  0.95192  1.0000
  H   H348      1.0  0.34377  0.89074  0.92477  1.0000
  H   H349      1.0  0.43754  0.58845  0.78156  1.0000
  H   H350      1.0  0.32972  0.66386  0.72700  1.0000
  H   H351      1.0  0.31532  0.63651  0.76832  1.0000
  C   C349      1.0  0.41409  0.79654  0.85037  1.0000
  C   C350      1.0  0.33544  0.82706  0.93132  1.0000
  H   H352      1.0  0.45618  0.65092  0.87955  1.0000
  Fe  Fe55      1.0  0.40287  0.79682  0.93625  1.0000
  S   S118      1.0  0.39166  0.76912  0.91581  1.0000
  C   C351      1.0  0.37020  0.54168  0.75851  1.0000
  H   H353      1.0  0.42196  0.70445  0.80963  1.0000
  H   H354      1.0  0.30753  0.60523  0.76797  1.0000
  H   H355      1.0  0.35297  0.63856  0.89979  1.0000
  C   C352      1.0  0.35659  0.52174  0.77186  1.0000
  C   C353      1.0  0.46441  0.54907  0.78060  1.0000
  N   N31       1.0  0.36584  0.79524  0.85650  1.0000
  H   H356      1.0  0.35146  0.76793  0.84051  1.0000
  C   C354      1.0  0.19460  0.95154  0.88234  1.0000
  H   H357      1.0  0.04314  0.94963  0.69421  1.0000
  H   H358      1.0  0.21584  0.92609  0.85386  1.0000
  C   C355      1.0  0.30795  0.62527  0.75678  1.0000
  H   H359      1.0  0.43976  0.53128  0.73433  1.0000
  C   C356      1.0  0.41813  0.70905  0.82866  1.0000
  C   C357      1.0  0.39326  0.78465  0.84761  1.0000
  H   H360      1.0  0.42631  0.66233  0.70699  1.0000
  Fe  Fe56      1.0  0.37894  0.49410  0.71881  1.0000
  C   C358      1.0  0.45882  0.57710  0.77778  1.0000
  N   N32       1.0  0.38655  0.65705  0.89694  1.0000
  C   C359      1.0  0.17407  0.97452  0.88798  1.0000
  Fe  Fe57      1.0  0.40381  0.52693  0.67328  1.0000
  H   H361      1.0  0.37265  0.84886  0.87918  1.0000
  Fe  Fe58      1.0  0.19435  0.95524  0.94239  1.0000
  S   S119      1.0  0.01390  0.93425  0.65890  1.0000
  H   H362      1.0  0.29378  0.90082  0.92156  1.0000
  C   C360      1.0  0.40531  0.66849  0.92916  1.0000
  C   C361      1.0  0.29242  0.85936  0.92505  1.0000
  H   H363      1.0  0.47055  0.80266  0.98007  1.0000
  C   C362      1.0  0.43162  0.57247  0.71698  1.0000
  C   C363      1.0  0.14023  0.92270  0.85172  1.0000
  S   S120      1.0  0.19457  0.96008  0.98210  1.0000
  H   H364      1.0  0.40202  0.67563  0.94721  1.0000
  H   H365      1.0  0.47040  0.68115  0.74539  1.0000
  C   C364      1.0  0.16169  0.89982  0.85417  1.0000
  H   H366      1.0  0.42257  0.82889  0.86464  1.0000
  C   C365      1.0  0.43569  0.65446  0.89127  1.0000
  H   H367      1.0  0.11593  0.96294  0.91111  1.0000
  C   C366      1.0  0.12758  0.93602  0.87264  1.0000
  H   H368      1.0  0.36198  0.67046  0.93109  1.0000
  C   C367      1.0  0.39189  0.70979  0.84378  1.0000
  Fe  Fe59      1.0  0.37980  0.67824  0.80152  1.0000
  H   H369      1.0  0.45901  0.71627  0.82589  1.0000
  C   C368      1.0  0.40844  0.72051  0.87795  1.0000
  H   H370      1.0  0.44950  0.66618  0.92125  1.0000
  C   C369      1.0  0.44757  0.56648  0.65200  1.0000
  C   C370      1.0  0.36757  0.56502  0.76913  1.0000
  S   S121      1.0  0.35936  0.49237  0.75938  1.0000
  C   C371      1.0  0.35835  0.81802  0.86776  1.0000
  H   H371      1.0  0.32490  0.79549  0.85180  1.0000
  S   S122      1.0  0.45799  0.73399  0.87315  1.0000
  C   C372      1.0  0.43193  0.66309  0.91465  1.0000
  H   H372      1.0  0.11158  0.95430  0.87034  1.0000
  S   S123      1.0  0.44890  0.77999  0.92663  1.0000
  C   C373      1.0  0.33543  0.64513  0.71913  1.0000
  C   C374      1.0  0.46711  0.54200  0.65443  1.0000
  C   C375      1.0  0.12258  0.94101  0.91710  1.0000
  H   H373      1.0  0.29736  0.81655  0.92971  1.0000
  C   C376      1.0  0.43912  0.71553  0.83790  1.0000
  C   C377      1.0  0.15644  0.90378  0.89818  1.0000
  S   S124      1.0  0.37071  0.69725  0.71070  1.0000
  Fe  Fe60      1.0  0.44229  0.75274  0.96306  1.0000
  H   H374      1.0  0.37788  0.58051  0.75900  1.0000
  H   H375      1.0  0.33668  0.82621  0.87530  1.0000
  S   S125      1.0  0.39999  0.62979  0.75120  1.0000
  C   C378      1.0  0.34045  0.52513  0.79561  1.0000
  S   S126      1.0  0.35980  0.52421  0.68926  1.0000
  C   C379      1.0  0.37859  0.83085  0.87019  1.0000
  C   C380      1.0  0.16520  0.98273  0.84531  1.0000
  H   H376      1.0  0.34652  0.67389  0.88718  1.0000
  C   C381      1.0  0.41537  0.85637  0.97830  1.0000
  C   C382      1.0  0.44875  0.54776  0.72420  1.0000
  C   C383      1.0  0.40665  0.81974  0.86184  1.0000
  C   C384      1.0  0.35960  0.62001  0.68494  1.0000
  H   H377      1.0  0.43951  0.71624  0.72047  1.0000
  H   H378      1.0  0.44741  0.53899  0.78625  1.0000
  H   H379      1.0  0.17251  0.89010  0.83777  1.0000
  C   C385      1.0  0.35015  0.59777  0.69842  1.0000
  H   H380      1.0  0.35577  0.57925  0.69035  1.0000
  Fe  Fe61      1.0  0.38058  0.67374  0.74725  1.0000
  H   H381      1.0  0.18666  0.87253  0.87966  1.0000
  H   H382      1.0  0.34648  0.80652  0.93518  1.0000
  S   S127      1.0  0.40028  0.63493  0.81037  1.0000
  Fe  Fe62      1.0  0.42741  0.64099  0.77271  1.0000
  C   C386      1.0  0.43400  0.72181  0.86246  1.0000
  H   H383      1.0  0.01460  0.97159  0.77891  1.0000
  C   C387      1.0  0.33339  0.59965  0.72218  1.0000
  H   H384      1.0  0.33064  0.87274  0.97862  1.0000
  C   C388      1.0  0.30755  0.83276  0.92833  1.0000
  H   H385      1.0  0.16296  0.89618  0.91625  1.0000
  H   H386      1.0  0.29552  0.91280  0.96525  1.0000
  S   S128      1.0  0.41001  0.68526  0.76605  1.0000
  Fe  Fe63      1.0  0.43718  0.74937  0.90982  1.0000
  C   C389      1.0  0.07528  0.97287  0.73114  1.0000
  C   C390      1.0  0.47243  0.59004  0.70007  1.0000
  N   N33       1.0  0.32644  0.62311  0.73233  1.0000
  C   C391      1.0  0.05900  0.95670  0.69971  1.0000
  Fe  Fe64      1.0  0.16305  0.97860  0.78557  1.0000
  H   H387      1.0  0.32989  0.50978  0.80595  1.0000
  C   C392      1.0  0.16976  0.89013  0.87758  1.0000
  H   H388      1.0  0.35919  0.66136  0.68472  1.0000
  H   H389      1.0  0.03575  0.96214  0.73683  1.0000
  H   H390      1.0  0.46810  0.66169  0.67353  1.0000
  H   H391      1.0  0.13442  0.93079  0.83340  1.0000
  C   C393      1.0  0.41265  0.65139  0.88269  1.0000
  C   C394      1.0  0.42521  0.67648  0.68997  1.0000
  H   H392      1.0  0.17810  0.95405  0.66080  1.0000
  S   S129      1.0  0.24085  0.94392  0.93116  1.0000
  H   H393      1.0  0.39519  0.86241  0.97239  1.0000
  H   H394      1.0  0.13728  0.93877  0.93024  1.0000
  H   H395      1.0  0.25065  0.83533  0.97617  1.0000
  C   C395      1.0  0.05480  0.96378  0.72389  1.0000
  H   H396      1.0  0.10425  0.93317  0.92741  1.0000
  H   H397      1.0  0.45872  0.73522  0.67737  1.0000
  C   C396      1.0  0.39926  0.71398  0.66506  1.0000
  Fe  Fe65      1.0  0.24070  0.94474  0.97192  1.0000
  S   S130      1.0  0.41191  0.56785  0.66088  1.0000
  S   S131      1.0  0.39696  0.77184  0.97399  1.0000
  N   N34       1.0  0.48912  0.56539  0.70614  1.0000
  S   S132      1.0  0.47356  0.62529  0.76485  1.0000
  H   H398      1.0  0.48137  0.60675  0.69067  1.0000
  Fe  Fe66      1.0  0.36944  0.49006  0.66697  1.0000
  C   C397      1.0  0.43208  0.83100  0.97442  1.0000
  H   H399      1.0  0.46025  0.52354  0.66091  1.0000
  C   C398      1.0  0.30498  0.91239  0.98127  1.0000
  H   H400      1.0  0.49090  0.52507  0.72362  1.0000
  S   S133      1.0  0.08797  0.95174  0.65209  1.0000
  C   C399      1.0  0.48067  0.59026  0.76992  1.0000
  C   C400      1.0  0.09977  0.97504  0.71410  1.0000
  H   H401      1.0  0.37263  0.61874  0.66646  1.0000
  C   C401      1.0  0.46150  0.70976  0.71292  1.0000
  C   C402      1.0  0.49185  0.53421  0.77540  1.0000
  S   S134      1.0  0.16746  0.98491  0.91763  1.0000
  S   S135      1.0  0.06998  0.98246  0.76103  1.0000
  H   H402      1.0  0.11500  0.98337  0.71897  1.0000
  H   H403      1.0  0.65955  0.20034  0.06234  1.0000
  C   C403      1.0  0.62534  0.20680  0.13550  1.0000
  H   H404      1.0  0.83137  0.27052  0.12758  1.0000
  C   C404      1.0  0.77401  0.25479  0.01431  1.0000
  H   H405      1.0  0.65207  0.24886  0.06430  1.0000
  C   C405      1.0  0.56147  0.22736  0.22589  1.0000
  C   C406      1.0  0.60536  0.28189  0.08281  1.0000
  C   C407      1.0  0.49740  0.22773  0.17845  1.0000
  H   H406      1.0  0.78858  0.24125  0.10041  1.0000
  H   H407      1.0  0.93706  0.32996  0.00810  1.0000
  H   H408      1.0  0.62023  0.17791  0.07769  1.0000
  Fe  Fe67      1.0  0.67141  0.31161  0.05757  1.0000
  H   H409      1.0  0.57354  0.20431  0.09527  1.0000
  N   N35       1.0  0.82867  0.24782  0.09993  1.0000
  S   S136      1.0  0.57843  0.11649  0.23200  1.0000
  S   S137      1.0  0.62002  0.10141  0.16271  1.0000
  Fe  Fe68      1.0  0.66669  0.29734  0.11355  1.0000
  S   S138      1.0  0.69367  0.27666  0.08143  1.0000
  Fe  Fe69      1.0  0.67541  0.35186  0.08923  1.0000
  S   S139      1.0  0.70212  0.33643  0.05460  1.0000
  S   S140      1.0  0.66807  0.39560  0.09127  1.0000
  Fe  Fe70      1.0  0.72206  0.30330  0.08151  1.0000
  S   S141      1.0  0.76870  0.29309  0.07346  1.0000
  S   S142      1.0  0.64214  0.33058  0.08946  1.0000
  S   S143      1.0  0.69746  0.32035  0.11641  1.0000
  S   S144      1.0  0.64196  0.27512  0.14524  1.0000
  H   H410      1.0  0.92069  0.38151  0.11049  1.0000
  H   H411      1.0  0.87069  0.25030  0.09638  1.0000
  N   N36       1.0  0.96451  0.42069  0.11069  1.0000
  S   S145      1.0  0.60958  0.99486  0.27704  1.0000
  H   H412      1.0  0.67983  0.44482  0.09698  1.0000
  H   H413      1.0  0.53065  0.05707  0.22922  1.0000
  H   H414      1.0  0.54933  0.10141  0.10256  1.0000
  H   H415      1.0  0.96554  0.28679  0.99444  1.0000
  C   C408      1.0  0.63897  0.21192  0.06927  1.0000
  H   H416      1.0  0.96284  0.39485  0.08531  1.0000
  S   S146      1.0  0.87945  0.30413  0.09212  1.0000
  H   H417      1.0  0.61243  0.28337  0.10025  1.0000
  C   C409      1.0  0.58719  0.24137  0.08910  1.0000
  Fe  Fe71      1.0  0.84900  0.37880  0.02766  1.0000
  C   C410      1.0  0.75491  0.41206  0.02849  1.0000
  Fe  Fe72      1.0  0.81863  0.39838  0.07697  1.0000
  C   C411      1.0  0.59518  0.18579  0.21957  1.0000
  C   C412      1.0  0.81215  0.31951  0.98652  1.0000
  H   H418      1.0  0.80651  0.20620  0.07240  1.0000
  S   S147      1.0  0.85613  0.38256  0.09580  1.0000
  S   S148      1.0  0.58601  0.06090  0.13076  1.0000
  H   H419      1.0  0.62302  0.23823  0.19198  1.0000
  H   H420      1.0  0.49380  0.24288  0.16238  1.0000
  C   C413      1.0  0.95372  0.40264  0.10301  1.0000
  C   C414      1.0  0.92844  0.42390  0.14729  1.0000
  C   C415      1.0  0.53324  0.01470  0.26496  1.0000
  S   S149      1.0  0.51475  0.15027  0.28886  1.0000
  C   C416      1.0  0.80278  0.24756  0.00590  1.0000
  H   H421      1.0  0.81705  0.28970  0.10060  1.0000
  S   S150      1.0  0.58493  0.16250  0.16962  1.0000
  C   C417      1.0  0.51043  0.04599  0.13607  1.0000
  S   S151      1.0  0.88927  0.36243  0.04170  1.0000
  C   C418      1.0  0.92216  0.25647  0.02689  1.0000
  C   C419      1.0  0.93257  0.25051  0.04946  1.0000
  C   C420      1.0  0.91947  0.26525  0.06943  1.0000
  C   C421      1.0  0.89631  0.28647  0.06668  1.0000
  C   C422      1.0  0.88605  0.29273  0.04400  1.0000
  C   C423      1.0  0.89884  0.27759  0.02420  1.0000
  C   C424      1.0  0.86932  0.46360  0.11601  1.0000
  H   H422      1.0  0.74874  0.34813  0.01723  1.0000
  H   H423      1.0  0.86799  0.30899  0.04184  1.0000
  H   H424      1.0  0.50990  0.17321  0.23599  1.0000
  C   C425      1.0  0.78152  0.27674  0.04672  1.0000
  C   C426      1.0  0.81026  0.26998  0.03799  1.0000
  C   C427      1.0  0.82090  0.25511  0.01779  1.0000
  C   C428      1.0  0.62302  0.07477  0.29169  1.0000
  H   H425      1.0  0.77928  0.47632  0.11004  1.0000
  C   C429      1.0  0.76338  0.26947  0.03466  1.0000
  H   H426      1.0  0.82436  0.27579  0.04712  1.0000
  C   C430      1.0  0.56094  0.04061  0.19872  1.0000
  Fe  Fe73      1.0  0.58424  0.12159  0.18986  1.0000
  H   H427      1.0  0.74117  0.27491  0.04109  1.0000
  C   C431      1.0  0.69901  0.40324  0.09411  1.0000
  C   C432      1.0  0.72399  0.38356  0.09287  1.0000
  H   H428      1.0  0.72421  0.36323  0.09114  1.0000
  C   C433      1.0  0.58123  0.24136  0.21223  1.0000
  H   H429      1.0  0.69060  0.23548  0.12767  1.0000
  H   H430      1.0  0.79633  0.27112  0.12458  1.0000
  C   C434      1.0  0.69907  0.42955  0.09612  1.0000
  C   C435      1.0  0.64197  0.18471  0.19519  1.0000
  C   C436      1.0  0.67235  0.22757  0.12964  1.0000
  H   H431      1.0  0.72395  0.45659  0.09839  1.0000
  C   C437      1.0  0.93556  0.32455  0.99036  1.0000
  C   C438      1.0  0.81085  0.23518  0.09388  1.0000
  H   H432      1.0  0.65467  0.19816  0.18281  1.0000
  H   H433      1.0  0.84315  0.24910  0.01180  1.0000
  C   C439      1.0  0.63466  0.23926  0.07066  1.0000
  S   S152      1.0  0.65932  0.30559  0.02263  1.0000
  Fe  Fe74      1.0  0.87887  0.39996  0.05943  1.0000
  H   H434      1.0  0.75993  0.24909  0.00508  1.0000
  C   C440      1.0  0.81778  0.27079  0.11401  1.0000
  N   N37       1.0  0.72835  0.42055  0.01928  1.0000
  C   C441      1.0  0.50647  0.18856  0.22007  1.0000
  N   N38       1.0  0.60896  0.25363  0.08033  1.0000
  H   H435      1.0  0.60705  0.19945  0.13670  1.0000
  C   C442      1.0  0.74901  0.41660  0.09535  1.0000
  C   C443      1.0  0.50924  0.20099  0.17488  1.0000
  H   H436      1.0  0.59268  0.01886  0.17216  1.0000
  H   H437      1.0  0.97017  0.46246  0.30015  1.0000
  H   H438      1.0  0.60186  0.24488  0.14664  1.0000
  H   H439      1.0  0.55330  0.18832  0.24037  1.0000
  H   H440      1.0  0.52285  0.16092  0.19334  1.0000
  S   S153      1.0  0.78013  0.42584  0.09466  1.0000
  C   C444      1.0  0.59878  0.02831  0.26412  1.0000
  C   C445      1.0  0.57830  0.04654  0.27783  1.0000
  C   C446      1.0  0.57119  0.07357  0.26753  1.0000
  C   C447      1.0  0.58477  0.08236  0.24363  1.0000
  C   C448      1.0  0.60474  0.06401  0.22973  1.0000
  C   C449      1.0  0.61181  0.03704  0.24000  1.0000
  C   C450      1.0  0.95252  0.43089  0.13275  1.0000
  H   H441      1.0  0.55545  0.08769  0.27821  1.0000
  H   H442      1.0  0.61546  0.07068  0.21137  1.0000
  H   H443      1.0  0.62770  0.02300  0.22936  1.0000
  C   C451      1.0  0.92983  0.39495  0.11723  1.0000
  Fe  Fe75      1.0  0.86278  0.34658  0.07635  1.0000
  C   C452      1.0  0.56852  0.19940  0.22977  1.0000
  H   H444      1.0  0.93031  0.48064  0.27727  1.0000
  S   S154      1.0  0.93946  0.23778  0.00217  1.0000
  S   S155      1.0  0.58716  0.13890  0.11717  1.0000
  H   H445      1.0  0.71321  0.34811  0.99372  1.0000
  N   N39       1.0  0.75576  0.32653  0.98613  1.0000
  H   H446      1.0  0.86260  0.43392  0.09702  1.0000
  S   S156      1.0  0.84624  0.37006  0.99001  1.0000
  C   C453      1.0  0.49665  0.06869  0.12184  1.0000
  S   S157      1.0  0.51889  0.19138  0.14461  1.0000
  C   C454      1.0  0.76399  0.33719  0.00348  1.0000
  C   C455      1.0  0.56883  0.99365  0.23218  1.0000
  H   H447      1.0  0.66471  0.40661  0.03075  1.0000
  H   H448      1.0  0.62729  0.08652  0.27340  1.0000
  C   C456      1.0  0.90067  0.44609  0.07961  1.0000
  H   H449      1.0  0.91840  0.43289  0.16425  1.0000
  S   S158      1.0  0.91073  0.42364  0.05736  1.0000
  H   H450      1.0  0.89100  0.28275  0.00673  1.0000
  C   C457      1.0  0.49539  0.21529  0.22367  1.0000
  H   H451      1.0  0.61770  0.29202  0.06635  1.0000
  N   N40       1.0  0.54993  0.01606  0.23963  1.0000
  H   H452      1.0  0.93667  0.46288  0.06620  1.0000
  Fe  Fe76      1.0  0.55468  0.15602  0.14842  1.0000
  H   H453      1.0  0.54891  0.02541  0.14882  1.0000
  C   C458      1.0  0.55222  0.06323  0.12613  1.0000
  S   S159      1.0  0.65564  0.15788  0.12295  1.0000
  C   C459      1.0  0.87625  0.44657  0.09746  1.0000
  H   H454      1.0  0.89792  0.40079  0.15011  1.0000
  C   C460      1.0  0.64591  0.24302  0.13799  1.0000
  Fe  Fe77      1.0  0.58686  0.09958  0.14211  1.0000
  C   C461      1.0  0.65178  0.19093  0.12796  1.0000
  C   C462      1.0  0.72401  0.43618  0.09691  1.0000
  H   H455      1.0  0.95072  0.23433  0.05158  1.0000
  H   H456      1.0  0.63239  0.35759  0.03758  1.0000
  Fe  Fe78      1.0  0.61743  0.14228  0.14029  1.0000
  H   H457      1.0  0.79883  0.34215  0.01778  1.0000
  C   C463      1.0  0.86740  0.22107  0.07499  1.0000
  C   C464      1.0  0.84932  0.20851  0.06824  1.0000
  H   H458      1.0  0.88953  0.21620  0.06734  1.0000
  H   H459      1.0  0.85726  0.19385  0.05519  1.0000
  C   C465      1.0  0.63847  0.35985  0.01731  1.0000
  H   H460      1.0  0.51383  0.00876  0.26467  1.0000
  C   C466      1.0  0.51097  0.08825  0.10909  1.0000
  H   H461      1.0  0.70983  0.39163  0.04515  1.0000
  H   H462      1.0  0.75650  0.42691  0.03997  1.0000
  H   H463      1.0  0.96132  0.44498  0.13886  1.0000
  H   H464      1.0  0.65340  0.17346  0.21049  1.0000
  C   C467      1.0  0.67774  0.43752  0.00219  1.0000
  H   H465      1.0  0.63994  0.17034  0.18339  1.0000
  H   H466      1.0  0.69579  0.18930  0.11864  1.0000
  S   S160      1.0  0.82289  0.36046  0.06116  1.0000
  C   C468      1.0  0.74898  0.39024  0.09347  1.0000
  H   H467      1.0  0.76813  0.37494  0.09270  1.0000
  H   H468      1.0  0.56853  0.04014  0.29662  1.0000
  C   C469      1.0  0.70718  0.40800  0.02995  1.0000
  H   H469      1.0  0.60029  0.16404  0.22228  1.0000
  H   H470      1.0  0.52782  0.03434  0.27215  1.0000
  C   C470      1.0  0.61684  0.19931  0.07790  1.0000
  C   C471      1.0  0.67529  0.20147  0.12465  1.0000
  H   H471      1.0  0.56705  0.25250  0.09755  1.0000
  C   C472      1.0  0.62239  0.23273  0.14072  1.0000
  S   S161      1.0  0.55116  0.11639  0.17109  1.0000
  C   C473      1.0  0.82089  0.21532  0.07799  1.0000
  N   N41       1.0  0.61432  0.19965  0.20589  1.0000
  C   C474      1.0  0.85664  0.24059  0.09116  1.0000
  C   C475      1.0  0.72606  0.32948  0.98630  1.0000
  H   H472      1.0  0.57597  0.26311  0.20905  1.0000
  C   C476      1.0  0.60781  0.22710  0.20252  1.0000
  S   S162      1.0  0.84107  0.41821  0.04174  1.0000
  H   H473      1.0  0.54070  0.23814  0.23343  1.0000
  C   C477      1.0  0.59071  0.21409  0.08783  1.0000
  C   C478      1.0  0.53835  0.04303  0.13784  1.0000
  C   C479      1.0  0.79227  0.33388  0.00392  1.0000
  S   S163      1.0  0.93748  0.48342  0.17475  1.0000
  C   C480      1.0  0.54567  0.03932  0.22324  1.0000
  C   C481      1.0  0.68155  0.41635  0.02173  1.0000
  C   C482      1.0  0.58459  0.99433  0.20788  1.0000
  H   H474      1.0  0.55768  0.05894  0.18562  1.0000
  C   C483      1.0  0.69943  0.45027  0.99140  1.0000
  H   H475      1.0  0.62356  0.40285  0.01280  1.0000
  C   C484      1.0  0.51398  0.18158  0.19574  1.0000
  H   H476      1.0  0.92745  0.26036  0.08693  1.0000
  C   C485      1.0  0.53852  0.08590  0.11181  1.0000
  H   H477      1.0  0.58328  0.29303  0.08367  1.0000
  C   C486      1.0  0.63639  0.04757  0.29509  1.0000
  H   H478      1.0  0.65067  0.03837  0.27961  1.0000
  C   C487      1.0  0.91700  0.40587  0.13938  1.0000
  C   C488      1.0  0.88657  0.48049  0.11655  1.0000
  H   H479      1.0  0.98613  0.45126  0.09386  1.0000
  C   C489      1.0  0.58897  0.11423  0.30642  1.0000
  C   C490      1.0  0.98925  0.42911  0.09557  1.0000
  C   C491      1.0  0.65108  0.33730  0.00506  1.0000
  H   H480      1.0  0.75706  0.39220  0.04043  1.0000
  C   C492      1.0  0.58060  0.01801  0.19110  1.0000
  C   C493      1.0  0.81181  0.48240  0.07852  1.0000
  H   H481      1.0  0.82934  0.42746  0.99114  1.0000
  H   H482      1.0  0.85048  0.46377  0.12986  1.0000
  H   H483      1.0  0.54487  0.99964  0.27831  1.0000
  C   C494      1.0  0.63348  0.38545  0.00331  1.0000
  H   H484      1.0  0.80828  0.46787  0.06847  1.0000
  H   H485      1.0  0.77261  0.41027  0.01248  1.0000
  C   C495      1.0  0.91786  0.46303  0.08009  1.0000
  C   C496      1.0  0.91084  0.48016  0.09854  1.0000
  N   N42       1.0  0.60356  0.08595  0.31063  1.0000
  H   H486      1.0  0.71890  0.31203  0.99820  1.0000
  H   H487      1.0  0.60150  0.12718  0.31019  1.0000
  H   H488      1.0  0.49841  0.14031  0.12720  1.0000
  H   H489      1.0  0.65798  0.44409  0.99554  1.0000
  H   H490      1.0  0.50059  0.10549  0.09757  1.0000
  C   C497      1.0  0.72460  0.44170  0.00050  1.0000
  H   H491      1.0  0.58494  0.12001  0.28672  1.0000
  H   H492      1.0  0.74114  0.45205  0.99239  1.0000
  H   H493      1.0  0.49962  0.03064  0.14570  1.0000
  C   C498      1.0  0.95179  0.47643  0.30824  1.0000
  H   H494      1.0  0.83413  0.31691  0.98671  1.0000
  H   H495      1.0  0.49633  0.00397  0.38807  1.0000
  S   S164      1.0  0.54980  0.01866  0.39638  1.0000
  S   S165      1.0  0.52122  0.14328  0.36072  1.0000
  C   C499      1.0  0.54109  0.05324  0.38635  1.0000
  H   H496      1.0  0.53050  0.04998  0.35125  1.0000
  C   C500      1.0  0.52837  0.10872  0.37069  1.0000
  H   H497      1.0  0.58370  0.08018  0.34901  1.0000
  C   C501      1.0  0.53239  0.06335  0.36319  1.0000
  C   C502      1.0  0.59527  0.46977  0.63176  1.0000
  H   H498      1.0  0.60536  0.03178  0.35556  1.0000
  H   H499      1.0  0.53907  0.11227  0.40567  1.0000
  C   C503      1.0  0.53706  0.09867  0.39384  1.0000
  C   C504      1.0  0.52602  0.09104  0.35536  1.0000
  C   C505      1.0  0.54320  0.07097  0.40174  1.0000
  H   H500      1.0  0.54992  0.06323  0.41968  1.0000
  H   H501      1.0  0.96883  0.47807  0.34050  1.0000
  Fe  Fe79      1.0  0.55621  0.99205  0.36680  1.0000
  C   C506      1.0  0.97709  0.10416  0.62649  1.0000
  C   C507      1.0  0.62979  0.03189  0.31803  1.0000
  H   H502      1.0  0.52007  0.09856  0.33713  1.0000
  H   H503      1.0  0.93996  0.07504  0.63916  1.0000
  N   N43       1.0  0.97716  0.08299  0.64542  1.0000
  H   H504      1.0  0.57292  0.47108  0.64007  1.0000
  C   C508      1.0  0.61075  0.04372  0.33758  1.0000
  H   H505      1.0  0.93502  0.99821  0.53283  1.0000
  S   S166      1.0  0.54158  0.00417  0.32979  1.0000
  C   C509      1.0  0.59816  0.07106  0.33365  1.0000
  Fe  Fe80      1.0  0.49648  0.15247  0.32958  1.0000
  H   H506      1.0  0.63911  0.01052  0.32040  1.0000
  H   H507      1.0  0.60648  0.44837  0.63492  1.0000
  C   C510      1.0  0.95097  0.48517  0.33100  1.0000
  H   H508      1.0  0.95890  0.11270  0.61768  1.0000
  H   H509      1.0  0.59721  0.47614  0.61111  1.0000
  H   H510      1.0  0.56823  0.11812  0.31889  1.0000
  S   S167      1.0  0.93315  0.17069  0.91257  1.0000
  H   H511      1.0  0.98815  0.16044  0.64998  1.0000
  H   H512      1.0  0.90435  0.35991  0.98169  1.0000
  S   S168      1.0  0.61326  0.41017  0.80162  1.0000
  C   C511      1.0  0.59388  0.43492  0.86312  1.0000
  H   H513      1.0  0.61407  0.41167  0.92000  1.0000
  H   H514      1.0  0.50528  0.39161  0.75640  1.0000
  H   H515      1.0  0.85051  0.14604  0.95631  1.0000
  C   C512      1.0  0.73515  0.35355  0.84275  1.0000
  C   C513      1.0  0.77514  0.31188  0.96938  1.0000
  H   H516      1.0  0.93886  0.08247  0.67045  1.0000
  Fe  Fe81      1.0  0.73309  0.38253  0.91130  1.0000
  S   S169      1.0  0.72033  0.40092  0.94704  1.0000
  S   S170      1.0  0.75314  0.33917  0.90893  1.0000
  Fe  Fe82      1.0  0.67998  0.41935  0.93347  1.0000
  S   S171      1.0  0.63982  0.42075  0.96020  1.0000
  C   C514      1.0  0.79590  0.39954  0.83137  1.0000
  H   H517      1.0  0.74460  0.33238  0.83970  1.0000
  S   S172      1.0  0.69109  0.39744  0.90017  1.0000
  H   H518      1.0  0.98030  0.20895  0.79456  1.0000
  H   H519      1.0  0.81415  0.36866  0.95366  1.0000
  N   N44       1.0  0.91437  0.33408  0.95340  1.0000
  H   H520      1.0  0.94206  0.13377  0.87746  1.0000
  Fe  Fe83      1.0  0.93749  0.10631  0.75363  1.0000
  S   S173      1.0  0.91128  0.09090  0.73411  1.0000
  N   N45       1.0  0.85038  0.17530  0.92387  1.0000
  H   H521      1.0  0.91316  0.21863  0.87926  1.0000
  C   C515      1.0  0.78997  0.40883  0.94611  1.0000
  H   H522      1.0  0.87040  0.16403  0.86307  1.0000
  S   S174      1.0  0.61916  0.45090  0.73443  1.0000
  C   C516      1.0  0.67827  0.43916  0.82828  1.0000
  S   S175      1.0  0.58113  0.43282  0.68745  1.0000
  S   S176      1.0  0.57833  0.48447  0.77939  1.0000
  H   H523      1.0  0.88832  0.37222  0.94226  1.0000
  C   C517      1.0  0.91694  0.34128  0.97540  1.0000
  H   H524      1.0  0.77890  0.40362  0.93373  1.0000
  S   S177      1.0  0.91001  0.18708  0.80168  1.0000
  S   S178      1.0  0.94306  0.14853  0.74206  1.0000
  C   C518      1.0  0.92373  0.05872  0.72534  1.0000
  C   C519      1.0  0.95229  0.04725  0.71958  1.0000
  C   C520      1.0  0.91157  0.20488  0.84505  1.0000
  H   H525      1.0  0.63641  0.45688  0.78401  1.0000
  C   C521      1.0  0.90435  0.04453  0.72369  1.0000
  H   H526      1.0  0.96078  0.27404  0.95458  1.0000
  H   H527      1.0  0.88227  0.05345  0.72801  1.0000
  H   H528      1.0  0.81096  0.41162  0.82944  1.0000
  C   C522      1.0  0.77062  0.41069  0.82295  1.0000
  C   C523      1.0  0.92988  0.31027  0.94585  1.0000
  C   C524      1.0  0.94771  0.00201  0.77319  1.0000
  C   C525      1.0  0.64646  0.44486  0.79921  1.0000
  H   H529      1.0  0.97476  0.18434  0.83765  1.0000
  C   C526      1.0  0.85811  0.16457  0.94868  1.0000
  C   C527      1.0  0.84769  0.31723  0.90146  1.0000
  C   C528      1.0  0.83309  0.34364  0.90404  1.0000
  C   C529      1.0  0.80395  0.35064  0.90621  1.0000
  C   C530      1.0  0.78949  0.33127  0.90583  1.0000
  C   C531      1.0  0.80418  0.30514  0.90244  1.0000
  C   C532      1.0  0.83320  0.29822  0.90008  1.0000
  C   C533      1.0  0.94173  0.00716  0.71111  1.0000
  H   H530      1.0  0.79271  0.37092  0.90837  1.0000
  H   H531      1.0  0.79312  0.29019  0.90167  1.0000
  H   H532      1.0  0.84439  0.27823  0.89679  1.0000
  C   C534      1.0  0.64236  0.38860  0.97722  1.0000
  Fe  Fe84      1.0  0.58016  0.45283  0.72037  1.0000
  S   S179      1.0  0.97734  0.13605  0.78844  1.0000
  H   H533      1.0  0.96352  0.04253  0.80684  1.0000
  C   C535      1.0  0.65505  0.36606  0.96498  1.0000
  C   C536      1.0  0.80990  0.38909  0.95744  1.0000
  Fe  Fe85      1.0  0.89201  0.26733  0.92540  1.0000
  C   C537      1.0  0.93388  0.15368  0.86835  1.0000
  H   H534      1.0  0.66189  0.36836  0.94482  1.0000
  H   H535      1.0  0.52774  0.46981  0.69992  1.0000
  C   C538      1.0  0.63992  0.42035  0.81024  1.0000
  C   C539      1.0  0.65353  0.40469  0.82947  1.0000
  C   C540      1.0  0.67270  0.41409  0.83841  1.0000
  S   S180      1.0  0.87317  0.23385  0.92267  1.0000
  H   H536      1.0  0.67028  0.47344  0.79990  1.0000
  H   H537      1.0  0.92491  0.03880  0.78758  1.0000
  H   H538      1.0  0.64873  0.38559  0.83782  1.0000
  C   C541      1.0  0.61157  0.42435  0.90216  1.0000
  H   H539      1.0  0.76865  0.30276  0.95610  1.0000
  H   H540      1.0  0.90296  0.22471  0.83605  1.0000
  H   H541      1.0  0.68322  0.40177  0.85297  1.0000
  Fe  Fe86      1.0  0.73403  0.43650  0.92294  1.0000
  C   C542      1.0  0.96132  0.02152  0.71213  1.0000
  H   H542      1.0  0.51394  0.39767  0.65972  1.0000
  S   S181      1.0  0.87533  0.26826  0.96641  1.0000
  C   C543      1.0  0.54369  0.41407  0.67092  1.0000
  C   C544      1.0  0.95216  0.07227  0.65445  1.0000
  Fe  Fe87      1.0  0.70738  0.43299  0.87972  1.0000
  C   C545      1.0  0.92865  0.15718  0.84374  1.0000
  C   C546      1.0  0.78137  0.35794  0.84583  1.0000
  H   H543      1.0  0.84916  0.17927  0.96230  1.0000
  C   C547      1.0  0.91716  0.20142  0.86957  1.0000
  H   H544      1.0  0.51814  0.41889  0.73625  1.0000
  S   S182      1.0  0.93360  0.24069  0.93124  1.0000
  Fe  Fe88      1.0  0.91319  0.20712  0.93187  1.0000
  H   H545      1.0  0.83119  0.20354  0.85802  1.0000
  Fe  Fe89      1.0  0.98686  0.13005  0.74820  1.0000
  H   H546      1.0  0.90166  0.35091  0.91803  1.0000
  C   C548      1.0  0.91331  0.01866  0.71699  1.0000
  H   H547      1.0  0.73152  0.40399  0.81976  1.0000
  C   C549      1.0  0.92799  0.17577  0.88133  1.0000
  S   S183      1.0  0.98232  0.08750  0.75626  1.0000
  H   H548      1.0  0.63368  0.45180  0.90844  1.0000
  C   C550      1.0  0.91729  0.18276  0.83214  1.0000
  H   H549      1.0  0.64597  0.48383  0.68707  1.0000
  H   H550      1.0  0.71937  0.36183  0.83025  1.0000
  C   C551      1.0  0.82796  0.19644  0.92145  1.0000
  H   H551      1.0  0.87436  0.34348  0.94349  1.0000
  C   C552      1.0  0.80359  0.30841  0.96912  1.0000
  Fe  Fe90      1.0  0.96926  0.09531  0.79650  1.0000
  H   H552      1.0  0.78552  0.33745  0.85520  1.0000
  Fe  Fe91      1.0  0.59454  0.44169  0.77262  1.0000
  C   C553      1.0  0.60541  0.45743  0.85698  1.0000
  C   C554      1.0  0.89374  0.35106  0.93855  1.0000
  C   C555      1.0  0.79872  0.44213  0.96684  1.0000
  Fe  Fe92      1.0  0.85965  0.23264  0.96421  1.0000
  C   C556      1.0  0.78423  0.43526  0.95088  1.0000
  C   C557      1.0  0.51691  0.41365  0.66818  1.0000
  S   S184      1.0  0.88365  0.30744  0.90153  1.0000
  H   H553      1.0  0.80347  0.22427  0.89586  1.0000
  Fe  Fe93      1.0  0.93312  0.15059  0.78356  1.0000
  C   C558      1.0  0.80143  0.37293  0.84278  1.0000
  H   H554      1.0  0.93076  0.00008  0.76491  1.0000
  H   H555      1.0  0.82083  0.36410  0.84978  1.0000
  H   H556      1.0  0.72439  0.35383  0.86268  1.0000
  C   C559      1.0  0.62276  0.44706  0.89546  1.0000
  H   H557      1.0  0.76567  0.43156  0.81457  1.0000
  C   C560      1.0  0.94886  0.29318  0.96025  1.0000
  H   H558      1.0  0.58303  0.43018  0.85004  1.0000
  S   S185      1.0  0.92378  0.10995  0.79495  1.0000
  C   C561      1.0  0.96636  0.02574  0.79675  1.0000
  H   H559      1.0  0.92740  0.30426  0.92872  1.0000
  C   C562      1.0  0.54760  0.43402  0.68270  1.0000
  H   H560      1.0  0.56130  0.39844  0.66455  1.0000
  N   N46       1.0  0.75658  0.36907  0.83766  1.0000
  H   H561      1.0  0.84414  0.35852  0.90501  1.0000
  S   S186      1.0  0.75053  0.41644  0.88816  1.0000
  C   C563      1.0  0.75115  0.39504  0.82619  1.0000
  C   C564      1.0  0.99258  0.17676  0.82380  1.0000
  H   H562      1.0  0.93283  0.13994  0.83402  1.0000
  H   H563      1.0  0.89815  0.00761  0.71629  1.0000
  H   H564      1.0  0.98334  0.01243  0.70807  1.0000
  H   H565      1.0  0.96730  0.05826  0.72067  1.0000
  C   C565      1.0  0.66568  0.45423  0.80819  1.0000
  C   C566      1.0  0.59721  0.41819  0.88577  1.0000
  S   S187      1.0  0.70043  0.45220  0.84075  1.0000
  H   H566      1.0  0.88297  0.14662  0.90527  1.0000
  C   C567      1.0  0.86525  0.16344  0.90332  1.0000
  H   H567      1.0  0.60309  0.47006  0.83911  1.0000
  C   C568      1.0  0.82077  0.20705  0.89776  1.0000
  C   C569      1.0  0.52477  0.45423  0.69094  1.0000
  H   H568      1.0  0.66866  0.32294  0.96935  1.0000
  C   C570      1.0  0.85834  0.17325  0.87941  1.0000
  S   S188      1.0  0.55717  0.43944  0.75814  1.0000
  C   C571      1.0  0.83622  0.19542  0.87660  1.0000
  S   S189      1.0  0.89777  0.20246  0.97356  1.0000
  C   C572      1.0  0.94435  0.02362  0.78609  1.0000
  H   H569      1.0  0.58869  0.40047  0.89057  1.0000
  H   H570      1.0  0.88115  0.15990  0.94726  1.0000
  H   H571      1.0  0.81584  0.20560  0.93780  1.0000
  S   S190      1.0  0.75741  0.45900  0.93833  1.0000
  Fe  Fe94      1.0  0.91485  0.23834  0.97242  1.0000
  C   C573      1.0  0.49399  0.43357  0.67662  1.0000
  S   S191      1.0  0.69241  0.45653  0.91235  1.0000
  H   H572      1.0  0.62859  0.45442  0.66662  1.0000
  Fe  Fe95      1.0  0.54321  0.48327  0.76107  1.0000
  N   N47       1.0  0.62008  0.46295  0.87287  1.0000
  H   H573      1.0  0.81879  0.29687  0.95571  1.0000
  H   H574      1.0  0.98539  0.14817  0.69623  1.0000
  H   H575      1.0  0.95782  0.05033  0.66075  1.0000
  N   N48       1.0  0.99104  0.00693  0.79452  1.0000
  H   H576      1.0  0.49562  0.44294  0.77421  1.0000
  H   H577      1.0  0.49803  0.40176  0.72475  1.0000
  C   C574      1.0  0.49793  0.45415  0.68767  1.0000
  C   C575      1.0  0.95163  0.30039  0.98266  1.0000
  H   H578      1.0  0.79440  0.46266  0.97044  1.0000
  S   S192      1.0  0.98773  0.07169  0.82968  1.0000
  C   C576      1.0  0.81833  0.42221  0.97866  1.0000
  H   H579      1.0  0.65132  0.48331  0.87388  1.0000
  C   C577      1.0  0.82359  0.39564  0.97417  1.0000
  H   H580      1.0  0.72204  0.33076  0.96688  1.0000
  H   H581      1.0  0.69687  0.46667  0.97607  1.0000
  C   C578      1.0  0.50027  0.40909  0.74182  1.0000
  C   C579      1.0  0.62304  0.47596  0.66119  1.0000
  S   S193      1.0  0.81584  0.22954  0.98025  1.0000
  C   C580      1.0  0.65882  0.34035  0.97884  1.0000
  H   H582      1.0  0.84619  0.81569  0.27131  1.0000
  C   C581      1.0  0.81474  0.85190  0.27666  1.0000
  H   H583      1.0  0.95084  0.57592  0.18082  1.0000
  C   C582      1.0  0.89787  0.62002  0.20781  1.0000
  Fe  Fe96      1.0  0.91296  0.51392  0.14841  1.0000
  H   H584      1.0  0.93199  0.67939  0.17871  1.0000
  C   C583      1.0  0.94983  0.74173  0.25319  1.0000
  H   H585      1.0  0.88624  0.78974  0.29863  1.0000
  H   H586      1.0  0.98268  0.74041  0.29922  1.0000
  H   H587      1.0  0.83832  0.77229  0.29533  1.0000
  H   H588      1.0  0.90373  0.62764  0.24308  1.0000
  C   C584      1.0  0.76900  0.84570  0.29669  1.0000
  H   H589      1.0  0.93771  0.65569  0.24327  1.0000
  C   C585      1.0  0.86026  0.52795  0.07066  1.0000
  H   H590      1.0  0.96854  0.70119  0.26721  1.0000
  H   H591      1.0  0.80393  0.76725  0.30432  1.0000
  C   C586      1.0  0.91376  0.64938  0.17131  1.0000
  H   H592      1.0  0.95796  0.53386  0.30280  1.0000
  C   C587      1.0  0.78685  0.86273  0.28597  1.0000
  H   H593      1.0  0.94148  0.68214  0.21827  1.0000
  C   C588      1.0  0.82169  0.51901  0.10426  1.0000
  C   C589      1.0  0.92411  0.70892  0.27622  1.0000
  H   H594      1.0  0.92422  0.68890  0.28583  1.0000
  Fe  Fe97      1.0  0.94937  0.55315  0.14219  1.0000
  H   H595      1.0  0.77913  0.88429  0.28526  1.0000
  H   H596      1.0  0.88998  0.51456  0.29462  1.0000
  H   H597      1.0  0.87989  0.76813  0.26010  1.0000
  Fe  Fe98      1.0  0.93829  0.51882  0.19203  1.0000
  S   S194      1.0  0.97762  0.52532  0.16671  1.0000
  S   S195      1.0  0.93868  0.51857  0.23277  1.0000
  C   C590      1.0  0.89900  0.72766  0.27422  1.0000
  H   H598      1.0  0.81908  0.77209  0.27122  1.0000
  S   S196      1.0  0.95004  0.52131  0.11950  1.0000
  H   H599      1.0  0.50521  0.93343  0.12867  1.0000
  H   H600      1.0  0.85234  0.54632  0.05804  1.0000
  H   H601      1.0  0.76538  0.80487  0.30649  1.0000
  C   C591      1.0  0.81736  0.77839  0.28986  1.0000
  H   H602      1.0  0.94220  0.58014  0.31307  1.0000
  S   S197      1.0  0.90982  0.54868  0.16874  1.0000
  C   C592      1.0  0.90680  0.50606  0.30521  1.0000
  H   H603      1.0  0.90799  0.68325  0.23865  1.0000
  H   H604      1.0  0.74737  0.85404  0.30431  1.0000
  C   C593      1.0  0.90635  0.63409  0.22298  1.0000
  N   N49       1.0  0.83796  0.51381  0.08151  1.0000
  C   C594      1.0  0.92199  0.66301  0.18706  1.0000
  Fe  Fe99      1.0  0.58401  0.98190  0.31367  1.0000
  C   C595      1.0  0.89925  0.75359  0.26181  1.0000
  S   S198      1.0  0.90123  0.64195  0.29113  1.0000
  Fe  Fe100     1.0  0.97430  0.49293  0.14715  1.0000
  C   C596      1.0  0.97014  0.59911  0.19689  1.0000
  C   C597      1.0  0.51625  0.95467  0.25469  1.0000
  H   H605      1.0  0.86847  0.53363  0.08569  1.0000
  C   C598      1.0  0.98461  0.62342  0.14765  1.0000
  C   C599      1.0  0.80035  0.50565  0.11487  1.0000
  C   C600      1.0  0.83304  0.49603  0.06848  1.0000
  C   C601      1.0  0.82437  0.82406  0.27812  1.0000
  H   H606      1.0  0.92500  0.78084  0.24218  1.0000
  C   C602      1.0  0.94940  0.71584  0.26545  1.0000
  H   H607      1.0  0.53496  0.94458  0.24327  1.0000
  C   C603      1.0  0.91392  0.54430  0.24701  1.0000
  C   C604      1.0  0.88547  0.54754  0.24721  1.0000
  C   C605      1.0  0.86567  0.56426  0.26319  1.0000
  C   C606      1.0  0.87441  0.57803  0.27852  1.0000
  C   C607      1.0  0.90277  0.57588  0.27711  1.0000
  C   C608      1.0  0.92245  0.55897  0.26156  1.0000
  H   H608      1.0  0.87874  0.53603  0.23618  1.0000
  C   C609      1.0  0.92471  0.76077  0.25166  1.0000
  H   H609      1.0  0.90960  0.58638  0.28884  1.0000
  H   H610      1.0  0.94430  0.55679  0.26140  1.0000
  C   C610      1.0  0.77934  0.81795  0.29790  1.0000
  C   C611      1.0  0.79548  0.48718  0.10190  1.0000
  H   H611      1.0  0.93638  0.78292  0.30026  1.0000
  C   C612      1.0  0.98333  0.58462  0.31243  1.0000
  H   H612      1.0  0.84366  0.56591  0.26422  1.0000
  H   H613      1.0  0.82582  0.53284  0.11476  1.0000
  H   H614      1.0  0.50166  0.72864  0.03072  1.0000
  C   C613      1.0  0.98463  0.61941  0.19243  1.0000
  C   C614      1.0  0.97003  0.60303  0.15224  1.0000
  C   C615      1.0  0.51487  0.95301  0.28076  1.0000
  H   H615      1.0  0.57211  0.97521  0.24522  1.0000
  H   H616      1.0  0.53234  0.94137  0.28934  1.0000
  H   H617      1.0  0.91776  0.65484  0.15101  1.0000
  H   H618      1.0  0.68360  0.93254  0.30900  1.0000
  H   H619      1.0  0.89618  0.61642  0.16965  1.0000
  S   S199      1.0  0.95944  0.59323  0.12766  1.0000
  S   S200      1.0  0.85027  0.59606  0.30097  1.0000
  H   H620      1.0  0.82890  0.86497  0.26877  1.0000
  H   H621      1.0  0.92390  0.49353  0.09833  1.0000
  C   C616      1.0  0.96299  0.59088  0.17689  1.0000
  H   H622      1.0  0.87821  0.51484  0.05985  1.0000
  S   S201      1.0  0.86747  0.71845  0.28727  1.0000
  N   N50       1.0  0.80674  0.80749  0.28878  1.0000
  H   H623      1.0  0.78804  0.50923  0.13323  1.0000
  C   C617      1.0  0.90164  0.62776  0.18179  1.0000
  H   H624      1.0  0.96392  0.59000  0.21596  1.0000
  S   S202      1.0  0.87648  0.50316  0.13866  1.0000
  C   C618      1.0  0.98446  0.72055  0.31007  1.0000
  N   N51       1.0  0.91838  0.65519  0.21255  1.0000
  C   C619      1.0  0.92663  0.66989  0.22894  1.0000
  H   H625      1.0  0.88909  0.60284  0.21615  1.0000
  C   C620      1.0  0.97293  0.54409  0.30537  1.0000
  Fe  Fe101     1.0  0.87757  0.67778  0.30971  1.0000
  C   C621      1.0  0.96401  0.57050  0.31066  1.0000
  S   S203      1.0  0.98165  0.75018  0.23953  1.0000
  H   H626      1.0  0.59979  0.97663  0.20216  1.0000
  S   S204      1.0  0.49606  0.97250  0.21059  1.0000
  H   H627      1.0  0.84602  0.49171  0.05055  1.0000
  H   H628      1.0  0.98821  0.53013  0.25270  1.0000
  C   C622      1.0  0.49357  0.96950  0.24340  1.0000
  H   H629      1.0  0.99002  0.63293  0.12858  1.0000
  C   C623      1.0  0.99211  0.63153  0.16780  1.0000
  S   S205      1.0  0.99210  0.62944  0.21835  1.0000
  C   C624      1.0  0.92952  0.48678  0.29532  1.0000
  C   C625      1.0  0.89249  0.79080  0.31599  1.0000
  H   H630      1.0  0.82517  0.86426  0.45002  1.0000
  H   H631      1.0  0.62503  0.89735  0.42707  1.0000
  H   H632      1.0  0.90191  0.97100  0.59079  1.0000
  C   C626      1.0  0.96031  0.92159  0.59682  1.0000
  C   C627      1.0  0.99025  0.80431  0.45978  1.0000
  H   H633      1.0  0.59882  0.69649  0.51772  1.0000
  S   S206      1.0  0.54177  0.95368  0.37575  1.0000
  Fe  Fe102     1.0  0.54463  0.60709  0.63042  1.0000
  H   H634      1.0  0.86469  0.53889  0.32792  1.0000
  Fe  Fe103     1.0  0.57492  0.64808  0.59886  1.0000
  S   S207      1.0  0.60718  0.65494  0.56484  1.0000
  C   C628      1.0  0.90020  0.63506  0.48956  1.0000
  H   H635      1.0  0.96433  0.88214  0.53693  1.0000
  H   H636      1.0  0.96416  0.87997  0.59453  1.0000
  Fe  Fe104     1.0  0.73592  0.69540  0.56941  1.0000
  S   S208      1.0  0.75893  0.67971  0.53339  1.0000
  S   S209      1.0  0.71012  0.67395  0.60073  1.0000
  Fe  Fe105     1.0  0.75180  0.74849  0.55525  1.0000
  S   S210      1.0  0.77628  0.73824  0.51813  1.0000
  S   S211      1.0  0.74709  0.78988  0.56378  1.0000
  Fe  Fe106     1.0  0.74116  0.72100  0.51533  1.0000
  S   S212      1.0  0.72810  0.72986  0.47762  1.0000
  Fe  Fe107     1.0  0.79244  0.69785  0.53892  1.0000
  S   S213      1.0  0.83773  0.67775  0.52913  1.0000
  S   S214      1.0  0.71473  0.73510  0.55074  1.0000
  S   S215      1.0  0.77120  0.70978  0.57687  1.0000
  H   H637      1.0  0.93012  0.92040  0.52201  1.0000
  S   S216      1.0  0.93901  0.73187  0.39654  1.0000
  Fe  Fe108     1.0  0.87021  0.62136  0.31726  1.0000
  C   C629      1.0  0.95780  0.84826  0.39804  1.0000
  S   S217      1.0  0.94959  0.78459  0.41366  1.0000
  H   H638      1.0  0.96617  0.60915  0.46116  1.0000
  Fe  Fe109     1.0  0.92552  0.75334  0.43013  1.0000
  S   S218      1.0  0.87977  0.76382  0.44431  1.0000
  Fe  Fe110     1.0  0.96617  0.76074  0.38159  1.0000
  H   H639      1.0  0.70125  0.59407  0.59629  1.0000
  S   S219      1.0  0.95821  0.72679  0.45115  1.0000
  C   C630      1.0  0.69149  0.90329  0.41246  1.0000
  S   S220      1.0  0.90219  0.87029  0.54811  1.0000
  S   S221      1.0  0.86959  0.86624  0.50372  1.0000
  Fe  Fe111     1.0  0.86610  0.85415  0.54546  1.0000
  S   S222      1.0  0.86505  0.81146  0.56099  1.0000
  Fe  Fe112     1.0  0.90260  0.88613  0.50737  1.0000
  H   H640      1.0  0.92445  0.84266  0.47322  1.0000
  S   S223      1.0  0.58708  0.61351  0.62818  1.0000
  C   C631      1.0  0.95063  0.89986  0.59364  1.0000
  C   C632      1.0  0.90876  0.79245  0.36108  1.0000
  C   C633      1.0  0.88050  0.79706  0.35996  1.0000
  S   S224      1.0  0.89613  0.60696  0.34788  1.0000
  H   H641      1.0  0.78841  0.92573  0.40972  1.0000
  S   S225      1.0  0.84271  0.90713  0.38091  1.0000
  H   H642      1.0  0.91476  0.79275  0.37868  1.0000
  H   H643      1.0  0.72540  0.61641  0.61775  1.0000
  C   C634      1.0  0.79048  0.85984  0.47992  1.0000
  Fe  Fe113     1.0  0.51699  0.66575  0.62847  1.0000
  C   C635      1.0  0.91011  0.86174  0.39142  1.0000
  S   S226      1.0  0.55703  0.67790  0.62614  1.0000
  C   C636      1.0  0.88334  0.53637  0.33665  1.0000
  H   H644      1.0  0.84637  0.63261  0.50054  1.0000
  S   S227      1.0  0.96429  0.78005  0.34190  1.0000
  C   C637      1.0  0.64617  0.89690  0.35577  1.0000
  H   H645      1.0  0.92316  0.86476  0.42562  1.0000
  H   H646      1.0  0.98307  0.97890  0.54189  1.0000
  C   C638      1.0  0.77983  0.79551  0.56363  1.0000
  C   C639      1.0  0.78218  0.82134  0.56487  1.0000
  C   C640      1.0  0.80839  0.82635  0.56367  1.0000
  C   C641      1.0  0.83222  0.80541  0.56205  1.0000
  C   C642      1.0  0.82984  0.77946  0.56116  1.0000
  C   C643      1.0  0.80370  0.77460  0.56154  1.0000
  H   H647      1.0  0.76374  0.83748  0.56683  1.0000
  H   H648      1.0  0.80996  0.84630  0.56474  1.0000
  H   H649      1.0  0.84815  0.76312  0.56011  1.0000
  H   H650      1.0  0.80204  0.75459  0.56055  1.0000
  C   C644      1.0  0.73132  0.76282  0.46676  1.0000
  C   C645      1.0  0.72550  0.78102  0.48405  1.0000
  H   H651      1.0  0.62038  0.74530  0.57145  1.0000
  C   C646      1.0  0.74118  0.77063  0.44132  1.0000
  H   H652      1.0  0.71794  0.77511  0.50372  1.0000
  C   C647      1.0  0.64107  0.73931  0.55942  1.0000
  H   H653      1.0  0.74583  0.75652  0.42796  1.0000
  C   C648      1.0  0.85139  0.69879  0.50360  1.0000
  C   C649      1.0  0.83523  0.71210  0.48533  1.0000
  C   C650      1.0  0.84400  0.73219  0.46717  1.0000
  C   C651      1.0  0.86980  0.73771  0.46624  1.0000
  C   C652      1.0  0.88698  0.72293  0.48330  1.0000
  C   C653      1.0  0.87763  0.70367  0.50224  1.0000
  H   H654      1.0  0.81557  0.70736  0.48558  1.0000
  H   H655      1.0  0.83062  0.74370  0.45409  1.0000
  H   H656      1.0  0.90678  0.72725  0.48277  1.0000
  H   H657      1.0  0.89017  0.69344  0.51640  1.0000
  H   H658      1.0  0.91571  0.88680  0.58792  1.0000
  C   C654      1.0  0.92394  0.67333  0.42763  1.0000
  S   S228      1.0  0.87323  0.92543  0.51435  1.0000
  S   S229      1.0  0.74586  0.84696  0.44156  1.0000
  H   H659      1.0  0.92810  0.51224  0.35735  1.0000
  Fe  Fe114     1.0  0.87020  0.90820  0.55511  1.0000
  S   S230      1.0  0.97175  0.61787  0.31861  1.0000
  C   C655      1.0  0.90594  0.92947  0.58808  1.0000
  C   C656      1.0  0.81479  0.85030  0.46332  1.0000
  C   C657      1.0  0.63606  0.65984  0.57468  1.0000
  C   C658      1.0  0.66024  0.66227  0.55721  1.0000
  C   C659      1.0  0.68298  0.66711  0.56502  1.0000
  C   C660      1.0  0.68159  0.66918  0.59035  1.0000
  C   C661      1.0  0.65739  0.66691  0.60772  1.0000
  C   C662      1.0  0.63472  0.66211  0.59992  1.0000
  H   H660      1.0  0.66139  0.66042  0.53766  1.0000
  H   H661      1.0  0.70167  0.66885  0.55152  1.0000
  H   H662      1.0  0.88803  0.60350  0.44640  1.0000
  H   H663      1.0  0.61620  0.66030  0.61353  1.0000
  C   C663      1.0  0.89948  0.60995  0.45786  1.0000
  H   H664      1.0  0.94945  0.79806  0.46100  1.0000
  C   C664      1.0  0.92972  0.85887  0.40689  1.0000
  H   H665      1.0  0.70632  0.93539  0.38688  1.0000
  H   H666      1.0  0.95960  0.81508  0.53201  1.0000
  C   C665      1.0  0.61546  0.70648  0.51673  1.0000
  H   H667      1.0  0.77305  0.93140  0.45469  1.0000
  H   H668      1.0  0.65604  0.66907  0.62720  1.0000
  C   C666      1.0  0.79505  0.92641  0.44691  1.0000
  C   C667      1.0  0.67351  0.86633  0.43888  1.0000
  H   H669      1.0  0.90499  0.84760  0.33537  1.0000
  S   S231      1.0  0.76665  0.89612  0.38573  1.0000
  N   N52       1.0  0.60628  0.48689  0.64353  1.0000
  H   H670      1.0  0.63507  0.69848  0.47909  1.0000
  C   C668      1.0  0.92897  0.78751  0.33960  1.0000
  H   H671      1.0  0.88831  0.86972  0.39846  1.0000
  S   S232      1.0  0.84463  0.65825  0.33395  1.0000
  C   C669      1.0  0.74017  0.81461  0.45076  1.0000
  H   H672      1.0  0.66385  0.86449  0.38226  1.0000
  C   C670      1.0  0.81476  0.92249  0.46243  1.0000
  H   H673      1.0  0.87910  0.68217  0.43487  1.0000
  C   C671      1.0  0.88139  0.92047  0.64657  1.0000
  C   C672      1.0  0.87236  0.79589  0.33752  1.0000
  C   C673      1.0  0.92934  0.62902  0.48460  1.0000
  H   H674      1.0  0.87558  0.73711  0.33273  1.0000
  Fe  Fe115     1.0  0.77049  0.85317  0.40264  1.0000
  H   H675      1.0  0.87156  0.90810  0.63914  1.0000
  C   C674      1.0  0.63879  0.93067  0.40357  1.0000
  S   S233      1.0  0.83717  0.79955  0.33679  1.0000
  C   C675      1.0  0.70528  0.61257  0.62700  1.0000
  S   S234      1.0  0.94473  0.88581  0.48364  1.0000
  S   S235      1.0  0.81167  0.87445  0.33724  1.0000
  N   N53       1.0  0.96803  0.92266  0.53167  1.0000
  H   H676      1.0  0.91990  0.62497  0.38355  1.0000
  C   C676      1.0  0.74598  0.79647  0.43337  1.0000
  Fe  Fe116     1.0  0.76545  0.88176  0.35020  1.0000
  C   C677      1.0  0.72951  0.80699  0.47598  1.0000
  H   H677      1.0  0.89034  0.74050  0.37214  1.0000
  H   H678      1.0  0.75421  0.80227  0.41385  1.0000
  H   H679      1.0  0.65464  0.72345  0.57072  1.0000
  S   S236      1.0  0.86410  0.65182  0.40275  1.0000
  S   S237      1.0  0.80366  0.92264  0.49488  1.0000
  S   S238      1.0  0.83381  0.89077  0.55613  1.0000
  H   H680      1.0  0.84393  0.81504  0.45088  1.0000
  N   N54       1.0  0.63870  0.72922  0.53692  1.0000
  C   C678      1.0  0.61720  0.71753  0.53755  1.0000
  C   C679      1.0  0.65895  0.73004  0.51593  1.0000
  C   C680      1.0  0.65782  0.71924  0.49475  1.0000
  H   H681      1.0  0.67630  0.73886  0.51545  1.0000
  S   S239      1.0  0.76548  0.83947  0.36779  1.0000
  N   N55       1.0  0.92287  0.77892  0.51312  1.0000
  C   C681      1.0  0.92838  0.79950  0.52197  1.0000
  C   C682      1.0  0.94337  0.75644  0.50875  1.0000
  C   C683      1.0  0.95521  0.79828  0.52582  1.0000
  C   C684      1.0  0.92953  0.96046  0.52665  1.0000
  S   S240      1.0  0.98087  0.66348  0.41638  1.0000
  C   C685      1.0  0.89510  0.78079  0.50784  1.0000
  H   H682      1.0  0.91227  0.81737  0.52539  1.0000
  C   C686      1.0  0.98053  0.89404  0.53094  1.0000
  H   H683      1.0  0.61813  0.94069  0.39965  1.0000
  H   H684      1.0  0.93889  0.73995  0.50220  1.0000
  H   H685      1.0  0.95028  0.96417  0.59746  1.0000
  H   H686      1.0  0.88500  0.76601  0.52132  1.0000
  H   H687      1.0  0.88122  0.80099  0.50966  1.0000
  H   H688      1.0  0.89661  0.77696  0.48828  1.0000
  N   N56       1.0  0.83195  0.71811  0.39750  1.0000
  C   C687      1.0  0.82358  0.71629  0.37587  1.0000
  C   C688      1.0  0.85543  0.72707  0.39630  1.0000
  C   C689      1.0  0.83910  0.72313  0.35231  1.0000
  C   C690      1.0  0.87168  0.73360  0.37304  1.0000
  C   C691      1.0  0.68826  0.92762  0.39634  1.0000
  C   C692      1.0  0.81508  0.71145  0.42205  1.0000
  C   C693      1.0  0.94182  0.93319  0.52627  1.0000
  H   H689      1.0  0.86189  0.72909  0.41333  1.0000
  C   C694      1.0  0.94445  0.97708  0.53215  1.0000
  C   C695      1.0  0.92087  0.63841  0.39595  1.0000
  H   H690      1.0  0.92508  0.68702  0.43978  1.0000
  H   H691      1.0  0.80181  0.69788  0.42094  1.0000
  H   H692      1.0  0.82871  0.70058  0.43587  1.0000
  H   H693      1.0  0.80151  0.73003  0.42907  1.0000
  H   H694      1.0  0.84568  0.62274  0.47097  1.0000
  H   H695      1.0  0.68339  0.86694  0.45497  1.0000
  S   S241      1.0  0.61169  0.89727  0.37059  1.0000
  N   N57       1.0  0.88566  0.62583  0.47604  1.0000
  S   S242      1.0  0.53410  0.63898  0.59827  1.0000
  C   C696      1.0  0.86907  0.94765  0.64707  1.0000
  C   C697      1.0  0.86338  0.73168  0.35093  1.0000
  C   C698      1.0  0.91542  0.95110  0.59180  1.0000
  C   C699      1.0  0.96617  0.69007  0.34421  1.0000
  C   C700      1.0  0.69168  0.59995  0.61471  1.0000
  H   H696      1.0  0.80493  0.70934  0.37674  1.0000
  H   H697      1.0  0.71216  0.89256  0.41572  1.0000
  N   N58       1.0  0.90625  0.51473  0.32742  1.0000
  C   C701      1.0  0.92863  0.60309  0.45274  1.0000
  H   H698      1.0  0.65021  0.75721  0.55419  1.0000
  H   H699      1.0  0.97316  0.84541  0.41005  1.0000
  H   H700      1.0  0.86510  0.80034  0.37680  1.0000
  C   C702      1.0  0.94360  0.61305  0.46596  1.0000
  C   C703      1.0  0.94694  0.83702  0.47035  1.0000
  Fe  Fe117     1.0  0.83995  0.90428  0.51451  1.0000
  C   C704      1.0  0.66171  0.94128  0.39180  1.0000
  C   C705      1.0  0.85186  0.91368  0.42660  1.0000
  S   S243      1.0  0.59986  0.97332  0.35008  1.0000
  N   N59       1.0  0.77697  0.84244  0.49648  1.0000
  C   C706      1.0  0.97054  0.75470  0.51199  1.0000
  H   H701      1.0  0.90839  0.96845  0.52306  1.0000
  C   C707      1.0  0.89740  0.85942  0.35143  1.0000
  C   C708      1.0  0.63593  0.70736  0.49521  1.0000
  C   C709      1.0  0.94844  0.65849  0.41463  1.0000
  H   H702      1.0  0.87808  0.85357  0.36223  1.0000
  C   C710      1.0  0.92796  0.50458  0.34031  1.0000
  S   S244      1.0  0.90437  0.66911  0.33909  1.0000
  C   C711      1.0  0.98298  0.93885  0.53677  1.0000
  H   H703      1.0  0.75491  0.86723  0.52429  1.0000
  H   H704      1.0  0.85850  0.91425  0.46400  1.0000
  H   H705      1.0  0.81951  0.78362  0.48162  1.0000
  H   H706      1.0  0.94075  0.63726  0.49469  1.0000
  C   C712      1.0  0.64285  0.90605  0.41919  1.0000
  H   H707      1.0  0.93952  0.59138  0.43765  1.0000
  C   C713      1.0  0.94688  0.64058  0.39925  1.0000
  H   H708      1.0  0.60125  0.55269  0.64416  1.0000
  C   C714      1.0  0.82529  0.82272  0.46386  1.0000
  Fe  Fe118     1.0  0.87370  0.64601  0.36197  1.0000
  Fe  Fe119     1.0  0.81302  0.88452  0.37480  1.0000
  C   C715      1.0  0.89634  0.65362  0.40848  1.0000
  C   C716      1.0  0.81152  0.80508  0.48100  1.0000
  C   C717      1.0  0.78715  0.81534  0.49722  1.0000
  H   H709      1.0  0.77636  0.80149  0.51024  1.0000
  C   C718      1.0  0.85520  0.63459  0.48006  1.0000
  H   H710      1.0  0.67409  0.71979  0.47825  1.0000
  Fe  Fe120     1.0  0.97386  0.70764  0.41597  1.0000
  H   H711      1.0  0.72481  0.82097  0.48946  1.0000
  S   S245      1.0  0.73534  0.90520  0.32505  1.0000
  C   C719      1.0  0.94575  0.84431  0.35881  1.0000
  H   H712      1.0  0.78227  0.88127  0.47938  1.0000
  H   H713      1.0  0.65378  0.85971  0.44647  1.0000
  Fe  Fe121     1.0  0.53084  0.96419  0.33696  1.0000
  C   C720      1.0  0.84319  0.91665  0.45219  1.0000
  C   C721      1.0  0.66816  0.87928  0.36625  1.0000
  S   S246      1.0  0.87207  0.93471  0.58237  1.0000
  H   H714      1.0  0.60175  0.71576  0.55452  1.0000
  C   C722      1.0  0.96193  0.85468  0.47393  1.0000
  C   C723      1.0  0.66518  0.59616  0.62580  1.0000
  N   N60       1.0  0.66901  0.89264  0.42335  1.0000
  C   C724      1.0  0.94266  0.94718  0.59602  1.0000
  H   H715      1.0  0.88926  0.64756  0.50399  1.0000
  S   S247      1.0  0.81715  0.84241  0.39450  1.0000
  H   H716      1.0  0.87383  0.90908  0.41880  1.0000
  Fe  Fe122     1.0  0.81182  0.83317  0.35776  1.0000
  N   N61       1.0  0.91824  0.85461  0.36770  1.0000
  Fe  Fe123     1.0  0.58443  0.93573  0.35574  1.0000
  C   C725      1.0  0.80373  0.92283  0.42153  1.0000
  C   C726      1.0  0.92340  0.90378  0.58943  1.0000
  C   C727      1.0  0.83209  0.91581  0.41148  1.0000
  C   C728      1.0  0.89789  0.67062  0.42484  1.0000
  H   H717      1.0  0.73503  0.86431  0.50143  1.0000
  C   C729      1.0  0.75110  0.85333  0.51299  1.0000
  H   H718      1.0  0.74281  0.83729  0.52634  1.0000
  C   C730      1.0  0.70126  0.90103  0.33633  1.0000
  H   H719      1.0  0.71223  0.86873  0.36568  1.0000
  C   C731      1.0  0.92082  0.78705  0.31690  1.0000
  C   C732      1.0  0.67937  0.91772  0.32504  1.0000
  H   H720      1.0  0.65404  0.58715  0.61614  1.0000
  H   H721      1.0  0.95026  0.68603  0.36017  1.0000
  Fe  Fe124     1.0  0.98387  0.75615  0.43145  1.0000
  H   H722      1.0  0.68771  0.85103  0.42744  1.0000
  C   C733      1.0  0.96113  0.81191  0.46307  1.0000
  H   H723      1.0  0.84904  0.65599  0.47197  1.0000
  C   C734      1.0  0.96589  0.84074  0.37391  1.0000
  C   C735      1.0  0.99104  0.84731  0.47013  1.0000
  C   C736      1.0  0.69562  0.88162  0.35678  1.0000
  H   H724      1.0  0.83243  0.72171  0.33520  1.0000
  Fe  Fe125     1.0  0.92509  0.63102  0.32302  1.0000
  H   H725      1.0  0.89004  0.55563  0.33181  1.0000
  C   C737      1.0  0.96374  0.71560  0.33045  1.0000
  H   H726      1.0  0.96574  0.62904  0.38921  1.0000
  H   H727      1.0  0.63507  0.92877  0.32603  1.0000
  S   S248      1.0  0.57228  0.94267  0.31774  1.0000
  C   C738      1.0  0.97648  0.77586  0.52044  1.0000
  H   H728      1.0  0.65897  0.95972  0.37874  1.0000
  S   S249      1.0  0.54007  0.56490  0.63509  1.0000
  H   H729      1.0  0.95225  0.83838  0.34009  1.0000
  S   S250      1.0  0.96932  0.98396  0.63167  1.0000
  H   H730      1.0  0.98709  0.73747  0.50714  1.0000
  C   C739      1.0  0.65185  0.91571  0.33479  1.0000
  C   C740      1.0  0.50458  0.56532  0.64041  1.0000
  H   H731      1.0  0.94587  0.73156  0.33554  1.0000
  H   H732      1.0  0.89189  0.88109  0.34399  1.0000
  H   H733      1.0  0.99092  0.89071  0.51139  1.0000
  H   H734      1.0  0.58492  0.52270  0.62372  1.0000
  C   C741      1.0  0.49567  0.54141  0.64860  1.0000
  H   H735      1.0  0.87685  0.53237  0.35738  1.0000
  C   C742      1.0  0.97141  0.96628  0.53716  1.0000
  H   H736      1.0  0.98754  0.83181  0.36702  1.0000
  C   C743      1.0  0.59861  0.51408  0.63738  1.0000
  H   H737      1.0  0.84958  0.95629  0.64018  1.0000
  C   C744      1.0  0.98919  0.66962  0.33712  1.0000
  H   H738      1.0  0.99064  0.64967  0.34761  1.0000
  C   C745      1.0  0.65270  0.60489  0.64901  1.0000
  C   C746      1.0  0.60800  0.53113  0.64874  1.0000
  H   H739      1.0  0.52668  0.64023  0.72476  1.0000
  C   C747      1.0  0.50818  0.57537  0.76540  1.0000
  Fe  Fe126     1.0  0.56592  0.64242  0.65555  1.0000
  H   H740      1.0  0.52514  0.58551  0.75946  1.0000
  C   C748      1.0  0.51948  0.56121  0.69992  1.0000
  H   H741      1.0  0.91726  0.88892  0.65264  1.0000
  H   H742      1.0  0.62598  0.61718  0.72058  1.0000
  C   C749      1.0  0.61639  0.60212  0.71732  1.0000
  S   S251      1.0  0.62882  0.52174  0.73134  1.0000
  S   S252      1.0  0.49830  0.49957  0.77576  1.0000
  H   H743      1.0  0.64329  0.56941  0.73686  1.0000
  C   C750      1.0  0.62612  0.57515  0.72658  1.0000
  C   C751      1.0  0.62554  0.52014  0.66637  1.0000
  H   H744      1.0  0.58226  0.54790  0.70576  1.0000
  H   H745      1.0  0.70317  0.63108  0.68188  1.0000
  C   C752      1.0  0.61387  0.55555  0.72241  1.0000
  S   S253      1.0  0.52422  0.63303  0.66072  1.0000
  N   N62       1.0  0.50658  0.68117  0.71701  1.0000
  H   H746      1.0  0.52864  0.54280  0.69080  1.0000
  C   C753      1.0  0.70592  0.63690  0.66113  1.0000
  H   H747      1.0  0.53504  0.53589  0.76421  1.0000
  H   H748      1.0  0.63303  0.53304  0.67539  1.0000
  H   H749      1.0  0.54556  0.66364  0.72911  1.0000
  H   H750      1.0  0.96393  0.91378  0.65248  1.0000
  S   S254      1.0  0.58676  0.64223  0.68764  1.0000
  H   H751      1.0  0.50854  0.71884  0.65959  1.0000
  C   C754      1.0  0.59522  0.60937  0.70293  1.0000
  C   C755      1.0  0.58271  0.58985  0.69896  1.0000
  H   H752      1.0  0.95205  0.92604  0.68261  1.0000
  S   S255      1.0  0.95228  0.97433  0.70384  1.0000
  H   H753      1.0  0.91857  0.96497  0.66964  1.0000
  H   H754      1.0  0.72863  0.63371  0.65363  1.0000
  C   C756      1.0  0.51725  0.69150  0.69323  1.0000
  C   C757      1.0  0.66665  0.61787  0.66055  1.0000
  H   H755      1.0  0.52590  0.57797  0.68639  1.0000
  H   H756      1.0  0.97622  0.96699  0.75954  1.0000
  H   H757      1.0  0.51583  0.65770  0.75189  1.0000
  H   H758      1.0  0.53894  0.68429  0.68524  1.0000
  H   H759      1.0  0.52827  0.55940  0.71716  1.0000
  C   C758      1.0  0.59164  0.56299  0.70916  1.0000
  H   H760      1.0  0.56648  0.59536  0.68772  1.0000
  C   C759      1.0  0.94763  0.91417  0.66969  1.0000
  N   N63       1.0  0.92011  0.92562  0.66267  1.0000
  C   C760      1.0  0.52452  0.65968  0.73139  1.0000
  C   C761      1.0  0.90726  0.90980  0.65415  1.0000
  C   C762      1.0  0.50029  0.71126  0.67874  1.0000
  H   H761      1.0  0.65618  0.62569  0.67800  1.0000
  C   C763      1.0  0.51378  0.54731  0.76814  1.0000
  C   C764      1.0  0.97319  0.98333  0.77035  1.0000
  C   C765      1.0  0.88246  0.96372  0.65553  1.0000
  H   H762      1.0  0.94906  0.89339  0.67960  1.0000
  C   C766      1.0  0.90815  0.95230  0.66330  1.0000
  H   H763      1.0  0.61647  0.50419  0.87381  1.0000
  H   H764      1.0  0.69653  0.65866  0.65679  1.0000
  N   N64       1.0  0.69265  0.62149  0.64956  1.0000
  Fe  Fe127     1.0  0.98410  0.97244  0.66866  1.0000
  H   H765      1.0  0.63199  0.60242  0.65770  1.0000
  S   S256      1.0  0.56322  0.49677  0.72181  1.0000
  H   H766      1.0  0.63757  0.49160  0.84547  1.0000
  H   H767      1.0  0.87322  0.98494  0.65571  1.0000
  C   C767      1.0  0.63298  0.49242  0.67281  1.0000
  Fe  Fe128     1.0  0.60005  0.49379  0.73977  1.0000
  C   C768      1.0  0.63179  0.48676  0.86625  1.0000
  H   H768      1.0  0.51077  0.52251  0.65073  1.0000
