data_image0
_chemical_formula_structural       FeS2FeS2FeSFeS2FeSFeS2FeSFeS4HCSH2CHC5HCHC2H3S2C6H3C6H5CHC2H4CH4CHCHSCHCNC4SHC2H5NHCFe2NCHCNC2HCH3C2H5CHC3H4CHNHFeSCHCH3CSHCSH2CFeS2FeS2FeSFeS3FeS2FeS2FeSFeS3H2CFe2C2HC2HC6H4C2H2C6H4C7H4C6H5C7H4CH2C4FeHCSNCH2SNSHC2H3NHC2HNC4HCH2C3HCN2C5HCH2SHCHNSHCH4CH5CH5CH2CHSCSC2HSCHCHC2H2CH2CH3C2HFeC3HSH4CSHCNCSFeS2FeSFeSHSFeSFeS2FeSFeS3HSHSFeHCHC4SCH2SCH3C2HC3HC7H4C3H2C3HC3HC2HCHC2HSH2CH2CH2NCHCHFeCNHCNH3C2H2CN2CHCHC2H6SC2FeHSFeS2Fe2S3FeS2FeS2Fe2S3C2FeS2FeSFeHSHFeS2CSFeSFeS3H3SH3C2H2CHC3H2C6H4C7H2C6H4C6H3C7H4FeNCSH2SH3FeHCH2C3H3NH2CNCH3C2HC3H3FeHNCHFeCH2CNC3H3C3H3SCHCH2C2H2SCSCH3CHC4HCNH2CHNC6H5CH2C3H3CHSFeS2FeS2FeSFeS3FeHS2HFeS3FeS2FeS2FeSFeS4HSCFeHFeH2SH2SHC7H4C8H3C6H4C6HSH2C6H4C2H2C6H4C6H4C6H4C6H3CH3CHSH2FeHCHC3HCH3CH2C3H3CH4C2SC2HCFeC2H5CNC2NC6H8NC6H3NHSH2NC6H5CHFeH4NCH2CHC2H3FeH3S2HC2HSHCSH2CHCNC2H2NC3HCNHC3HC2FeH3CHSHSNHCH2SH2CHC2FeS2FeS2FeSFeS3FeS2FeS2FeSFeS3HSH3SCHFeHC7H4C6H4C3H2C6H4C6H4C6H5C3H3C2HFeH5SH4SCHSCH2C4HCNC4HCH3NSH2C3HCNCHCHCH3CHC3H2SCHCHCH4CNHCH3C2NHC2H3CHC2H2CH2CHC2HC3NH2SCSHCHSCFeS2FeS2FeSFeS3FeS2FeS2FeSFeS7C7H4CSC6H4C6H6FeC2HCHC6H6C6H4FeCSFeHC2H3SH5NC6H8NCFeC2HSHCHCFeH2NC6H3FeC2H2NC6H8NC2HCH4CSHSCH2CHCH3CH3C2HCHNH2C2H2FeH3FeHSHFeC2SHC3S2H3SHSH3NH2SFeS2FeS2FeSFeS3NSCH3FeS2FeS2FeSFeS3HFeSHSC6H4C6H4C6H2CHC6H4C6H4C6H4C6H3CHC6H2CSC6H5NC6HCH4CHNHC3H2CHCH3CSNCH4CHSN2H3CHC3H2FeCHC2H2C2HC2HC2HC2FeH3CFe2CHCH3C2H2FeHCHNCHCHC4H3SNHCHNCHC2HC2HCHCH4FeH3CH4FeSHCHSH4CHC2HC5H6CH3C2HSHCHC4SHS2HC2FeCSCHCNH3CNH2SHCHCSCH2NCFeCHFeSNH2FeS2H2SFeSCFeS2FeSFeSCFeHCFeNSFeC2SHFeSFeCSFeSFeS3C6H4C6H4CHSCSCHC2FeC6H4CHSC2HSCH2C2H4C3H2SC2SCSHC2SCSH2C5HC3H3CHCH3SC2SH5C3NH7CHSH2C3SCHFeCHC3HCHCH2CH3CH2SH2CFeSFeS2FeSFeSNSFeSFeS2FeSFeS3C3HCHCHC6H4C4NH3CH3C2HCH3CHC6NH3NHC2HCH3C3NC2SH4CFeHCHCHSHCHCFeHC3HC3H2CH2SH2C2SCH2CFeCSFeS2FeS2FeSFeS3FeS2FeS2FeSFeS4HS2CS3C2NH2C7H4C6H4C2HC7H4C6H4C2HC6H5NC6H4C2HFeHCHCHC2H4NCH2CH2NC2HNC6H9NHCNHC2H2CFeC2H3C3H3FeC2HSCHC2HC3H3C2SHCHCHCH2SHCNH3FeH2C2FeCH4CHC2FeSH3CHCHCSH3SH3C2H3FeS2NCFeSFeCSNFeS2CSFeCFeSCSCS2H3FeC6H4C2SCH2SH4C2H3C2HCH4CHNC2HCHC5HSCSHC2H3C2HCHSHNFeS
_chemical_formula_sum              "Fe160 S320 H960 C960 N80"
_cell_length_a       84.7585
_cell_length_b       84.4308
_cell_length_c       37.3959
_cell_angle_alpha    90.7043
_cell_angle_beta     90.8322
_cell_angle_gamma    115.449

_space_group_name_H-M_alt    "P 1"
_space_group_IT_number       1

loop_
  _space_group_symop_operation_xyz
  'x, y, z'

loop_
  _atom_site_type_symbol
  _atom_site_label
  _atom_site_symmetry_multiplicity
  _atom_site_fract_x
  _atom_site_fract_y
  _atom_site_fract_z
  _atom_site_occupancy
  Fe  Fe1       1.0  0.03621  0.42477  0.53276  1.0000
  S   S1        1.0  0.03007  0.43558  0.58306  1.0000
  S   S2        1.0  0.01484  0.40676  0.49253  1.0000
  Fe  Fe2       1.0  0.07675  0.44900  0.54120  1.0000
  S   S3        1.0  0.07238  0.46162  0.59151  1.0000
  S   S4        1.0  0.10552  0.46284  0.52240  1.0000
  Fe  Fe3       1.0  0.05398  0.43441  0.60760  1.0000
  S   S5        1.0  0.05600  0.42366  0.66261  1.0000
  Fe  Fe4       1.0  0.04898  0.46175  0.56294  1.0000
  S   S6        1.0  0.05918  0.42148  0.55846  1.0000
  S   S7        1.0  0.05434  0.45124  0.51167  1.0000
  Fe  Fe5       1.0  0.06005  0.46618  0.94804  1.0000
  S   S8        1.0  0.06259  0.44453  0.97839  1.0000
  Fe  Fe6       1.0  0.05593  0.44784  0.87520  1.0000
  S   S9        1.0  0.05824  0.42478  0.90027  1.0000
  S   S10       1.0  0.05110  0.45396  0.81766  1.0000
  Fe  Fe7       1.0  0.04000  0.42655  0.94265  1.0000
  S   S11       1.0  0.01650  0.40169  0.96147  1.0000
  Fe  Fe8       1.0  0.08062  0.44480  0.93435  1.0000
  S   S12       1.0  0.10876  0.44692  0.93781  1.0000
  S   S13       1.0  0.03654  0.44842  0.91541  1.0000
  S   S14       1.0  0.07912  0.46753  0.90621  1.0000
  S   S15       1.0  0.21622  0.46493  0.40869  1.0000
  H   H1        1.0  0.16848  0.44003  0.14020  1.0000
  C   C1        1.0  0.01730  0.40314  0.79782  1.0000
  S   S16       1.0  0.17303  0.45329  0.46643  1.0000
  H   H2        1.0  0.14512  0.45512  0.92822  1.0000
  H   H3        1.0  0.00732  0.43659  0.52292  1.0000
  C   C2        1.0  0.98134  0.39777  0.51970  1.0000
  H   H4        1.0  0.02144  0.38280  0.89894  1.0000
  C   C3        1.0  0.15696  0.46592  0.01612  1.0000
  C   C4        1.0  0.15851  0.46313  0.97959  1.0000
  C   C5        1.0  0.14369  0.45740  0.95627  1.0000
  C   C6        1.0  0.12705  0.45446  0.96882  1.0000
  C   C7        1.0  0.12552  0.45736  0.00533  1.0000
  H   H5        1.0  0.01576  0.42762  0.78895  1.0000
  C   C8        1.0  0.01400  0.41737  0.80789  1.0000
  H   H6        1.0  0.11286  0.45480  0.01584  1.0000
  C   C9        1.0  0.00433  0.44389  0.50139  1.0000
  C   C10       1.0  0.99443  0.39095  0.97698  1.0000
  H   H7        1.0  0.00377  0.40696  0.89444  1.0000
  H   H8        1.0  0.19212  0.44836  0.14059  1.0000
  H   H9        1.0  0.17110  0.46521  0.96932  1.0000
  S   S17       1.0  0.17505  0.47267  0.04750  1.0000
  S   S18       1.0  0.22390  0.48208  0.48957  1.0000
  C   C11       1.0  0.15435  0.45634  0.48140  1.0000
  C   C12       1.0  0.15489  0.47294  0.48827  1.0000
  C   C13       1.0  0.13989  0.47459  0.50053  1.0000
  C   C14       1.0  0.12398  0.45975  0.50612  1.0000
  C   C15       1.0  0.12341  0.44315  0.49908  1.0000
  C   C16       1.0  0.13844  0.44150  0.48701  1.0000
  H   H10       1.0  0.10137  0.47266  0.98058  1.0000
  H   H11       1.0  0.11135  0.43154  0.50264  1.0000
  H   H12       1.0  0.13768  0.42856  0.48169  1.0000
  C   C17       1.0  0.05506  0.43259  0.70548  1.0000
  C   C18       1.0  0.05845  0.42501  0.73629  1.0000
  C   C19       1.0  0.05780  0.43164  0.77083  1.0000
  C   C20       1.0  0.05353  0.44583  0.77494  1.0000
  C   C21       1.0  0.05022  0.45342  0.74412  1.0000
  C   C22       1.0  0.05108  0.44693  0.70961  1.0000
  H   H13       1.0  0.06151  0.41387  0.73344  1.0000
  H   H14       1.0  0.06034  0.42563  0.79426  1.0000
  H   H15       1.0  0.04687  0.46437  0.74696  1.0000
  H   H16       1.0  0.04839  0.45289  0.68625  1.0000
  H   H17       1.0  0.19060  0.47694  0.24935  1.0000
  C   C23       1.0  0.99136  0.39732  0.49056  1.0000
  H   H18       1.0  0.01848  0.37953  0.81509  1.0000
  C   C24       1.0  0.18096  0.45180  0.13640  1.0000
  C   C25       1.0  0.22615  0.46979  0.24605  1.0000
  H   H19       1.0  0.20680  0.42377  0.41161  1.0000
  H   H20       1.0  0.10805  0.47573  0.66002  1.0000
  H   H21       1.0  0.21313  0.44365  0.56340  1.0000
  H   H22       1.0  0.01009  0.45804  0.50911  1.0000
  C   C26       1.0  0.01557  0.39038  0.82294  1.0000
  H   H23       1.0  0.02155  0.40227  0.77090  1.0000
  H   H24       1.0  0.19189  0.43086  0.45661  1.0000
  H   H25       1.0  0.14066  0.48753  0.50574  1.0000
  H   H26       1.0  0.01089  0.44228  0.47700  1.0000
  C   C27       1.0  0.10582  0.45014  0.61689  1.0000
  H   H27       1.0  0.18133  0.45585  0.10814  1.0000
  C   C28       1.0  0.22825  0.43660  0.52588  1.0000
  H   H28       1.0  0.18841  0.45371  0.20596  1.0000
  S   S19       1.0  0.21645  0.46288  0.07075  1.0000
  C   C29       1.0  0.98252  0.38942  0.45825  1.0000
  H   H29       1.0  0.18960  0.43965  0.51867  1.0000
  C   C30       1.0  0.09655  0.43269  0.66853  1.0000
  N   N1        1.0  0.18236  0.46584  0.16148  1.0000
  C   C31       1.0  0.17959  0.47977  0.14984  1.0000
  C   C32       1.0  0.10613  0.43600  0.59753  1.0000
  C   C33       1.0  0.18595  0.46461  0.19684  1.0000
  C   C34       1.0  0.10135  0.41993  0.61407  1.0000
  S   S20       1.0  0.03968  0.48295  0.55771  1.0000
  H   H30       1.0  0.10966  0.43742  0.56962  1.0000
  C   C35       1.0  0.09655  0.41823  0.64984  1.0000
  C   C36       1.0  0.00916  0.41877  0.84284  1.0000
  H   H31       1.0  0.00603  0.36546  0.87017  1.0000
  H   H32       1.0  0.10109  0.40876  0.59899  1.0000
  H   H33       1.0  0.09402  0.48621  0.00559  1.0000
  H   H34       1.0  0.99591  0.36616  0.97864  1.0000
  H   H35       1.0  0.13882  0.46496  0.05682  1.0000
  N   N2        1.0  0.10106  0.44836  0.65197  1.0000
  H   H36       1.0  0.09204  0.43105  0.69584  1.0000
  C   C37       1.0  0.00740  0.40570  0.86720  1.0000
  Fe  Fe9       1.0  0.20104  0.47238  0.45018  1.0000
  Fe  Fe10      1.0  0.20492  0.48114  0.05204  1.0000
  N   N3        1.0  0.01038  0.39162  0.85695  1.0000
  C   C38       1.0  0.21392  0.43948  0.53619  1.0000
  H   H37       1.0  0.99831  0.37627  0.90219  1.0000
  C   C39       1.0  0.20211  0.43224  0.47596  1.0000
  N   N4        1.0  0.21626  0.42953  0.46603  1.0000
  C   C40       1.0  0.20071  0.43722  0.51116  1.0000
  C   C41       1.0  0.21788  0.42459  0.42901  1.0000
  H   H38       1.0  0.98778  0.40358  0.54489  1.0000
  C   C42       1.0  0.14032  0.46302  0.02867  1.0000
  H   H39       1.0  0.98183  0.44537  0.54820  1.0000
  H   H40       1.0  0.08565  0.46104  0.66914  1.0000
  H   H41       1.0  0.10909  0.46242  0.60334  1.0000
  C   C43       1.0  0.22915  0.43151  0.49052  1.0000
  C   C44       1.0  0.98341  0.39931  0.98300  1.0000
  H   H42       1.0  0.09229  0.40567  0.66274  1.0000
  H   H43       1.0  0.22481  0.45653  0.24246  1.0000
  H   H44       1.0  0.02774  0.48832  0.92430  1.0000
  H   H45       1.0  0.17656  0.48068  0.12186  1.0000
  H   H46       1.0  0.00719  0.43013  0.85118  1.0000
  C   C45       1.0  0.00899  0.37835  0.88319  1.0000
  H   H47       1.0  0.16691  0.48454  0.48422  1.0000
  C   C46       1.0  0.98771  0.37289  0.98298  1.0000
  C   C47       1.0  0.18724  0.47773  0.22150  1.0000
  C   C48       1.0  0.09942  0.46281  0.67118  1.0000
  H   H48       1.0  0.10296  0.46307  0.69999  1.0000
  H   H49       1.0  0.98829  0.41323  0.97857  1.0000
  H   H50       1.0  0.99002  0.38884  0.43552  1.0000
  H   H51       1.0  0.98510  0.42624  0.44406  1.0000
  C   C49       1.0  0.10556  0.48613  0.99190  1.0000
  H   H52       1.0  0.12230  0.48481  0.93296  1.0000
  N   N5        1.0  0.98534  0.43699  0.49615  1.0000
  H   H53       1.0  0.21836  0.41165  0.42813  1.0000
  Fe  Fe11      1.0  0.22921  0.48242  0.11619  1.0000
  S   S21       1.0  0.22762  0.47096  0.17226  1.0000
  C   C50       1.0  0.22570  0.47623  0.28095  1.0000
  H   H54       1.0  0.22404  0.46794  0.30375  1.0000
  C   C51       1.0  0.22824  0.48027  0.21583  1.0000
  H   H55       1.0  0.08649  0.48585  0.48511  1.0000
  H   H56       1.0  0.23011  0.43459  0.41758  1.0000
  H   H57       1.0  0.00833  0.59379  0.51202  1.0000
  C   C52       1.0  0.02588  0.56878  0.65848  1.0000
  S   S22       1.0  0.19234  0.69126  0.98968  1.0000
  H   H58       1.0  0.20941  0.68786  0.51706  1.0000
  C   C53       1.0  0.01750  0.55765  0.62940  1.0000
  S   S23       1.0  0.18638  0.70580  0.47868  1.0000
  H   H59       1.0  0.03813  0.55030  0.93842  1.0000
  H   H60       1.0  0.01506  0.54394  0.62976  1.0000
  C   C54       1.0  0.21953  0.66735  0.00188  1.0000
  Fe  Fe12      1.0  0.06799  0.60695  0.87504  1.0000
  S   S24       1.0  0.06438  0.61606  0.93043  1.0000
  S   S25       1.0  0.06294  0.62022  0.82613  1.0000
  Fe  Fe13      1.0  0.07898  0.58044  0.90557  1.0000
  S   S26       1.0  0.07657  0.58754  0.96248  1.0000
  S   S27       1.0  0.08610  0.55893  0.88664  1.0000
  Fe  Fe14      1.0  0.05086  0.58732  0.94417  1.0000
  S   S28       1.0  0.02801  0.57230  0.98232  1.0000
  Fe  Fe15      1.0  0.09030  0.61569  0.94490  1.0000
  S   S29       1.0  0.11033  0.63778  0.98156  1.0000
  S   S30       1.0  0.05276  0.57850  0.88786  1.0000
  S   S31       1.0  0.09447  0.60840  0.88886  1.0000
  Fe  Fe16      1.0  0.09409  0.61725  0.53380  1.0000
  S   S32       1.0  0.10013  0.61058  0.58895  1.0000
  S   S33       1.0  0.11690  0.63319  0.49610  1.0000
  Fe  Fe17      1.0  0.05433  0.58963  0.53775  1.0000
  S   S34       1.0  0.05867  0.58154  0.59297  1.0000
  S   S35       1.0  0.02759  0.57160  0.51061  1.0000
  Fe  Fe18      1.0  0.07451  0.61018  0.60530  1.0000
  S   S36       1.0  0.07021  0.62341  0.65559  1.0000
  Fe  Fe19      1.0  0.08372  0.58246  0.57245  1.0000
  S   S37       1.0  0.09360  0.56203  0.58346  1.0000
  S   S38       1.0  0.06903  0.61872  0.55083  1.0000
  S   S39       1.0  0.07884  0.58871  0.51665  1.0000
  H   H61       1.0  0.22163  0.54410  0.42721  1.0000
  H   H62       1.0  0.03281  0.61844  0.65214  1.0000
  C   C55       1.0  0.03274  0.53391  0.00012  1.0000
  Fe  Fe20      1.0  0.21268  0.71672  0.44874  1.0000
  Fe  Fe21      1.0  0.21341  0.71018  0.02975  1.0000
  C   C56       1.0  0.99366  0.56450  0.95874  1.0000
  C   C57       1.0  0.22233  0.71977  0.26804  1.0000
  H   H63       1.0  0.04361  0.54734  0.00274  1.0000
  C   C58       1.0  0.00550  0.56776  0.49944  1.0000
  C   C59       1.0  0.99362  0.55098  0.48670  1.0000
  H   H64       1.0  0.99806  0.54079  0.48375  1.0000
  C   C60       1.0  0.06569  0.61986  0.77887  1.0000
  C   C61       1.0  0.06262  0.63227  0.75913  1.0000
  C   C62       1.0  0.06434  0.63305  0.72189  1.0000
  C   C63       1.0  0.06905  0.62136  0.70310  1.0000
  C   C64       1.0  0.07208  0.60868  0.72248  1.0000
  C   C65       1.0  0.07050  0.60800  0.76041  1.0000
  H   H65       1.0  0.05887  0.64146  0.77278  1.0000
  H   H66       1.0  0.06195  0.64288  0.70750  1.0000
  H   H67       1.0  0.07573  0.59953  0.70841  1.0000
  H   H68       1.0  0.07290  0.59830  0.77523  1.0000
  C   C66       1.0  0.00466  0.56364  0.98623  1.0000
  C   C67       1.0  0.99690  0.55537  0.01815  1.0000
  H   H69       1.0  0.00518  0.55471  0.03983  1.0000
  H   H70       1.0  0.21596  0.64349  0.06258  1.0000
  C   C68       1.0  0.06889  0.50937  0.95256  1.0000
  C   C69       1.0  0.07158  0.52532  0.96924  1.0000
  C   C70       1.0  0.07671  0.54062  0.94917  1.0000
  C   C71       1.0  0.07948  0.54006  0.91250  1.0000
  C   C72       1.0  0.07716  0.52419  0.89603  1.0000
  C   C73       1.0  0.07168  0.50882  0.91591  1.0000
  H   H71       1.0  0.06953  0.52582  0.99764  1.0000
  H   H72       1.0  0.07872  0.55288  0.96212  1.0000
  H   H73       1.0  0.07933  0.52372  0.86765  1.0000
  H   H74       1.0  0.22998  0.66493  0.91521  1.0000
  C   C74       1.0  0.18104  0.49325  0.17366  1.0000
  C   C75       1.0  0.05416  0.50470  0.56929  1.0000
  C   C76       1.0  0.07116  0.50895  0.58178  1.0000
  C   C77       1.0  0.08301  0.52660  0.58739  1.0000
  C   C78       1.0  0.07791  0.54005  0.58058  1.0000
  C   C79       1.0  0.06074  0.53578  0.56921  1.0000
  C   C80       1.0  0.04889  0.51813  0.56363  1.0000
  H   H75       1.0  0.07525  0.49868  0.58666  1.0000
  H   H76       1.0  0.09626  0.52988  0.59640  1.0000
  H   H77       1.0  0.05672  0.54607  0.56373  1.0000
  H   H78       1.0  0.03574  0.51491  0.55400  1.0000
  C   C81       1.0  0.13582  0.65376  0.49111  1.0000
  C   C82       1.0  0.13929  0.66853  0.51301  1.0000
  C   C83       1.0  0.15453  0.68433  0.50817  1.0000
  C   C84       1.0  0.16682  0.68564  0.48191  1.0000
  C   C85       1.0  0.16337  0.67085  0.46011  1.0000
  C   C86       1.0  0.14798  0.65515  0.46453  1.0000
  H   H79       1.0  0.13012  0.66788  0.53341  1.0000
  H   H80       1.0  0.15689  0.69563  0.52515  1.0000
  H   H81       1.0  0.17254  0.67152  0.43969  1.0000
  H   H82       1.0  0.14551  0.64393  0.44724  1.0000
  H   H83       1.0  0.99927  0.57079  0.93403  1.0000
  C   C87       1.0  0.99942  0.58073  0.50297  1.0000
  C   C88       1.0  0.13344  0.65161  0.98435  1.0000
  C   C89       1.0  0.14030  0.66334  0.01380  1.0000
  C   C90       1.0  0.15824  0.67521  0.01642  1.0000
  C   C91       1.0  0.16968  0.67579  0.98926  1.0000
  C   C92       1.0  0.16283  0.66401  0.95984  1.0000
  C   C93       1.0  0.14495  0.65192  0.95754  1.0000
  H   H84       1.0  0.13164  0.66330  0.03480  1.0000
  H   H85       1.0  0.16314  0.68413  0.03920  1.0000
  H   H86       1.0  0.17144  0.66423  0.93859  1.0000
  H   H87       1.0  0.14002  0.64302  0.93474  1.0000
  C   C94       1.0  0.03562  0.53664  0.93528  1.0000
  H   H88       1.0  0.03003  0.56383  0.68167  1.0000
  H   H89       1.0  0.03933  0.53842  0.87819  1.0000
  C   C95       1.0  0.02930  0.50901  0.96078  1.0000
  C   C96       1.0  0.03609  0.52993  0.90113  1.0000
  C   C97       1.0  0.22640  0.72815  0.20476  1.0000
  C   C98       1.0  0.22724  0.65600  0.05622  1.0000
  Fe  Fe22      1.0  0.22469  0.49209  0.38709  1.0000
  H   H90       1.0  0.17930  0.50449  0.16407  1.0000
  C   C99       1.0  0.98181  0.57690  0.49421  1.0000
  S   S40       1.0  0.22052  0.69988  0.07949  1.0000
  N   N6        1.0  0.02463  0.59300  0.62745  1.0000
  C   C100      1.0  0.01277  0.56437  0.59932  1.0000
  H   H91       1.0  0.17548  0.70932  0.30674  1.0000
  H   H92       1.0  0.00670  0.55599  0.57609  1.0000
  S   S41       1.0  0.20811  0.49870  0.42606  1.0000
  N   N7        1.0  0.11147  0.49910  0.96357  1.0000
  S   S42       1.0  0.22613  0.50203  0.32945  1.0000
  H   H93       1.0  0.04004  0.61823  0.60742  1.0000
  C   C101      1.0  0.11706  0.66984  0.92192  1.0000
  C   C102      1.0  0.18233  0.71991  0.28858  1.0000
  H   H94       1.0  0.13069  0.66027  0.84291  1.0000
  H   H95       1.0  0.14021  0.64058  0.56468  1.0000
  H   H96       1.0  0.03467  0.52599  0.02178  1.0000
  N   N8        1.0  0.09943  0.66247  0.91503  1.0000
  H   H97       1.0  0.09860  0.64690  0.83082  1.0000
  C   C103      1.0  0.14994  0.63555  0.55735  1.0000
  C   C104      1.0  0.12253  0.52362  0.90959  1.0000
  H   H98       1.0  0.08735  0.65374  0.96472  1.0000
  N   N9        1.0  0.08849  0.51119  0.49967  1.0000
  C   C105      1.0  0.07185  0.50810  0.48932  1.0000
  C   C106      1.0  0.10083  0.52797  0.50634  1.0000
  C   C107      1.0  0.06734  0.52206  0.48442  1.0000
  C   C108      1.0  0.09675  0.54223  0.50180  1.0000
  H   H99       1.0  0.98854  0.55962  0.40311  1.0000
  C   C109      1.0  0.12550  0.50861  0.90734  1.0000
  H   H100      1.0  0.10698  0.50017  0.50528  1.0000
  H   H101      1.0  0.21232  0.67267  0.01799  1.0000
  C   C110      1.0  0.22729  0.49330  0.28620  1.0000
  C   C111      1.0  0.09269  0.49630  0.50597  1.0000
  C   C112      1.0  0.19484  0.73599  0.30191  1.0000
  H   H102      1.0  0.13185  0.50624  0.88424  1.0000
  C   C113      1.0  0.12003  0.49650  0.93494  1.0000
  N   N10       1.0  0.22806  0.65856  0.01747  1.0000
  N   N11       1.0  0.16635  0.64989  0.54633  1.0000
  C   C114      1.0  0.17600  0.64699  0.52018  1.0000
  C   C115      1.0  0.17221  0.66596  0.56309  1.0000
  C   C116      1.0  0.19175  0.66053  0.50956  1.0000
  C   C117      1.0  0.18786  0.67980  0.55304  1.0000
  C   C118      1.0  0.19762  0.67704  0.52603  1.0000
  H   H103      1.0  0.01335  0.58743  0.57482  1.0000
  C   C119      1.0  0.18495  0.49222  0.20970  1.0000
  H   H104      1.0  0.22593  0.66700  0.07048  1.0000
  H   H105      1.0  0.19202  0.69281  0.56493  1.0000
  S   S43       1.0  0.21895  0.70447  0.40019  1.0000
  H   H106      1.0  0.19797  0.73791  0.33037  1.0000
  C   C120      1.0  0.07990  0.53922  0.49072  1.0000
  H   H107      1.0  0.12642  0.53301  0.88815  1.0000
  N   N12       1.0  0.03263  0.52631  0.96461  1.0000
  S   S44       1.0  0.21660  0.72513  0.16099  1.0000
  H   H108      1.0  0.19913  0.65843  0.48802  1.0000
  C   C121      1.0  0.10396  0.65356  0.85624  1.0000
  H   H109      1.0  0.20729  0.70337  0.22350  1.0000
  H   H110      1.0  0.01744  0.61365  0.61537  1.0000
  H   H111      1.0  0.15231  0.62873  0.58053  1.0000
  H   H112      1.0  0.10630  0.55548  0.50851  1.0000
  C   C122      1.0  0.02950  0.50180  0.92697  1.0000
  H   H113      1.0  0.16963  0.70485  0.24100  1.0000
  H   H114      1.0  0.07884  0.64830  0.87726  1.0000
  H   H115      1.0  0.16445  0.66835  0.58343  1.0000
  H   H116      1.0  0.05400  0.51955  0.47742  1.0000
  H   H117      1.0  0.21350  0.67701  0.95285  1.0000
  C   C123      1.0  0.01657  0.58221  0.59872  1.0000
  H   H118      1.0  0.03622  0.59516  0.67944  1.0000
  H   H119      1.0  0.12225  0.67574  0.94798  1.0000
  H   H120      1.0  0.02724  0.50084  0.98401  1.0000
  H   H121      1.0  0.18627  0.72882  0.20004  1.0000
  H   H122      1.0  0.02027  0.53501  0.00405  1.0000
  C   C124      1.0  0.10896  0.51402  0.96649  1.0000
  H   H123      1.0  0.14371  0.62589  0.53506  1.0000
  H   H124      1.0  0.11379  0.53042  0.51614  1.0000
  C   C125      1.0  0.09282  0.65437  0.88270  1.0000
  H   H125      1.0  0.07409  0.65863  0.93274  1.0000
  S   S45       1.0  0.21953  0.73683  0.05515  1.0000
  C   C126      1.0  0.02938  0.58654  0.65703  1.0000
  S   S46       1.0  0.21688  0.49991  0.09902  1.0000
  C   C127      1.0  0.22008  0.66977  0.96491  1.0000
  C   C128      1.0  0.18847  0.73105  0.22873  1.0000
  H   H126      1.0  0.07639  0.55014  0.48862  1.0000
  S   S47       1.0  0.22787  0.49587  0.01645  1.0000
  C   C129      1.0  0.17906  0.71741  0.25176  1.0000
  H   H127      1.0  0.09228  0.67625  0.95481  1.0000
  C   C130      1.0  0.12195  0.66105  0.86304  1.0000
  H   H128      1.0  0.14253  0.67498  0.90191  1.0000
  C   C131      1.0  0.02886  0.61173  0.62551  1.0000
  C   C132      1.0  0.08768  0.66281  0.94311  1.0000
  H   H129      1.0  0.17131  0.63430  0.50670  1.0000
  H   H130      1.0  0.06947  0.49657  0.90272  1.0000
  C   C133      1.0  0.12858  0.66933  0.89602  1.0000
  H   H131      1.0  0.03404  0.50722  0.87089  1.0000
  H   H132      1.0  0.18639  0.50270  0.22843  1.0000
  C   C134      1.0  0.11440  0.52647  0.93953  1.0000
  H   H133      1.0  0.11191  0.53805  0.94143  1.0000
  H   H134      1.0  0.21519  0.71036  0.28801  1.0000
  H   H135      1.0  0.06181  0.49476  0.48604  1.0000
  C   C135      1.0  0.21792  0.71580  0.23129  1.0000
  C   C136      1.0  0.03309  0.51241  0.89705  1.0000
  H   H136      1.0  0.10228  0.51613  0.98931  1.0000
  Fe  Fe23      1.0  0.22796  0.72659  0.10471  1.0000
  C   C137      1.0  0.22995  0.49739  0.22109  1.0000
  C   C138      1.0  0.22921  0.66291  0.94384  1.0000
  C   C139      1.0  0.22943  0.50381  0.25598  1.0000
  H   H137      1.0  0.08791  0.49066  0.53249  1.0000
  S   S48       1.0  0.06185  0.49028  0.97795  1.0000
  H   H138      1.0  0.11633  0.48883  0.01174  1.0000
  H   H139      1.0  0.20351  0.76928  0.21379  1.0000
  H   H140      1.0  0.21410  0.76156  0.28875  1.0000
  H   H141      1.0  0.21195  0.75557  0.19105  1.0000
  C   C140      1.0  0.21050  0.76090  0.21755  1.0000
  S   S49       1.0  0.22636  0.74452  0.42757  1.0000
  H   H142      1.0  0.22396  0.76907  0.22804  1.0000
  C   C141      1.0  0.20397  0.74935  0.27814  1.0000
  N   N13       1.0  0.20089  0.74669  0.24203  1.0000
  C   C142      1.0  0.43734  0.16885  0.59824  1.0000
  S   S50       1.0  0.45254  0.06510  0.48660  1.0000
  Fe  Fe24      1.0  0.45030  0.06152  0.38185  1.0000
  S   S51       1.0  0.42675  0.05672  0.41542  1.0000
  S   S52       1.0  0.45394  0.05659  0.32261  1.0000
  Fe  Fe25      1.0  0.44531  0.08119  0.44737  1.0000
  S   S53       1.0  0.43858  0.10403  0.46397  1.0000
  Fe  Fe26      1.0  0.43595  0.04110  0.45267  1.0000
  S   S54       1.0  0.42412  0.01269  0.47432  1.0000
  H   H143      1.0  0.45587  0.22029  0.73261  1.0000
  S   S55       1.0  0.45828  0.04457  0.41683  1.0000
  Fe  Fe27      1.0  0.46946  0.05936  0.07827  1.0000
  S   S56       1.0  0.46072  0.06170  0.02254  1.0000
  Fe  Fe28      1.0  0.43913  0.06308  0.11285  1.0000
  S   S57       1.0  0.42759  0.06542  0.05903  1.0000
  S   S58       1.0  0.42839  0.06719  0.16637  1.0000
  Fe  Fe29      1.0  0.43380  0.04286  0.04061  1.0000
  S   S59       1.0  0.41738  0.01998  0.00113  1.0000
  Fe  Fe30      1.0  0.45518  0.08395  0.04446  1.0000
  S   S60       1.0  0.46735  0.11186  0.02021  1.0000
  S   S61       1.0  0.44313  0.03948  0.09538  1.0000
  S   S62       1.0  0.46609  0.08260  0.09919  1.0000
  H   H144      1.0  0.39004  0.02846  0.30949  1.0000
  S   S63       1.0  0.45802  0.17987  0.96613  1.0000
  H   H145      1.0  0.47064  0.20016  0.83051  1.0000
  S   S64       1.0  0.46920  0.22575  0.91657  1.0000
  Fe  Fe31      1.0  0.47716  0.20801  0.95063  1.0000
  H   H146      1.0  0.42447  0.16854  0.59501  1.0000
  C   C143      1.0  0.46432  0.13046  0.00445  1.0000
  H   H147      1.0  0.43593  0.00292  0.35040  1.0000
  C   C144      1.0  0.47704  0.03430  0.97057  1.0000
  C   C145      1.0  0.46102  0.16115  0.98110  1.0000
  C   C146      1.0  0.44621  0.14552  0.98858  1.0000
  C   C147      1.0  0.44781  0.13033  0.00010  1.0000
  S   S65       1.0  0.47278  0.22452  0.66485  1.0000
  C   C148      1.0  0.46249  0.10960  0.17107  1.0000
  H   H148      1.0  0.43334  0.14513  0.98546  1.0000
  H   H149      1.0  0.43623  0.11850  0.00544  1.0000
  S   S66       1.0  0.46800  0.08640  0.41145  1.0000
  C   C149      1.0  0.48010  0.11813  0.16249  1.0000
  H   H150      1.0  0.44821  0.16427  0.49916  1.0000
  H   H151      1.0  0.45855  0.10205  0.19530  1.0000
  H   H152      1.0  0.41027  0.04655  0.32439  1.0000
  C   C150      1.0  0.45207  0.12624  0.47860  1.0000
  C   C151      1.0  0.46197  0.16632  0.88534  1.0000
  H   H153      1.0  0.46085  0.14699  0.57225  1.0000
  C   C152      1.0  0.40814  0.99632  0.99882  1.0000
  C   C153      1.0  0.45440  0.15553  0.49564  1.0000
  C   C154      1.0  0.44438  0.13796  0.48370  1.0000
  H   H154      1.0  0.38661  0.00128  0.48824  1.0000
  C   C155      1.0  0.47555  0.22639  0.77461  1.0000
  C   C156      1.0  0.44735  0.06070  0.27955  1.0000
  C   C157      1.0  0.43642  0.06912  0.27476  1.0000
  C   C158      1.0  0.43074  0.07098  0.24000  1.0000
  C   C159      1.0  0.43620  0.06484  0.20957  1.0000
  C   C160      1.0  0.44755  0.05691  0.21435  1.0000
  C   C161      1.0  0.45296  0.05475  0.24910  1.0000
  H   H155      1.0  0.43217  0.07402  0.29777  1.0000
  H   H156      1.0  0.42202  0.07721  0.23666  1.0000
  H   H157      1.0  0.45191  0.05214  0.19128  1.0000
  H   H158      1.0  0.44747  0.19226  0.63173  1.0000
  C   C162      1.0  0.44115  0.15603  0.58172  1.0000
  C   C163      1.0  0.38989  0.99055  0.49425  1.0000
  C   C164      1.0  0.40241  0.00614  0.39353  1.0000
  H   H159      1.0  0.43132  0.14567  0.56537  1.0000
  H   H160      1.0  0.42868  0.11610  0.10393  1.0000
  C   C165      1.0  0.47913  0.14605  0.99661  1.0000
  C   C166      1.0  0.46731  0.00901  0.07066  1.0000
  C   C167      1.0  0.45024  0.18217  0.61876  1.0000
  H   H161      1.0  0.43936  0.17949  0.89962  1.0000
  C   C168      1.0  0.42524  0.00639  0.35549  1.0000
  C   C169      1.0  0.47183  0.12753  0.10750  1.0000
  C   C170      1.0  0.45704  0.01567  0.01385  1.0000
  H   H162      1.0  0.46640  0.22401  0.79596  1.0000
  C   C171      1.0  0.47239  0.18998  0.84506  1.0000
  C   C172      1.0  0.46693  0.18270  0.62184  1.0000
  H   H163      1.0  0.40067  0.99512  0.94313  1.0000
  C   C173      1.0  0.44350  0.18123  0.87126  1.0000
  H   H164      1.0  0.43301  0.17131  0.85416  1.0000
  C   C174      1.0  0.40434  0.03290  0.31339  1.0000
  C   C175      1.0  0.44112  0.11859  0.09052  1.0000
  H   H165      1.0  0.44374  0.00816  0.02219  1.0000
  S   S67       1.0  0.46629  0.21792  0.56135  1.0000
  H   H166      1.0  0.47621  0.12371  0.48230  1.0000
  H   H167      1.0  0.43855  0.10796  0.07027  1.0000
  C   C176      1.0  0.47748  0.16436  0.88255  1.0000
  H   H168      1.0  0.47558  0.13422  0.08227  1.0000
  H   H169      1.0  0.44517  0.19455  0.86371  1.0000
  C   C177      1.0  0.45793  0.15687  0.58563  1.0000
  H   H170      1.0  0.43054  0.13342  0.47813  1.0000
  H   H171      1.0  0.45189  0.15773  0.90282  1.0000
  N   N14       1.0  0.45977  0.17928  0.86741  1.0000
  C   C178      1.0  0.45994  0.02404  0.98094  1.0000
  H   H172      1.0  0.44543  0.13126  0.07650  1.0000
  C   C179      1.0  0.39876  0.01650  0.36888  1.0000
  H   H173      1.0  0.43613  0.10297  0.15372  1.0000
  Fe  Fe32      1.0  0.47406  0.06898  0.44854  1.0000
  C   C180      1.0  0.44982  0.11015  0.14736  1.0000
  N   N15       1.0  0.45458  0.11909  0.11612  1.0000
  H   H174      1.0  0.42879  0.02095  0.30727  1.0000
  C   C181      1.0  0.42112  0.01660  0.33122  1.0000
  N   N16       1.0  0.40797  0.02145  0.33804  1.0000
  H   H175      1.0  0.40989  0.03296  0.28657  1.0000
  H   H176      1.0  0.45584  0.99598  0.06917  1.0000
  H   H177      1.0  0.38869  0.02078  0.37486  1.0000
  C   C182      1.0  0.47003  0.13245  0.48587  1.0000
  C   C183      1.0  0.40711  0.99272  0.49027  1.0000
  H   H178      1.0  0.47944  0.04124  0.94555  1.0000
  H   H179      1.0  0.46146  0.04827  0.25234  1.0000
  C   C184      1.0  0.47234  0.16169  0.50309  1.0000
  N   N17       1.0  0.47067  0.17033  0.60478  1.0000
  N   N18       1.0  0.47077  0.01721  0.03554  1.0000
  C   C185      1.0  0.46961  0.22435  0.73850  1.0000
  H   H180      1.0  0.46463  0.01760  0.09004  1.0000
  C   C186      1.0  0.47753  0.16124  0.98506  1.0000
  H   H181      1.0  0.44891  0.02293  0.96419  1.0000
  C   C187      1.0  0.48001  0.14997  0.49808  1.0000
  C   C188      1.0  0.41575  0.00109  0.38675  1.0000
  H   H182      1.0  0.41338  0.99245  0.05370  1.0000
  H   H183      1.0  0.47869  0.00708  0.08107  1.0000
  H   H184      1.0  0.39529  0.00243  0.41827  1.0000
  H   H185      1.0  0.47691  0.19324  0.63755  1.0000
  H   H186      1.0  0.47937  0.15448  0.89799  1.0000
  H   H187      1.0  0.41896  0.99343  0.40623  1.0000
  S   S68       1.0  0.47281  0.36523  0.06695  1.0000
  C   C189      1.0  0.45875  0.29782  0.45741  1.0000
  C   C190      1.0  0.41509  0.46126  0.49307  1.0000
  Fe  Fe33      1.0  0.44928  0.34829  0.03312  1.0000
  H   H188      1.0  0.40587  0.44898  0.48083  1.0000
  S   S69       1.0  0.44690  0.32427  0.99892  1.0000
  Fe  Fe34      1.0  0.42927  0.37047  0.05459  1.0000
  S   S70       1.0  0.45133  0.38777  0.09151  1.0000
  S   S71       1.0  0.40691  0.37908  0.05404  1.0000
  Fe  Fe35      1.0  0.46862  0.38813  0.04665  1.0000
  Fe  Fe36      1.0  0.45336  0.36344  0.10931  1.0000
  S   S72       1.0  0.46214  0.35972  0.16546  1.0000
  S   S73       1.0  0.44661  0.37163  0.00894  1.0000
  S   S74       1.0  0.42979  0.34562  0.07632  1.0000
  Fe  Fe37      1.0  0.36669  0.43491  0.93635  1.0000
  S   S75       1.0  0.36802  0.45321  0.98150  1.0000
  S   S76       1.0  0.37576  0.41284  0.93498  1.0000
  Fe  Fe38      1.0  0.35747  0.45672  0.88150  1.0000
  S   S77       1.0  0.35899  0.47711  0.92296  1.0000
  S   S78       1.0  0.34803  0.45832  0.82460  1.0000
  Fe  Fe39      1.0  0.38287  0.47468  0.94366  1.0000
  Fe  Fe40      1.0  0.34370  0.45432  0.95788  1.0000
  S   S79       1.0  0.32383  0.45580  0.99819  1.0000
  S   S80       1.0  0.38281  0.45655  0.89940  1.0000
  S   S81       1.0  0.34093  0.43378  0.91544  1.0000
  C   C191      1.0  0.28517  0.42984  0.06140  1.0000
  C   C192      1.0  0.46934  0.31235  0.47883  1.0000
  Fe  Fe41      1.0  0.44143  0.35675  0.37242  1.0000
  S   S82       1.0  0.43156  0.34408  0.42577  1.0000
  S   S83       1.0  0.42684  0.34792  0.31863  1.0000
  Fe  Fe42      1.0  0.43785  0.37151  0.44662  1.0000
  S   S84       1.0  0.42223  0.37778  0.49029  1.0000
  Fe  Fe43      1.0  0.45975  0.34990  0.43815  1.0000
  H   H189      1.0  0.44414  0.47683  0.56154  1.0000
  S   S85       1.0  0.44541  0.38341  0.39268  1.0000
  H   H190      1.0  0.27696  0.44079  0.10552  1.0000
  Fe  Fe44      1.0  0.36621  0.44908  0.61553  1.0000
  S   S86       1.0  0.34558  0.42855  0.57976  1.0000
  S   S87       1.0  0.37349  0.44454  0.67256  1.0000
  C   C193      1.0  0.45417  0.29354  0.10009  1.0000
  S   S88       1.0  0.35931  0.45664  0.51538  1.0000
  Fe  Fe45      1.0  0.33984  0.45091  0.55925  1.0000
  S   S89       1.0  0.31363  0.45352  0.55845  1.0000
  Fe  Fe46      1.0  0.36694  0.43613  0.53852  1.0000
  S   S90       1.0  0.37474  0.42035  0.49706  1.0000
  S   S91       1.0  0.35945  0.47076  0.59773  1.0000
  S   S92       1.0  0.38764  0.45537  0.57524  1.0000
  H   H191      1.0  0.23459  0.43578  0.06668  1.0000
  H   H192      1.0  0.33203  0.41283  0.71820  1.0000
  H   H193      1.0  0.47571  0.36072  0.23629  1.0000
  S   S93       1.0  0.25465  0.46863  0.99954  1.0000
  H   H194      1.0  0.25366  0.45599  0.07542  1.0000
  H   H195      1.0  0.43019  0.43685  0.94236  1.0000
  H   H196      1.0  0.35791  0.40646  0.72255  1.0000
  C   C194      1.0  0.43214  0.29985  0.07267  1.0000
  C   C195      1.0  0.29918  0.45721  0.52750  1.0000
  H   H197      1.0  0.41850  0.29820  0.50591  1.0000
  H   H198      1.0  0.33247  0.41779  0.83253  1.0000
  C   C196      1.0  0.27513  0.46287  0.48068  1.0000
  H   H199      1.0  0.30865  0.45015  0.47966  1.0000
  C   C197      1.0  0.29945  0.45460  0.49050  1.0000
  C   C198      1.0  0.42774  0.28557  0.04893  1.0000
  C   C199      1.0  0.42330  0.44449  0.53631  1.0000
  H   H200      1.0  0.24453  0.42880  0.01174  1.0000
  H   H201      1.0  0.45103  0.29945  0.43571  1.0000
  C   C200      1.0  0.40944  0.39009  0.49150  1.0000
  C   C201      1.0  0.40326  0.39302  0.52461  1.0000
  C   C202      1.0  0.39279  0.40229  0.52698  1.0000
  C   C203      1.0  0.38820  0.40875  0.49613  1.0000
  C   C204      1.0  0.39441  0.40585  0.46304  1.0000
  C   C205      1.0  0.40502  0.39672  0.46072  1.0000
  H   H202      1.0  0.40643  0.38789  0.54864  1.0000
  H   H203      1.0  0.38800  0.40415  0.55261  1.0000
  H   H204      1.0  0.39088  0.41060  0.43889  1.0000
  H   H205      1.0  0.40950  0.39454  0.43500  1.0000
  C   C206      1.0  0.30659  0.46272  0.99558  1.0000
  C   C207      1.0  0.30221  0.46948  0.02666  1.0000
  C   C208      1.0  0.28699  0.47242  0.02779  1.0000
  C   C209      1.0  0.27563  0.46825  0.99798  1.0000
  C   C210      1.0  0.28031  0.46210  0.96652  1.0000
  C   C211      1.0  0.29571  0.45947  0.96520  1.0000
  C   C212      1.0  0.42733  0.38763  0.25351  1.0000
  H   H206      1.0  0.44730  0.42062  0.96080  1.0000
  H   H207      1.0  0.29870  0.45412  0.94116  1.0000
  C   C213      1.0  0.35679  0.45670  0.78249  1.0000
  C   C214      1.0  0.37138  0.45311  0.77951  1.0000
  C   C215      1.0  0.37674  0.45015  0.74551  1.0000
  C   C216      1.0  0.36767  0.45081  0.71411  1.0000
  C   C217      1.0  0.35346  0.45499  0.71703  1.0000
  C   C218      1.0  0.34805  0.45788  0.75104  1.0000
  H   H208      1.0  0.37829  0.45225  0.80339  1.0000
  H   H209      1.0  0.38779  0.44699  0.74352  1.0000
  H   H210      1.0  0.34631  0.45547  0.69318  1.0000
  H   H211      1.0  0.33675  0.46064  0.75304  1.0000
  C   C219      1.0  0.45166  0.35527  0.20741  1.0000
  C   C220      1.0  0.43375  0.35033  0.21069  1.0000
  C   C221      1.0  0.42626  0.34761  0.24488  1.0000
  C   C222      1.0  0.43661  0.35004  0.27609  1.0000
  C   C223      1.0  0.45444  0.35461  0.27267  1.0000
  C   C224      1.0  0.46188  0.35711  0.23854  1.0000
  H   H212      1.0  0.42568  0.34871  0.18700  1.0000
  H   H213      1.0  0.41242  0.34392  0.24721  1.0000
  H   H214      1.0  0.46252  0.35618  0.29633  1.0000
  C   C225      1.0  0.46753  0.39708  0.30899  1.0000
  C   C226      1.0  0.39882  0.38877  0.02042  1.0000
  C   C227      1.0  0.40214  0.38799  0.98404  1.0000
  C   C228      1.0  0.39500  0.39542  0.95842  1.0000
  C   C229      1.0  0.38481  0.40414  0.96875  1.0000
  C   C230      1.0  0.38176  0.40522  0.00520  1.0000
  C   C231      1.0  0.38852  0.39739  0.03072  1.0000
  H   H215      1.0  0.40987  0.38128  0.97555  1.0000
  H   H216      1.0  0.39734  0.39431  0.93034  1.0000
  H   H217      1.0  0.37376  0.41163  0.01367  1.0000
  H   H218      1.0  0.38569  0.39796  0.05870  1.0000
  Fe  Fe47      1.0  0.24041  0.47906  0.03886  1.0000
  N   N19       1.0  0.45609  0.39491  0.27776  1.0000
  C   C232      1.0  0.45818  0.28108  0.46389  1.0000
  S   S94       1.0  0.47033  0.33385  0.47293  1.0000
  H   H219      1.0  0.42139  0.34240  0.50352  1.0000
  H   H220      1.0  0.43407  0.26457  0.03169  1.0000
  S   S95       1.0  0.46702  0.25696  0.49811  1.0000
  H   H221      1.0  0.42069  0.46340  0.98694  1.0000
  H   H222      1.0  0.46280  0.36356  0.58220  1.0000
  H   H223      1.0  0.41347  0.38336  0.25763  1.0000
  Fe  Fe48      1.0  0.47263  0.38684  0.40635  1.0000
  H   H224      1.0  0.42360  0.43560  0.51438  1.0000
  C   C233      1.0  0.41247  0.44903  0.98431  1.0000
  H   H225      1.0  0.43055  0.31219  0.47026  1.0000
  H   H226      1.0  0.45470  0.27432  0.94551  1.0000
  C   C234      1.0  0.45203  0.29672  0.96871  1.0000
  C   C235      1.0  0.45801  0.31038  0.99477  1.0000
  C   C236      1.0  0.44081  0.42506  0.98063  1.0000
  H   H227      1.0  0.37066  0.42456  0.85120  1.0000
  H   H228      1.0  0.36583  0.40160  0.84686  1.0000
  H   H229      1.0  0.44134  0.29533  0.95083  1.0000
  N   N20       1.0  0.42245  0.43931  0.99536  1.0000
  H   H230      1.0  0.40764  0.44578  0.95612  1.0000
  H   H231      1.0  0.47670  0.32226  0.03777  1.0000
  C   C237      1.0  0.47328  0.28607  0.98877  1.0000
  N   N21       1.0  0.42522  0.46127  0.52189  1.0000
  C   C238      1.0  0.43684  0.27521  0.05096  1.0000
  H   H232      1.0  0.35060  0.40794  0.86778  1.0000
  H   H233      1.0  0.24053  0.42968  0.48245  1.0000
  H   H234      1.0  0.29079  0.42007  0.01205  1.0000
  C   C239      1.0  0.46258  0.39698  0.24395  1.0000
  C   C240      1.0  0.45419  0.35272  0.56513  1.0000
  H   H235      1.0  0.26419  0.41871  0.98055  1.0000
  C   C241      1.0  0.44155  0.35455  0.54349  1.0000
  C   C242      1.0  0.28693  0.46289  0.54077  1.0000
  C   C243      1.0  0.27376  0.43537  0.07852  1.0000
  H   H236      1.0  0.41057  0.43807  0.54988  1.0000
  H   H237      1.0  0.37064  0.40547  0.78211  1.0000
  H   H238      1.0  0.41043  0.31238  0.48495  1.0000
  Fe  Fe49      1.0  0.37894  0.47516  0.55472  1.0000
  H   H239      1.0  0.31045  0.47200  0.05041  1.0000
  N   N22       1.0  0.44510  0.30357  0.09805  1.0000
  C   C244      1.0  0.26668  0.42285  0.00845  1.0000
  H   H240      1.0  0.44886  0.41380  0.02480  1.0000
  Fe  Fe50      1.0  0.23976  0.47703  0.44670  1.0000
  C   C245      1.0  0.43302  0.42666  0.04185  1.0000
  H   H241      1.0  0.28755  0.45473  0.43901  1.0000
  H   H242      1.0  0.28651  0.46495  0.56929  1.0000
  C   C246      1.0  0.42248  0.31132  0.49401  1.0000
  N   N23       1.0  0.43272  0.32530  0.51986  1.0000
  C   C247      1.0  0.45159  0.39452  0.21406  1.0000
  C   C248      1.0  0.45591  0.33701  0.56414  1.0000
  C   C249      1.0  0.44496  0.32334  0.54128  1.0000
  H   H243      1.0  0.44685  0.31143  0.53956  1.0000
  H   H244      1.0  0.46485  0.29684  0.11937  1.0000
  H   H245      1.0  0.45763  0.27150  0.07764  1.0000
  C   C250      1.0  0.45012  0.27915  0.07674  1.0000
  C   C251      1.0  0.44171  0.42124  0.01658  1.0000
  C   C252      1.0  0.46813  0.27849  0.49186  1.0000
  H   H246      1.0  0.28374  0.47724  0.05219  1.0000
  H   H247      1.0  0.41797  0.28317  0.02790  1.0000
  H   H248      1.0  0.31925  0.41852  0.77371  1.0000
  S   S96       1.0  0.25954  0.46484  0.45012  1.0000
  C   C253      1.0  0.43870  0.39018  0.28278  1.0000
  H   H249      1.0  0.26586  0.47021  0.52842  1.0000
  C   C254      1.0  0.45015  0.31914  0.12138  1.0000
  H   H250      1.0  0.29713  0.43110  0.07474  1.0000
  H   H251      1.0  0.27170  0.45882  0.94321  1.0000
  C   C255      1.0  0.27514  0.46588  0.51761  1.0000
  C   C256      1.0  0.47188  0.31190  0.01759  1.0000
  H   H252      1.0  0.44995  0.27002  0.44699  1.0000
  H   H253      1.0  0.42553  0.30828  0.06972  1.0000
  S   S97       1.0  0.46906  0.36075  0.38332  1.0000
  C   C257      1.0  0.43109  0.43420  0.97042  1.0000
  S   S98       1.0  0.46556  0.37675  0.46187  1.0000
  C   C258      1.0  0.43386  0.38984  0.21895  1.0000
  H   H254      1.0  0.45998  0.33082  0.10803  1.0000
  H   H255      1.0  0.40066  0.44548  0.00079  1.0000
  H   H256      1.0  0.43390  0.44611  0.55586  1.0000
  C   C259      1.0  0.45961  0.28473  0.96560  1.0000
  H   H257      1.0  0.45665  0.39548  0.18726  1.0000
  C   C260      1.0  0.25558  0.42853  0.02631  1.0000
  C   C261      1.0  0.28740  0.45720  0.46744  1.0000
  C   C262      1.0  0.42350  0.43585  0.03076  1.0000
  C   C263      1.0  0.43091  0.34065  0.52078  1.0000
  H   H258      1.0  0.44022  0.36678  0.54362  1.0000
  C   C264      1.0  0.28158  0.42358  0.02614  1.0000
  N   N24       1.0  0.25913  0.43456  0.06101  1.0000
  H   H259      1.0  0.43321  0.42323  0.06967  1.0000
  H   H260      1.0  0.42511  0.38735  0.19593  1.0000
  C   C265      1.0  0.24802  0.44154  0.07860  1.0000
  H   H261      1.0  0.41654  0.43976  0.05049  1.0000
  N   N25       1.0  0.35176  0.41067  0.81087  1.0000
  C   C266      1.0  0.35898  0.40770  0.78048  1.0000
  C   C267      1.0  0.33759  0.41441  0.80864  1.0000
  C   C268      1.0  0.35178  0.40809  0.74675  1.0000
  C   C269      1.0  0.33002  0.41484  0.77538  1.0000
  C   C270      1.0  0.33721  0.41170  0.74427  1.0000
  C   C271      1.0  0.36011  0.41122  0.84578  1.0000
  H   H262      1.0  0.43344  0.38774  0.30952  1.0000
  H   H263      1.0  0.46365  0.38432  0.32236  1.0000
  H   H264      1.0  0.45582  0.31759  0.14736  1.0000
  H   H265      1.0  0.43870  0.32175  0.12781  1.0000
  H   H266      1.0  0.23875  0.43854  0.54488  1.0000
  C   C272      1.0  0.41629  0.47704  0.47925  1.0000
  H   H267      1.0  0.46598  0.33557  0.58010  1.0000
  H   H268      1.0  0.24689  0.43861  0.10760  1.0000
  C   C273      1.0  0.47937  0.29982  0.01466  1.0000
  C   C274      1.0  0.47925  0.30976  0.50687  1.0000
  C   C275      1.0  0.47868  0.29303  0.51337  1.0000
  H   H269      1.0  0.33801  0.48147  0.51102  1.0000
  H   H270      1.0  0.47620  0.39998  0.23981  1.0000
  H   H271      1.0  0.40787  0.47696  0.45706  1.0000
  C   C276      1.0  0.43652  0.47676  0.53795  1.0000
  H   H272      1.0  0.46655  0.40664  0.32852  1.0000
  S   S99       1.0  0.26362  0.69539  0.06369  1.0000
  Fe  Fe51      1.0  0.30164  0.65258  0.92372  1.0000
  S   S100      1.0  0.29362  0.63231  0.87919  1.0000
  S   S101      1.0  0.28820  0.67073  0.92286  1.0000
  Fe  Fe52      1.0  0.33071  0.64334  0.95044  1.0000
  S   S102      1.0  0.32492  0.62244  0.90786  1.0000
  S   S103      1.0  0.35237  0.64653  0.99026  1.0000
  Fe  Fe53      1.0  0.32226  0.64171  0.87021  1.0000
  S   S104      1.0  0.33661  0.65014  0.81792  1.0000
  Fe  Fe54      1.0  0.29675  0.61465  0.92076  1.0000
  S   S105      1.0  0.27734  0.58589  0.92140  1.0000
  S   S106      1.0  0.33026  0.66329  0.91195  1.0000
  S   S107      1.0  0.30256  0.63423  0.96608  1.0000
  Fe  Fe55      1.0  0.44856  0.71874  0.02827  1.0000
  H   H273      1.0  0.36355  0.63230  0.92750  1.0000
  S   S108      1.0  0.42532  0.71356  0.99114  1.0000
  S   S109      1.0  0.45478  0.70007  0.06170  1.0000
  H   H274      1.0  0.47793  0.66341  0.44391  1.0000
  Fe  Fe56      1.0  0.44793  0.71525  0.43219  1.0000
  S   S110      1.0  0.46581  0.72414  0.48063  1.0000
  S   S111      1.0  0.41825  0.70219  0.43146  1.0000
  S   S112      1.0  0.46167  0.70048  0.40628  1.0000
  Fe  Fe57      1.0  0.31099  0.62537  0.53349  1.0000
  S   S113      1.0  0.32429  0.65408  0.51981  1.0000
  S   S114      1.0  0.30530  0.60371  0.49178  1.0000
  Fe  Fe58      1.0  0.31272  0.63289  0.61407  1.0000
  S   S115      1.0  0.32638  0.66190  0.60696  1.0000
  S   S116      1.0  0.30225  0.61850  0.66561  1.0000
  Fe  Fe59      1.0  0.30704  0.65742  0.56172  1.0000
  S   S117      1.0  0.29402  0.67590  0.56391  1.0000
  Fe  Fe60      1.0  0.34253  0.65627  0.56581  1.0000
  S   S118      1.0  0.37212  0.67117  0.56801  1.0000
  S   S119      1.0  0.29222  0.62857  0.57143  1.0000
  S   S120      1.0  0.33040  0.62739  0.57688  1.0000
  S   S121      1.0  0.25407  0.68835  0.43062  1.0000
  H   H275      1.0  0.25858  0.70119  0.50461  1.0000
  S   S122      1.0  0.46602  0.54986  0.87211  1.0000
  C   C277      1.0  0.23497  0.73639  0.27889  1.0000
  Fe  Fe61      1.0  0.47748  0.72610  0.37912  1.0000
  H   H276      1.0  0.31456  0.71305  0.02014  1.0000
  Fe  Fe62      1.0  0.24037  0.51309  0.06461  1.0000
  H   H277      1.0  0.45252  0.68745  0.50993  1.0000
  H   H278      1.0  0.40781  0.66791  0.93918  1.0000
  S   S123      1.0  0.24880  0.50391  0.42293  1.0000
  H   H279      1.0  0.37186  0.51598  0.52536  1.0000
  H   H280      1.0  0.34463  0.50295  0.49234  1.0000
  S   S124      1.0  0.25655  0.54255  0.06464  1.0000
  H   H281      1.0  0.39588  0.65544  0.43568  1.0000
  C   C278      1.0  0.39371  0.68952  0.88040  1.0000
  C   C279      1.0  0.41594  0.51440  0.55600  1.0000
  C   C280      1.0  0.42004  0.50893  0.58852  1.0000
  C   C281      1.0  0.43609  0.51910  0.60601  1.0000
  C   C282      1.0  0.44815  0.53468  0.59095  1.0000
  C   C283      1.0  0.44402  0.54015  0.55845  1.0000
  C   C284      1.0  0.42788  0.53007  0.54114  1.0000
  H   H282      1.0  0.31651  0.58992  0.55419  1.0000
  H   H283      1.0  0.43924  0.51485  0.63121  1.0000
  H   H284      1.0  0.45323  0.55218  0.54676  1.0000
  H   H285      1.0  0.42476  0.53435  0.51595  1.0000
  C   C285      1.0  0.33808  0.49457  0.51525  1.0000
  C   C286      1.0  0.42428  0.50957  0.94117  1.0000
  C   C287      1.0  0.42253  0.50835  0.90387  1.0000
  C   C288      1.0  0.43571  0.52047  0.88283  1.0000
  C   C289      1.0  0.45064  0.53381  0.89898  1.0000
  C   C290      1.0  0.45259  0.53469  0.93621  1.0000
  C   C291      1.0  0.43944  0.52258  0.95723  1.0000
  C   C292      1.0  0.47621  0.64782  0.98733  1.0000
  H   H286      1.0  0.43416  0.51972  0.85399  1.0000
  H   H287      1.0  0.46410  0.54482  0.94888  1.0000
  H   H288      1.0  0.44086  0.52353  0.98609  1.0000
  C   C293      1.0  0.28611  0.58399  0.49327  1.0000
  C   C294      1.0  0.27184  0.58275  0.51325  1.0000
  C   C295      1.0  0.25671  0.56683  0.51388  1.0000
  C   C296      1.0  0.25583  0.55198  0.49500  1.0000
  C   C297      1.0  0.27007  0.55320  0.47491  1.0000
  C   C298      1.0  0.28514  0.56921  0.47393  1.0000
  H   H289      1.0  0.27242  0.59409  0.52802  1.0000
  H   H290      1.0  0.24569  0.56596  0.52936  1.0000
  H   H291      1.0  0.26949  0.54184  0.46024  1.0000
  H   H292      1.0  0.29615  0.57014  0.45832  1.0000
  C   C299      1.0  0.28106  0.67745  0.52799  1.0000
  C   C300      1.0  0.27947  0.66840  0.49560  1.0000
  C   C301      1.0  0.27039  0.67124  0.46642  1.0000
  C   C302      1.0  0.26309  0.68331  0.46928  1.0000
  C   C303      1.0  0.26417  0.69190  0.50206  1.0000
  C   C304      1.0  0.27305  0.68889  0.53136  1.0000
  H   H293      1.0  0.28552  0.65949  0.49280  1.0000
  S   S125      1.0  0.25386  0.49703  0.08544  1.0000
  H   H294      1.0  0.27418  0.69588  0.55641  1.0000
  H   H295      1.0  0.29494  0.69704  0.41770  1.0000
  C   C305      1.0  0.40558  0.69552  0.47034  1.0000
  C   C306      1.0  0.41330  0.69765  0.50444  1.0000
  C   C307      1.0  0.40280  0.69071  0.53435  1.0000
  C   C308      1.0  0.38455  0.68150  0.53041  1.0000
  C   C309      1.0  0.37680  0.67978  0.49644  1.0000
  C   C310      1.0  0.38729  0.68680  0.46656  1.0000
  H   H296      1.0  0.42735  0.70439  0.50770  1.0000
  H   H297      1.0  0.40888  0.69216  0.56058  1.0000
  H   H298      1.0  0.36278  0.67274  0.49305  1.0000
  H   H299      1.0  0.38123  0.68513  0.44026  1.0000
  C   C311      1.0  0.46088  0.71716  0.27100  1.0000
  C   C312      1.0  0.45413  0.71409  0.23547  1.0000
  H   H300      1.0  0.45218  0.71204  0.29318  1.0000
  H   H301      1.0  0.44022  0.70661  0.23078  1.0000
  C   C313      1.0  0.27060  0.57460  0.96195  1.0000
  C   C314      1.0  0.27860  0.58216  0.99475  1.0000
  C   C315      1.0  0.27380  0.57231  0.02615  1.0000
  C   C316      1.0  0.26112  0.55480  0.02500  1.0000
  C   C317      1.0  0.25293  0.54732  0.99229  1.0000
  C   C318      1.0  0.25757  0.55724  0.96097  1.0000
  H   H302      1.0  0.28863  0.59552  0.99587  1.0000
  H   H303      1.0  0.28012  0.57824  0.05138  1.0000
  H   H304      1.0  0.24307  0.53390  0.99108  1.0000
  H   H305      1.0  0.25127  0.55133  0.93572  1.0000
  C   C319      1.0  0.32702  0.64090  0.77586  1.0000
  C   C320      1.0  0.33539  0.64909  0.74455  1.0000
  C   C321      1.0  0.32795  0.64239  0.71059  1.0000
  C   C322      1.0  0.31218  0.62727  0.70770  1.0000
  C   C323      1.0  0.30384  0.61902  0.73900  1.0000
  C   C324      1.0  0.31114  0.62588  0.77298  1.0000
  H   H306      1.0  0.34768  0.66071  0.74654  1.0000
  H   H307      1.0  0.33451  0.64884  0.68669  1.0000
  H   H308      1.0  0.29164  0.60731  0.73700  1.0000
  H   H309      1.0  0.30459  0.61944  0.79691  1.0000
  C   C325      1.0  0.37200  0.66597  0.99342  1.0000
  C   C326      1.0  0.38610  0.66610  0.01389  1.0000
  C   C327      1.0  0.40238  0.68090  0.01474  1.0000
  C   C328      1.0  0.40460  0.69571  0.99526  1.0000
  C   C329      1.0  0.39032  0.69579  0.97581  1.0000
  C   C330      1.0  0.37411  0.68094  0.97468  1.0000
  H   H310      1.0  0.38450  0.65459  0.02866  1.0000
  H   H311      1.0  0.41328  0.68072  0.02985  1.0000
  H   H312      1.0  0.39195  0.70725  0.96081  1.0000
  H   H313      1.0  0.36333  0.68104  0.95907  1.0000
  C   C331      1.0  0.27071  0.68888  0.02447  1.0000
  C   C332      1.0  0.26820  0.69462  0.99089  1.0000
  C   C333      1.0  0.27401  0.68925  0.96008  1.0000
  C   C334      1.0  0.28215  0.67791  0.96253  1.0000
  C   C335      1.0  0.28477  0.67223  0.99611  1.0000
  C   C336      1.0  0.27912  0.67777  0.02702  1.0000
  H   H314      1.0  0.27193  0.69366  0.93414  1.0000
  H   H315      1.0  0.29107  0.66351  0.99825  1.0000
  H   H316      1.0  0.28118  0.67334  0.05296  1.0000
  C   C337      1.0  0.30725  0.72760  0.52150  1.0000
  H   H317      1.0  0.42626  0.66097  0.55208  1.0000
  H   H318      1.0  0.31940  0.57284  0.57818  1.0000
  H   H319      1.0  0.29604  0.55379  0.04891  1.0000
  C   C338      1.0  0.41963  0.65921  0.52631  1.0000
  H   H320      1.0  0.37856  0.64410  0.49045  1.0000
  S   S126      1.0  0.25618  0.73727  0.08853  1.0000
  H   H321      1.0  0.24500  0.64854  0.94383  1.0000
  H   H322      1.0  0.31191  0.72840  0.54893  1.0000
  Fe  Fe63      1.0  0.24793  0.71129  0.05980  1.0000
  H   H323      1.0  0.32432  0.49286  0.51517  1.0000
  C   C339      1.0  0.40242  0.65583  0.46106  1.0000
  H   H324      1.0  0.40793  0.53661  0.99488  1.0000
  C   C340      1.0  0.26171  0.54247  0.34725  1.0000
  C   C341      1.0  0.37367  0.51925  0.58246  1.0000
  C   C342      1.0  0.46312  0.67429  0.12677  1.0000
  H   H325      1.0  0.47925  0.55766  0.72945  1.0000
  C   C343      1.0  0.47763  0.68031  0.10462  1.0000
  H   H326      1.0  0.45422  0.67492  0.47214  1.0000
  H   H327      1.0  0.27538  0.55038  0.33901  1.0000
  H   H328      1.0  0.23954  0.65594  0.06685  1.0000
  C   C344      1.0  0.39272  0.64953  0.49179  1.0000
  H   H329      1.0  0.30782  0.54030  0.04482  1.0000
  H   H330      1.0  0.41085  0.49838  0.89129  1.0000
  C   C345      1.0  0.44814  0.67395  0.49864  1.0000
  C   C346      1.0  0.30596  0.72651  0.05910  1.0000
  C   C347      1.0  0.30930  0.72257  0.02450  1.0000
  H   H331      1.0  0.32424  0.48899  0.58008  1.0000
  H   H332      1.0  0.23151  0.50565  0.19825  1.0000
  H   H333      1.0  0.42807  0.66946  0.43995  1.0000
  C   C348      1.0  0.40432  0.53488  0.93766  1.0000
  H   H334      1.0  0.39758  0.70244  0.86931  1.0000
  H   H335      1.0  0.38303  0.63149  0.91011  1.0000
  H   H336      1.0  0.26998  0.59047  0.41930  1.0000
  H   H337      1.0  0.33960  0.50008  0.63819  1.0000
  C   C349      1.0  0.23677  0.65150  0.99693  1.0000
  C   C350      1.0  0.46515  0.72054  0.20604  1.0000
  S   S127      1.0  0.47484  0.73057  0.00221  1.0000
  C   C351      1.0  0.30991  0.71651  0.49658  1.0000
  C   C352      1.0  0.30642  0.70337  0.43630  1.0000
  H   H338      1.0  0.24360  0.64460  0.00925  1.0000
  C   C353      1.0  0.36461  0.51286  0.54997  1.0000
  Fe  Fe64      1.0  0.23416  0.73211  0.38082  1.0000
  C   C354      1.0  0.29178  0.73559  0.47588  1.0000
  C   C355      1.0  0.23997  0.54295  0.38891  1.0000
  H   H339      1.0  0.45047  0.66531  0.11573  1.0000
  H   H340      1.0  0.31668  0.70880  0.50522  1.0000
  H   H341      1.0  0.28564  0.53142  0.06087  1.0000
  H   H342      1.0  0.27392  0.58625  0.63704  1.0000
  H   H343      1.0  0.38774  0.52707  0.58276  1.0000
  C   C356      1.0  0.33807  0.49782  0.58051  1.0000
  N   N26       1.0  0.34705  0.50227  0.54931  1.0000
  C   C357      1.0  0.30494  0.73029  0.99540  1.0000
  C   C358      1.0  0.42733  0.55728  0.90505  1.0000
  N   N27       1.0  0.30271  0.66370  0.75018  1.0000
  C   C359      1.0  0.31355  0.67586  0.72714  1.0000
  C   C360      1.0  0.28838  0.64939  0.73737  1.0000
  C   C361      1.0  0.31028  0.67371  0.69016  1.0000
  C   C362      1.0  0.28477  0.64681  0.70054  1.0000
  C   C363      1.0  0.29578  0.65908  0.67685  1.0000
  C   C364      1.0  0.30599  0.66647  0.78891  1.0000
  H   H344      1.0  0.32492  0.68719  0.73725  1.0000
  H   H345      1.0  0.27989  0.63965  0.75557  1.0000
  H   H346      1.0  0.31900  0.68321  0.67183  1.0000
  H   H347      1.0  0.27378  0.63514  0.69033  1.0000
  H   H348      1.0  0.29321  0.65715  0.64819  1.0000
  H   H349      1.0  0.29929  0.67417  0.79988  1.0000
  H   H350      1.0  0.30130  0.65376  0.80296  1.0000
  H   H351      1.0  0.32023  0.67347  0.79527  1.0000
  N   N28       1.0  0.29352  0.57065  0.57702  1.0000
  C   C365      1.0  0.28003  0.55462  0.56927  1.0000
  C   C366      1.0  0.29149  0.58179  0.60149  1.0000
  C   C367      1.0  0.26381  0.54963  0.58528  1.0000
  C   C368      1.0  0.27546  0.57722  0.61800  1.0000
  C   C369      1.0  0.26152  0.56108  0.60964  1.0000
  C   C370      1.0  0.31046  0.57570  0.56017  1.0000
  H   H352      1.0  0.28155  0.54580  0.54972  1.0000
  H   H353      1.0  0.30226  0.59436  0.60823  1.0000
  H   H354      1.0  0.25294  0.53721  0.57783  1.0000
  N   N29       1.0  0.38334  0.65673  0.91064  1.0000
  H   H355      1.0  0.46127  0.57861  0.91616  1.0000
  S   S128      1.0  0.46827  0.54684  0.61330  1.0000
  H   H356      1.0  0.25301  0.53938  0.32309  1.0000
  H   H357      1.0  0.30903  0.56873  0.53405  1.0000
  N   N30       1.0  0.28830  0.53567  0.00470  1.0000
  C   C371      1.0  0.27827  0.51844  0.99551  1.0000
  C   C372      1.0  0.29282  0.54833  0.97933  1.0000
  C   C373      1.0  0.27195  0.51359  0.96040  1.0000
  C   C374      1.0  0.28677  0.54395  0.94393  1.0000
  C   C375      1.0  0.27615  0.52647  0.93455  1.0000
  C   C376      1.0  0.29489  0.54052  0.04158  1.0000
  H   H358      1.0  0.27493  0.50832  0.01539  1.0000
  H   H359      1.0  0.30065  0.56202  0.98659  1.0000
  H   H360      1.0  0.26374  0.49992  0.95349  1.0000
  H   H361      1.0  0.28977  0.55418  0.92431  1.0000
  H   H362      1.0  0.27106  0.52296  0.90738  1.0000
  C   C377      1.0  0.26676  0.56849  0.38473  1.0000
  H   H363      1.0  0.26948  0.66446  0.44118  1.0000
  Fe  Fe65      1.0  0.46474  0.72202  0.10371  1.0000
  H   H364      1.0  0.46317  0.63730  0.98501  1.0000
  H   H365      1.0  0.41716  0.69717  0.91303  1.0000
  H   H366      1.0  0.27963  0.57533  0.37354  1.0000
  H   H367      1.0  0.46726  0.66669  0.00754  1.0000
  N   N31       1.0  0.25609  0.55157  0.37433  1.0000
  C   C378      1.0  0.41306  0.54268  0.96960  1.0000
  H   H368      1.0  0.39387  0.64726  0.54897  1.0000
  H   H369      1.0  0.26087  0.52988  0.35782  1.0000
  C   C379      1.0  0.37802  0.63939  0.92623  1.0000
  H   H370      1.0  0.26185  0.70322  0.98857  1.0000
  C   C380      1.0  0.24493  0.56847  0.42545  1.0000
  C   C381      1.0  0.42068  0.66383  0.46369  1.0000
  H   H371      1.0  0.31820  0.71108  0.42062  1.0000
  H   H372      1.0  0.37163  0.51924  0.63980  1.0000
  H   H373      1.0  0.42888  0.50522  0.48490  1.0000
  Fe  Fe66      1.0  0.24361  0.70902  0.43126  1.0000
  H   H374      1.0  0.38295  0.64061  0.95433  1.0000
  H   H375      1.0  0.45020  0.59210  0.92716  1.0000
  H   H376      1.0  0.39244  0.52272  0.93812  1.0000
  S   S129      1.0  0.23687  0.53215  0.49810  1.0000
  S   S130      1.0  0.24081  0.72019  0.00875  1.0000
  H   H377      1.0  0.45938  0.58391  0.96188  1.0000
  C   C382      1.0  0.40477  0.68653  0.90461  1.0000
  C   C383      1.0  0.42887  0.55781  0.96856  1.0000
  H   H378      1.0  0.43574  0.56362  0.99348  1.0000
  S   S131      1.0  0.45589  0.71488  0.16176  1.0000
  H   H379      1.0  0.23154  0.52954  0.38069  1.0000
  C   C384      1.0  0.29459  0.72435  0.45170  1.0000
  S   S132      1.0  0.39638  0.50155  0.53247  1.0000
  H   H380      1.0  0.36001  0.64892  0.87868  1.0000
  H   H381      1.0  0.40506  0.53587  0.88015  1.0000
  C   C385      1.0  0.39936  0.66994  0.91950  1.0000
  H   H382      1.0  0.43315  0.56256  0.87966  1.0000
  C   C386      1.0  0.41144  0.54222  0.90514  1.0000
  N   N32       1.0  0.43583  0.56484  0.93650  1.0000
  C   C387      1.0  0.45243  0.58062  0.93545  1.0000
  C   C388      1.0  0.26133  0.57720  0.41039  1.0000
  H   H383      1.0  0.23065  0.51702  0.25953  1.0000
  H   H384      1.0  0.36879  0.67797  0.85211  1.0000
  N   N33       1.0  0.30341  0.71486  0.46230  1.0000
  C   C389      1.0  0.37260  0.65944  0.88624  1.0000
  C   C390      1.0  0.34669  0.50406  0.61350  1.0000
  C   C391      1.0  0.37755  0.67588  0.87096  1.0000
  H   H385      1.0  0.44428  0.65908  0.18751  1.0000
  C   C392      1.0  0.36464  0.51477  0.61440  1.0000
  N   N34       1.0  0.42903  0.66518  0.49596  1.0000
  H   H386      1.0  0.45332  0.66661  0.51605  1.0000
  C   C393      1.0  0.40134  0.65127  0.52469  1.0000
  C   C394      1.0  0.23418  0.55120  0.41481  1.0000
  C   C395      1.0  0.43828  0.49279  0.52442  1.0000
  H   H387      1.0  0.41089  0.49685  0.60013  1.0000
  C   C396      1.0  0.44928  0.67345  0.18407  1.0000
  C   C397      1.0  0.42808  0.49288  0.49487  1.0000
  Fe  Fe67      1.0  0.23157  0.50815  0.46326  1.0000
  H   H388      1.0  0.43891  0.67643  0.17146  1.0000
  H   H389      1.0  0.28922  0.72287  0.42468  1.0000
  H   H390      1.0  0.24076  0.57488  0.44613  1.0000
  C   C398      1.0  0.47850  0.66454  0.00024  1.0000
  H   H391      1.0  0.30857  0.72005  0.08181  1.0000
  S   S133      1.0  0.40720  0.49615  0.96860  1.0000
  H   H392      1.0  0.44710  0.50508  0.53738  1.0000
  S   S134      1.0  0.23685  0.71995  0.48045  1.0000
  N   N35       1.0  0.46477  0.67994  0.16166  1.0000
  H   H393      1.0  0.45212  0.67996  0.21095  1.0000
  C   C399      1.0  0.23753  0.65361  0.95984  1.0000
  H   H394      1.0  0.30701  0.72665  0.96857  1.0000
  H   H395      1.0  0.24894  0.55750  0.62182  1.0000
  S   S135      1.0  0.25922  0.73555  0.40846  1.0000
  H   H396      1.0  0.47628  0.67596  0.07683  1.0000
  H   H397      1.0  0.30822  0.69258  0.44980  1.0000
  C   C400      1.0  0.29807  0.73716  0.51100  1.0000
  H   H398      1.0  0.47856  0.63446  0.45180  1.0000
  C   C401      1.0  0.47886  0.72657  0.27769  1.0000
  C   C402      1.0  0.29851  0.73821  0.06426  1.0000
  Fe  Fe68      1.0  0.36124  0.91315  0.54681  1.0000
  S   S136      1.0  0.38183  0.90944  0.57924  1.0000
  S   S137      1.0  0.36343  0.94030  0.52995  1.0000
  Fe  Fe69      1.0  0.33679  0.87268  0.54483  1.0000
  S   S138      1.0  0.35610  0.86672  0.57715  1.0000
  S   S139      1.0  0.31105  0.85219  0.51836  1.0000
  Fe  Fe70      1.0  0.35988  0.89023  0.61200  1.0000
  S   S140      1.0  0.36709  0.89026  0.67153  1.0000
  Fe  Fe71      1.0  0.37648  0.88631  0.54280  1.0000
  S   S141      1.0  0.39669  0.87947  0.51652  1.0000
  S   S142      1.0  0.33922  0.89528  0.58188  1.0000
  S   S143      1.0  0.35719  0.89106  0.50799  1.0000
  Fe  Fe72      1.0  0.37752  0.88099  0.91695  1.0000
  S   S144      1.0  0.37013  0.88497  0.97257  1.0000
  S   S145      1.0  0.39674  0.87026  0.90096  1.0000
  Fe  Fe73      1.0  0.35182  0.89206  0.88163  1.0000
  S   S146      1.0  0.34225  0.89689  0.93526  1.0000
  S   S147      1.0  0.33980  0.89533  0.82847  1.0000
  Fe  Fe74      1.0  0.37083  0.91052  0.95216  1.0000
  S   S148      1.0  0.38436  0.93509  0.98976  1.0000
  Fe  Fe75      1.0  0.34214  0.87105  0.95206  1.0000
  S   S149      1.0  0.32028  0.85110  0.98731  1.0000
  S   S150      1.0  0.38019  0.90712  0.89755  1.0000
  S   S151      1.0  0.34971  0.86562  0.89743  1.0000
  H   H399      1.0  0.45218  0.87631  0.03475  1.0000
  S   S152      1.0  0.26696  0.76905  0.00334  1.0000
  H   H400      1.0  0.47260  0.82477  0.58340  1.0000
  H   H401      1.0  0.29796  0.88532  0.93252  1.0000
  H   H402      1.0  0.28505  0.83070  0.93095  1.0000
  S   S153      1.0  0.27371  0.76840  0.48900  1.0000
  C   C403      1.0  0.38925  0.93506  0.65908  1.0000
  H   H403      1.0  0.39272  0.92716  0.67753  1.0000
  Fe  Fe76      1.0  0.25103  0.74673  0.45593  1.0000
  H   H404      1.0  0.36199  0.92227  0.67084  1.0000
  C   C404      1.0  0.47363  0.83559  0.63652  1.0000
  C   C405      1.0  0.41709  0.87817  0.92337  1.0000
  C   C406      1.0  0.42975  0.87311  0.91070  1.0000
  C   C407      1.0  0.44674  0.88058  0.92553  1.0000
  C   C408      1.0  0.45106  0.89297  0.95345  1.0000
  C   C409      1.0  0.43822  0.89754  0.96705  1.0000
  C   C410      1.0  0.42124  0.89018  0.95199  1.0000
  H   H405      1.0  0.42655  0.86378  0.88859  1.0000
  H   H406      1.0  0.45647  0.87686  0.91508  1.0000
  H   H407      1.0  0.44146  0.90702  0.98890  1.0000
  H   H408      1.0  0.41148  0.89408  0.96200  1.0000
  C   C411      1.0  0.30632  0.82802  0.99187  1.0000
  C   C412      1.0  0.30442  0.81542  0.96529  1.0000
  C   C413      1.0  0.29231  0.79763  0.96920  1.0000
  C   C414      1.0  0.28210  0.79190  0.00006  1.0000
  C   C415      1.0  0.28419  0.80445  0.02684  1.0000
  C   C416      1.0  0.29604  0.82230  0.02260  1.0000
  H   H409      1.0  0.31210  0.81943  0.94141  1.0000
  H   H410      1.0  0.29083  0.78823  0.94801  1.0000
  H   H411      1.0  0.27654  0.80046  0.05075  1.0000
  H   H412      1.0  0.29728  0.83178  0.04346  1.0000
  C   C417      1.0  0.39343  0.95873  0.99205  1.0000
  C   C418      1.0  0.40080  0.96754  0.02476  1.0000
  C   C419      1.0  0.39356  0.96895  0.96268  1.0000
  H   H413      1.0  0.40073  0.95990  0.04781  1.0000
  H   H414      1.0  0.38797  0.96255  0.93734  1.0000
  C   C420      1.0  0.28336  0.79167  0.49800  1.0000
  C   C421      1.0  0.29856  0.79924  0.52003  1.0000
  C   C422      1.0  0.30702  0.81757  0.52717  1.0000
  C   C423      1.0  0.30035  0.82872  0.51259  1.0000
  C   C424      1.0  0.28497  0.82110  0.49113  1.0000
  C   C425      1.0  0.27664  0.80281  0.48362  1.0000
  H   H415      1.0  0.30389  0.79086  0.53162  1.0000
  H   H416      1.0  0.31873  0.82308  0.54388  1.0000
  H   H417      1.0  0.27950  0.82945  0.47994  1.0000
  H   H418      1.0  0.26493  0.79732  0.46691  1.0000
  C   C426      1.0  0.35878  0.89121  0.71470  1.0000
  C   C427      1.0  0.34341  0.89326  0.71961  1.0000
  C   C428      1.0  0.33779  0.89450  0.75454  1.0000
  C   C429      1.0  0.34735  0.89357  0.78496  1.0000
  C   C430      1.0  0.36263  0.89139  0.77999  1.0000
  C   C431      1.0  0.36832  0.89030  0.74512  1.0000
  H   H419      1.0  0.33582  0.89385  0.69659  1.0000
  H   H420      1.0  0.32593  0.89614  0.75801  1.0000
  H   H421      1.0  0.37012  0.89061  0.80302  1.0000
  H   H422      1.0  0.38019  0.88868  0.74171  1.0000
  C   C432      1.0  0.41659  0.88611  0.54060  1.0000
  C   C433      1.0  0.41986  0.89655  0.57157  1.0000
  C   C434      1.0  0.43621  0.90288  0.58910  1.0000
  C   C435      1.0  0.44932  0.89859  0.57615  1.0000
  C   C436      1.0  0.44596  0.88767  0.54580  1.0000
  C   C437      1.0  0.42962  0.88153  0.52790  1.0000
  H   H423      1.0  0.40987  0.89990  0.58193  1.0000
  H   H424      1.0  0.43872  0.91123  0.61270  1.0000
  H   H425      1.0  0.45605  0.88431  0.53565  1.0000
  H   H426      1.0  0.42713  0.87336  0.50405  1.0000
  H   H427      1.0  0.47753  0.91346  0.43890  1.0000
  C   C438      1.0  0.38064  0.96020  0.51439  1.0000
  C   C439      1.0  0.39789  0.96239  0.51066  1.0000
  C   C440      1.0  0.37683  0.97447  0.50620  1.0000
  H   H428      1.0  0.40114  0.95165  0.51683  1.0000
  H   H429      1.0  0.42684  0.85729  0.99607  1.0000
  H   H430      1.0  0.46616  0.89094  0.81729  1.0000
  C   C441      1.0  0.32301  0.81779  0.44744  1.0000
  C   C442      1.0  0.45565  0.92389  0.50360  1.0000
  H   H431      1.0  0.44437  0.81833  0.93785  1.0000
  Fe  Fe77      1.0  0.24777  0.74610  0.03765  1.0000
  H   H432      1.0  0.31663  0.84283  0.39597  1.0000
  H   H433      1.0  0.29915  0.82550  0.41893  1.0000
  H   H434      1.0  0.31171  0.80666  0.43638  1.0000
  H   H435      1.0  0.29561  0.74564  0.52999  1.0000
  H   H436      1.0  0.46407  0.82128  0.96121  1.0000
  S   S154      1.0  0.45621  0.73959  0.07162  1.0000
  H   H437      1.0  0.30805  0.84733  0.43706  1.0000
  H   H438      1.0  0.27221  0.85962  0.97085  1.0000
  H   H439      1.0  0.46758  0.93850  0.55174  1.0000
  H   H440      1.0  0.46496  0.81312  0.48944  1.0000
  S   S155      1.0  0.46249  0.74025  0.40201  1.0000
  C   C443      1.0  0.47743  0.81253  0.49204  1.0000
  H   H441      1.0  0.46513  0.83526  0.92444  1.0000
  S   S156      1.0  0.23793  0.74397  0.32452  1.0000
  C   C444      1.0  0.46960  0.85156  0.99357  1.0000
  H   H442      1.0  0.36361  0.97307  0.50906  1.0000
  H   H443      1.0  0.42419  0.97991  0.49578  1.0000
  C   C445      1.0  0.46852  0.86422  0.01663  1.0000
  C   C446      1.0  0.47716  0.78755  0.37243  1.0000
  C   C447      1.0  0.44035  0.84305  0.97317  1.0000
  C   C448      1.0  0.40806  0.98610  0.02818  1.0000
  H   H444      1.0  0.44728  0.90841  0.45493  1.0000
  C   C449      1.0  0.43876  0.85544  0.99619  1.0000
  N   N36       1.0  0.44023  0.91150  0.86949  1.0000
  C   C450      1.0  0.45757  0.91659  0.87745  1.0000
  C   C451      1.0  0.43202  0.89927  0.84294  1.0000
  C   C452      1.0  0.46711  0.90925  0.85881  1.0000
  C   C453      1.0  0.44118  0.89167  0.82378  1.0000
  H   H445      1.0  0.27801  0.74344  0.96744  1.0000
  C   C454      1.0  0.43053  0.91973  0.88834  1.0000
  H   H446      1.0  0.33984  0.86170  0.45507  1.0000
  H   H447      1.0  0.42941  0.83522  0.95554  1.0000
  H   H448      1.0  0.43082  0.93104  0.87310  1.0000
  N   N37       1.0  0.32464  0.83451  0.44333  1.0000
  S   S157      1.0  0.47015  0.90847  0.59678  1.0000
  H   H449      1.0  0.41667  0.91017  0.89164  1.0000
  H   H450      1.0  0.34543  0.93863  0.59760  1.0000
  C   C455      1.0  0.37180  0.93224  0.65500  1.0000
  C   C456      1.0  0.29037  0.84328  0.91798  1.0000
  C   C457      1.0  0.30432  0.87536  0.88449  1.0000
  H   H451      1.0  0.41819  0.89503  0.83703  1.0000
  C   C458      1.0  0.34880  0.93839  0.62642  1.0000
  N   N38       1.0  0.36716  0.94160  0.63083  1.0000
  C   C459      1.0  0.47188  0.77621  0.34265  1.0000
  H   H452      1.0  0.40686  0.96709  0.59786  1.0000
  C   C460      1.0  0.40197  0.94759  0.63836  1.0000
  H   H453      1.0  0.41546  0.94955  0.64062  1.0000
  C   C461      1.0  0.33870  0.84849  0.45798  1.0000
  H   H454      1.0  0.33983  0.92525  0.63622  1.0000
  H   H455      1.0  0.34643  0.94859  0.64129  1.0000
  H   H456      1.0  0.47916  0.84875  0.68820  1.0000
  C   C462      1.0  0.34975  0.82893  0.48294  1.0000
  H   H457      1.0  0.31001  0.88805  0.87182  1.0000
  C   C463      1.0  0.37963  0.95438  0.61140  1.0000
  C   C464      1.0  0.39717  0.95740  0.61443  1.0000
  C   C465      1.0  0.29746  0.87372  0.91876  1.0000
  H   H458      1.0  0.37598  0.96200  0.59266  1.0000
  H   H459      1.0  0.46874  0.79314  0.38285  1.0000
  S   S158      1.0  0.47236  0.90293  0.97186  1.0000
  C   C466      1.0  0.45835  0.91651  0.47205  1.0000
  H   H460      1.0  0.29405  0.86601  0.98959  1.0000
  C   C467      1.0  0.47526  0.91927  0.46318  1.0000
  H   H461      1.0  0.36236  0.85701  0.49032  1.0000
  C   C468      1.0  0.31149  0.83767  0.42259  1.0000
  H   H462      1.0  0.45929  0.77287  0.32964  1.0000
  H   H463      1.0  0.33387  0.80145  0.47157  1.0000
  H   H464      1.0  0.35943  0.82684  0.49903  1.0000
  H   H465      1.0  0.29767  0.83309  0.87093  1.0000
  C   C469      1.0  0.33550  0.81474  0.46743  1.0000
  N   N39       1.0  0.29066  0.85784  0.93510  1.0000
  H   H466      1.0  0.31020  0.86196  0.84098  1.0000
  C   C470      1.0  0.30443  0.86069  0.86717  1.0000
  H   H467      1.0  0.43455  0.88181  0.80308  1.0000
  H   H468      1.0  0.29794  0.74720  0.94473  1.0000
  H   H469      1.0  0.28839  0.75468  0.03873  1.0000
  C   C471      1.0  0.28374  0.85663  0.97119  1.0000
  C   C472      1.0  0.24394  0.74843  0.25229  1.0000
  N   N40       1.0  0.45557  0.84109  0.97245  1.0000
  H   H470      1.0  0.27987  0.84337  0.98245  1.0000
  C   C473      1.0  0.29741  0.84452  0.88395  1.0000
  C   C474      1.0  0.41097  0.97849  0.49867  1.0000
  H   H471      1.0  0.29726  0.76375  0.97442  1.0000
  H   H472      1.0  0.47981  0.87285  0.03260  1.0000
  H   H473      1.0  0.44249  0.92143  0.51122  1.0000
  C   C475      1.0  0.35142  0.84592  0.47810  1.0000
  H   H474      1.0  0.46721  0.78558  0.47237  1.0000
  C   C476      1.0  0.45727  0.82835  0.94771  1.0000
  C   C477      1.0  0.45297  0.86609  0.01798  1.0000
  H   H475      1.0  0.43603  0.92425  0.91574  1.0000
  H   H476      1.0  0.46403  0.92606  0.89890  1.0000
  C   C478      1.0  0.45885  0.89674  0.83180  1.0000
  H   H477      1.0  0.24633  0.75411  0.19579  1.0000
  H   H478      1.0  0.25368  0.76136  0.26021  1.0000
  C   C479      1.0  0.46990  0.93355  0.52639  1.0000
  H   H479      1.0  0.45961  0.83133  0.63773  1.0000
  C   C480      1.0  0.23987  0.74429  0.21557  1.0000
  C   C481      1.0  0.40082  0.98752  0.96610  1.0000
  H   H480      1.0  0.28453  0.74285  0.46760  1.0000
  C   C482      1.0  0.29251  0.74935  0.97018  1.0000
  C   C483      1.0  0.29441  0.74577  0.03459  1.0000
  C   C484      1.0  0.47865  0.79683  0.48234  1.0000
  N   N41       1.0  0.29764  0.74177  0.00073  1.0000
  H   H481      1.0  0.29545  0.74100  0.09101  1.0000
  H   H482      1.0  0.47864  0.75974  0.30743  1.0000
  S   S159      1.0  0.50138  0.07610  0.46997  1.0000
  C   C485      1.0  0.69138  0.18630  0.71775  1.0000
  S   S160      1.0  0.50141  0.21357  0.91983  1.0000
  H   H483      1.0  0.71021  0.18332  0.60063  1.0000
  C   C486      1.0  0.48822  0.17106  0.60823  1.0000
  H   H484      1.0  0.48909  0.17304  0.97939  1.0000
  S   S161      1.0  0.50454  0.22138  0.58857  1.0000
  C   C487      1.0  0.69842  0.17442  0.71057  1.0000
  Fe  Fe78      1.0  0.59591  0.04513  0.03374  1.0000
  S   S162      1.0  0.57944  0.05220  0.07150  1.0000
  S   S163      1.0  0.58486  0.01588  0.01581  1.0000
  Fe  Fe79      1.0  0.62286  0.08469  0.02757  1.0000
  S   S164      1.0  0.60786  0.09356  0.06561  1.0000
  S   S165      1.0  0.64439  0.10382  0.99107  1.0000
  Fe  Fe80      1.0  0.60468  0.07031  0.09921  1.0000
  S   S166      1.0  0.60227  0.07339  0.15972  1.0000
  Fe  Fe81      1.0  0.58390  0.07471  0.03578  1.0000
  S   S167      1.0  0.56392  0.08364  0.01491  1.0000
  S   S168      1.0  0.62141  0.06227  0.06316  1.0000
  S   S169      1.0  0.59868  0.06667  0.99596  1.0000
  Fe  Fe82      1.0  0.57744  0.06020  0.39389  1.0000
  S   S170      1.0  0.58767  0.06428  0.45048  1.0000
  S   S171      1.0  0.55174  0.05828  0.37193  1.0000
  Fe  Fe83      1.0  0.60830  0.05566  0.36479  1.0000
  S   S172      1.0  0.62117  0.05901  0.41982  1.0000
  S   S173      1.0  0.61973  0.05096  0.31280  1.0000
  Fe  Fe84      1.0  0.59391  0.04120  0.43894  1.0000
  S   S174      1.0  0.58642  0.02018  0.48277  1.0000
  Fe  Fe85      1.0  0.61408  0.08177  0.42796  1.0000
  S   S175      1.0  0.63007  0.11064  0.44771  1.0000
  S   S176      1.0  0.58205  0.03633  0.38351  1.0000
  S   S177      1.0  0.60288  0.07919  0.37175  1.0000
  S   S178      1.0  0.69999  0.21294  0.89162  1.0000
  S   S179      1.0  0.69760  0.18598  0.98078  1.0000
  S   S180      1.0  0.69660  0.20972  0.55967  1.0000
  S   S181      1.0  0.70188  0.16908  0.51916  1.0000
  C   C488      1.0  0.52747  0.03124  0.49144  1.0000
  C   C489      1.0  0.65024  0.12660  0.46758  1.0000
  C   C490      1.0  0.66369  0.12237  0.47958  1.0000
  C   C491      1.0  0.67929  0.13549  0.49505  1.0000
  C   C492      1.0  0.68187  0.15311  0.49872  1.0000
  C   C493      1.0  0.66847  0.15735  0.48651  1.0000
  C   C494      1.0  0.65284  0.14423  0.47116  1.0000
  H   H485      1.0  0.66202  0.10896  0.47733  1.0000
  H   H486      1.0  0.68946  0.13193  0.50435  1.0000
  H   H487      1.0  0.67010  0.17075  0.48897  1.0000
  H   H488      1.0  0.64265  0.14779  0.46208  1.0000
  C   C495      1.0  0.57238  0.99709  0.48556  1.0000
  S   S182      1.0  0.71954  0.21923  0.48643  1.0000
  C   C496      1.0  0.65933  0.12668  0.98924  1.0000
  C   C497      1.0  0.66766  0.13344  0.95677  1.0000
  C   C498      1.0  0.67922  0.15144  0.95349  1.0000
  C   C499      1.0  0.68299  0.16302  0.98292  1.0000
  C   C500      1.0  0.67479  0.15622  0.01549  1.0000
  C   C501      1.0  0.66298  0.13828  0.01860  1.0000
  H   H489      1.0  0.66512  0.12468  0.93386  1.0000
  H   H490      1.0  0.68541  0.15628  0.92829  1.0000
  H   H491      1.0  0.67759  0.16492  0.03859  1.0000
  H   H492      1.0  0.65686  0.13342  0.04384  1.0000
  C   C502      1.0  0.60799  0.06741  0.20175  1.0000
  C   C503      1.0  0.61876  0.05873  0.20518  1.0000
  C   C504      1.0  0.62232  0.05384  0.23933  1.0000
  C   C505      1.0  0.61502  0.05739  0.27029  1.0000
  C   C506      1.0  0.60432  0.06611  0.26679  1.0000
  C   C507      1.0  0.60093  0.07116  0.23281  1.0000
  H   H493      1.0  0.62432  0.05578  0.18159  1.0000
  H   H494      1.0  0.63068  0.04716  0.24171  1.0000
  H   H495      1.0  0.59859  0.06894  0.29026  1.0000
  H   H496      1.0  0.59256  0.07783  0.23050  1.0000
  H   H497      1.0  0.48911  0.16384  0.63217  1.0000
  H   H498      1.0  0.50276  0.17426  0.85830  1.0000
  Fe  Fe86      1.0  0.72619  0.22136  0.86550  1.0000
  C   C508      1.0  0.48758  0.02719  0.02553  1.0000
  C   C509      1.0  0.49901  0.23304  0.71822  1.0000
  H   H499      1.0  0.55045  0.03548  0.54158  1.0000
  C   C510      1.0  0.72358  0.22815  0.69321  1.0000
  H   H500      1.0  0.55502  0.01820  0.52272  1.0000
  C   C511      1.0  0.51224  0.06339  0.07428  1.0000
  C   C512      1.0  0.51444  0.07337  0.04358  1.0000
  C   C513      1.0  0.53040  0.07968  0.02557  1.0000
  C   C514      1.0  0.54417  0.07607  0.03826  1.0000
  C   C515      1.0  0.54197  0.06631  0.06922  1.0000
  C   C516      1.0  0.52604  0.05993  0.08705  1.0000
  H   H501      1.0  0.50383  0.07607  0.03355  1.0000
  H   H502      1.0  0.53207  0.08731  0.00172  1.0000
  H   H503      1.0  0.55254  0.06372  0.07959  1.0000
  H   H504      1.0  0.52441  0.05227  0.11085  1.0000
  H   H505      1.0  0.59571  0.02657  0.09886  1.0000
  H   H506      1.0  0.53607  0.01549  0.39964  1.0000
  C   C517      1.0  0.51483  0.06973  0.44404  1.0000
  C   C518      1.0  0.53193  0.07388  0.45609  1.0000
  C   C519      1.0  0.54332  0.07003  0.43455  1.0000
  C   C520      1.0  0.53763  0.06216  0.40081  1.0000
  C   C521      1.0  0.52042  0.05767  0.38913  1.0000
  C   C522      1.0  0.50899  0.06133  0.41082  1.0000
  H   H507      1.0  0.53648  0.08042  0.48181  1.0000
  H   H508      1.0  0.55660  0.07358  0.44364  1.0000
  H   H509      1.0  0.51597  0.05151  0.36306  1.0000
  H   H510      1.0  0.49582  0.05802  0.40148  1.0000
  Fe  Fe87      1.0  0.71286  0.20788  0.94071  1.0000
  C   C523      1.0  0.58387  0.01552  0.10896  1.0000
  S   S183      1.0  0.49216  0.05394  0.09618  1.0000
  Fe  Fe88      1.0  0.71265  0.19907  0.52925  1.0000
  H   H511      1.0  0.53556  0.11508  0.43405  1.0000
  C   C524      1.0  0.48797  0.18825  0.84123  1.0000
  C   C525      1.0  0.58886  0.01400  0.20841  1.0000
  H   H512      1.0  0.56750  0.04052  0.50967  1.0000
  H   H513      1.0  0.55066  0.98974  0.98824  1.0000
  H   H514      1.0  0.68690  0.17315  0.59230  1.0000
  S   S184      1.0  0.49097  0.22961  0.99125  1.0000
  H   H515      1.0  0.70602  0.16118  0.66961  1.0000
  H   H516      1.0  0.49847  0.02890  0.04323  1.0000
  H   H517      1.0  0.55640  0.02002  0.45078  1.0000
  H   H518      1.0  0.52522  0.03619  0.51682  1.0000
  H   H519      1.0  0.57569  0.99703  0.54284  1.0000
  N   N42       1.0  0.61374  0.12189  0.96670  1.0000
  C   C526      1.0  0.60862  0.12429  0.00008  1.0000
  C   C527      1.0  0.62789  0.13490  0.95151  1.0000
  C   C528      1.0  0.61782  0.14004  0.01921  1.0000
  C   C529      1.0  0.63720  0.15094  0.96960  1.0000
  C   C530      1.0  0.63220  0.15344  0.00380  1.0000
  C   C531      1.0  0.60457  0.10508  0.94745  1.0000
  H   H520      1.0  0.59750  0.11392  0.01231  1.0000
  H   H521      1.0  0.63239  0.13272  0.92572  1.0000
  H   H522      1.0  0.61396  0.14169  0.04602  1.0000
  H   H523      1.0  0.64870  0.16108  0.95787  1.0000
  H   H524      1.0  0.63977  0.16557  0.01860  1.0000
  H   H525      1.0  0.61294  0.09792  0.94730  1.0000
  H   H526      1.0  0.59201  0.09661  0.96019  1.0000
  H   H527      1.0  0.60150  0.10719  0.91947  1.0000
  N   N43       1.0  0.58222  0.01801  0.14738  1.0000
  C   C532      1.0  0.57388  0.02784  0.15876  1.0000
  Fe  Fe89      1.0  0.49457  0.23238  0.88771  1.0000
  C   C533      1.0  0.71804  0.23493  0.72261  1.0000
  C   C534      1.0  0.57675  0.99322  0.00213  1.0000
  H   H528      1.0  0.49830  0.18487  0.61034  1.0000
  S   S185      1.0  0.50167  0.23391  0.82796  1.0000
  H   H529      1.0  0.49091  0.09591  0.34407  1.0000
  C   C535      1.0  0.69755  0.17334  0.61032  1.0000
  H   H530      1.0  0.69049  0.19019  0.74517  1.0000
  C   C536      1.0  0.58005  0.02369  0.22023  1.0000
  Fe  Fe90      1.0  0.72158  0.22723  0.58931  1.0000
  H   H531      1.0  0.71580  0.23585  0.78024  1.0000
  H   H532      1.0  0.49142  0.16530  0.58400  1.0000
  N   N44       1.0  0.51496  0.09467  0.35711  1.0000
  C   C537      1.0  0.52830  0.09240  0.34116  1.0000
  C   C538      1.0  0.51752  0.10285  0.38993  1.0000
  C   C539      1.0  0.54480  0.09862  0.35792  1.0000
  C   C540      1.0  0.53384  0.10923  0.40742  1.0000
  C   C541      1.0  0.54754  0.10707  0.39128  1.0000
  C   C542      1.0  0.49744  0.08707  0.34045  1.0000
  H   H533      1.0  0.52612  0.08523  0.31592  1.0000
  H   H534      1.0  0.63634  0.22335  0.49910  1.0000
  H   H535      1.0  0.55514  0.09614  0.34591  1.0000
  Fe  Fe91      1.0  0.70461  0.23062  0.51840  1.0000
  C   C543      1.0  0.48484  0.12720  0.13052  1.0000
  C   C544      1.0  0.68631  0.19381  0.68944  1.0000
  H   H536      1.0  0.49200  0.14642  0.99969  1.0000
  H   H537      1.0  0.48929  0.07431  0.35282  1.0000
  N   N45       1.0  0.65299  0.09410  0.35025  1.0000
  C   C545      1.0  0.64819  0.09301  0.31489  1.0000
  C   C546      1.0  0.65144  0.10633  0.37247  1.0000
  C   C547      1.0  0.64081  0.10372  0.30130  1.0000
  C   C548      1.0  0.64428  0.11739  0.35972  1.0000
  C   C549      1.0  0.63879  0.11594  0.32397  1.0000
  C   C550      1.0  0.66044  0.08252  0.36391  1.0000
  H   H538      1.0  0.64964  0.08346  0.29716  1.0000
  H   H539      1.0  0.65547  0.10744  0.40043  1.0000
  H   H540      1.0  0.63647  0.10233  0.27348  1.0000
  H   H541      1.0  0.64270  0.12675  0.37780  1.0000
  H   H542      1.0  0.63290  0.12420  0.31393  1.0000
  H   H543      1.0  0.65308  0.06898  0.35267  1.0000
  H   H544      1.0  0.67435  0.08754  0.35642  1.0000
  H   H545      1.0  0.65957  0.08150  0.39350  1.0000
  N   N46       1.0  0.54187  0.02806  0.48696  1.0000
  C   C551      1.0  0.54489  0.02232  0.45453  1.0000
  C   C552      1.0  0.68837  0.18933  0.65424  1.0000
  H   H546      1.0  0.48999  0.11735  0.18015  1.0000
  C   C553      1.0  0.51550  0.02837  0.46316  1.0000
  H   H547      1.0  0.50677  0.10392  0.40345  1.0000
  H   H548      1.0  0.60370  0.23541  0.00359  1.0000
  H   H549      1.0  0.69750  0.16020  0.60750  1.0000
  H   H550      1.0  0.57962  0.02631  0.24862  1.0000
  C   C554      1.0  0.53330  0.01950  0.42560  1.0000
  S   S186      1.0  0.71895  0.23308  0.64889  1.0000
  H   H551      1.0  0.50954  0.02060  0.40766  1.0000
  S   S187      1.0  0.48561  0.18341  0.52067  1.0000
  C   C555      1.0  0.49098  0.03591  0.99297  1.0000
  H   H552      1.0  0.70287  0.16893  0.73246  1.0000
  H   H553      1.0  0.49811  0.19715  0.82419  1.0000
  C   C556      1.0  0.51844  0.02239  0.43011  1.0000
  H   H554      1.0  0.56630  0.99227  0.42929  1.0000
  C   C557      1.0  0.58989  0.01134  0.17164  1.0000
  H   H555      1.0  0.60116  0.99200  0.01311  1.0000
  H   H556      1.0  0.61644  0.23294  0.46614  1.0000
  H   H557      1.0  0.56007  0.11133  0.40517  1.0000
  C   C558      1.0  0.70023  0.17017  0.67501  1.0000
  H   H558      1.0  0.56852  0.03387  0.13964  1.0000
  H   H559      1.0  0.50429  0.03127  0.46656  1.0000
  H   H560      1.0  0.68504  0.19579  0.63248  1.0000
  C   C559      1.0  0.49057  0.17545  0.86037  1.0000
  C   C560      1.0  0.55422  0.03072  0.51681  1.0000
  H   H561      1.0  0.50435  0.04418  0.98569  1.0000
  C   C561      1.0  0.49330  0.23163  0.78286  1.0000
  H   H562      1.0  0.56636  0.03892  0.20409  1.0000
  N   N47       1.0  0.69501  0.17744  0.64741  1.0000
  H   H563      1.0  0.49384  0.15445  0.50374  1.0000
  H   H564      1.0  0.68160  0.20369  0.69465  1.0000
  C   C562      1.0  0.57254  0.03069  0.19529  1.0000
  C   C563      1.0  0.63616  0.23582  0.50573  1.0000
  H   H565      1.0  0.59518  0.00897  0.22764  1.0000
  H   H566      1.0  0.58486  0.00305  0.10298  1.0000
  Fe  Fe92      1.0  0.48681  0.21017  0.53992  1.0000
  H   H567      1.0  0.57676  0.22900  0.96754  1.0000
  H   H568      1.0  0.50819  0.23570  0.69681  1.0000
  H   H569      1.0  0.49777  0.08474  0.31121  1.0000
  Fe  Fe93      1.0  0.48480  0.23033  0.60871  1.0000
  H   H570      1.0  0.57229  0.01488  0.09352  1.0000
  S   S188      1.0  0.72204  0.23563  0.96326  1.0000
  H   H571      1.0  0.59700  0.00404  0.16261  1.0000
  Fe  Fe94      1.0  0.51484  0.23613  0.95851  1.0000
  C   C564      1.0  0.72829  0.21944  0.76492  1.0000
  C   C565      1.0  0.72037  0.23065  0.75815  1.0000
  S   S189      1.0  0.68435  0.23553  0.48630  1.0000
  H   H572      1.0  0.49845  0.13351  0.12305  1.0000
  C   C566      1.0  0.50492  0.23490  0.75432  1.0000
  C   C567      1.0  0.56942  0.98912  0.51930  1.0000
  C   C568      1.0  0.48126  0.22771  0.70997  1.0000
  S   S190      1.0  0.49981  0.23534  0.50917  1.0000
  S   S191      1.0  0.51011  0.25549  0.92486  1.0000
  H   H573      1.0  0.56172  0.30282  0.45264  1.0000
  H   H574      1.0  0.68996  0.34745  0.49567  1.0000
  H   H575      1.0  0.54091  0.48504  0.95684  1.0000
  S   S192      1.0  0.49753  0.25679  0.58264  1.0000
  H   H576      1.0  0.72720  0.45133  0.79662  1.0000
  S   S193      1.0  0.54512  0.26480  0.56067  1.0000
  H   H577      1.0  0.71168  0.24344  0.71785  1.0000
  H   H578      1.0  0.55116  0.31565  0.97873  1.0000
  H   H579      1.0  0.55774  0.25808  0.43452  1.0000
  N   N48       1.0  0.65011  0.45358  0.46726  1.0000
  H   H580      1.0  0.51238  0.26684  0.01603  1.0000
  H   H581      1.0  0.69358  0.36250  0.15652  1.0000
  S   S194      1.0  0.71185  0.45794  0.90738  1.0000
  Fe  Fe95      1.0  0.64082  0.31323  0.11204  1.0000
  S   S195      1.0  0.66947  0.32243  0.10304  1.0000
  S   S196      1.0  0.62707  0.31030  0.16493  1.0000
  Fe  Fe96      1.0  0.63232  0.31149  0.03166  1.0000
  S   S197      1.0  0.66048  0.32081  0.01613  1.0000
  S   S198      1.0  0.61157  0.30732  0.98894  1.0000
  Fe  Fe97      1.0  0.66123  0.30225  0.05808  1.0000
  S   S199      1.0  0.67343  0.28308  0.05392  1.0000
  Fe  Fe98      1.0  0.66641  0.34023  0.06190  1.0000
  S   S200      1.0  0.68418  0.36938  0.06603  1.0000
  S   S201      1.0  0.63260  0.29155  0.07040  1.0000
  S   S202      1.0  0.63823  0.33240  0.07397  1.0000
  N   N49       1.0  0.61855  0.25975  0.97844  1.0000
  S   S203      1.0  0.71363  0.45250  0.56926  1.0000
  C   C569      1.0  0.53386  0.28780  0.44412  1.0000
  H   H582      1.0  0.48150  0.40195  0.30190  1.0000
  H   H583      1.0  0.69859  0.43803  0.97824  1.0000
  H   H584      1.0  0.50490  0.26886  0.40972  1.0000
  Fe  Fe99      1.0  0.62174  0.30251  0.42278  1.0000
  S   S204      1.0  0.63777  0.31805  0.46993  1.0000
  S   S205      1.0  0.59320  0.28276  0.42397  1.0000
  Fe  Fe100     1.0  0.65220  0.31743  0.37160  1.0000
  S   S206      1.0  0.67076  0.33424  0.41505  1.0000
  S   S207      1.0  0.66440  0.31816  0.31739  1.0000
  Fe  Fe101     1.0  0.65863  0.31077  0.44969  1.0000
  S   S208      1.0  0.67595  0.30633  0.49117  1.0000
  Fe  Fe102     1.0  0.64889  0.34054  0.43216  1.0000
  S   S209      1.0  0.65245  0.36734  0.45257  1.0000
  S   S210      1.0  0.64180  0.29324  0.40529  1.0000
  S   S211      1.0  0.63105  0.32561  0.38597  1.0000
  H   H585      1.0  0.64307  0.27748  0.00188  1.0000
  Fe  Fe103     1.0  0.51599  0.24677  0.55900  1.0000
  S   S212      1.0  0.56645  0.44918  0.07764  1.0000
  H   H586      1.0  0.63148  0.25829  0.02702  1.0000
  S   S213      1.0  0.56909  0.45264  0.45556  1.0000
  C   C570      1.0  0.51453  0.42274  0.40461  1.0000
  C   C571      1.0  0.52655  0.43834  0.38958  1.0000
  C   C572      1.0  0.54346  0.44736  0.40450  1.0000
  C   C573      1.0  0.54848  0.44079  0.43451  1.0000
  C   C574      1.0  0.53655  0.42507  0.44932  1.0000
  C   C575      1.0  0.51958  0.41606  0.43445  1.0000
  H   H587      1.0  0.52271  0.44357  0.36651  1.0000
  H   H588      1.0  0.55255  0.45947  0.39292  1.0000
  H   H589      1.0  0.54034  0.41994  0.47261  1.0000
  H   H590      1.0  0.51039  0.40403  0.44618  1.0000
  C   C576      1.0  0.50820  0.42491  0.04827  1.0000
  C   C577      1.0  0.51608  0.41442  0.06055  1.0000
  C   C578      1.0  0.53387  0.42210  0.07061  1.0000
  C   C579      1.0  0.54382  0.44030  0.06864  1.0000
  C   C580      1.0  0.53576  0.45090  0.05799  1.0000
  C   C581      1.0  0.51799  0.44319  0.04764  1.0000
  H   H591      1.0  0.50864  0.40032  0.06105  1.0000
  H   H592      1.0  0.54005  0.41386  0.07904  1.0000
  H   H593      1.0  0.54330  0.46496  0.05691  1.0000
  H   H594      1.0  0.51190  0.45138  0.03843  1.0000
  C   C582      1.0  0.67952  0.28735  0.48755  1.0000
  C   C583      1.0  0.69073  0.28475  0.51240  1.0000
  C   C584      1.0  0.69277  0.26908  0.51175  1.0000
  C   C585      1.0  0.68350  0.25594  0.48636  1.0000
  C   C586      1.0  0.67260  0.25872  0.46108  1.0000
  C   C587      1.0  0.67068  0.27442  0.46153  1.0000
  H   H595      1.0  0.69755  0.29471  0.53268  1.0000
  H   H596      1.0  0.70112  0.26697  0.53144  1.0000
  C   C588      1.0  0.65549  0.35418  0.22014  1.0000
  H   H597      1.0  0.66203  0.27630  0.44230  1.0000
  C   C589      1.0  0.70690  0.40944  0.48470  1.0000
  C   C590      1.0  0.70511  0.39433  0.46566  1.0000
  C   C591      1.0  0.68853  0.38164  0.45456  1.0000
  C   C592      1.0  0.67358  0.38394  0.46255  1.0000
  C   C593      1.0  0.67540  0.39936  0.48055  1.0000
  C   C594      1.0  0.69203  0.41210  0.49163  1.0000
  H   H598      1.0  0.71659  0.39229  0.45993  1.0000
  H   H599      1.0  0.68736  0.37002  0.44019  1.0000
  H   H600      1.0  0.66389  0.40125  0.48665  1.0000
  H   H601      1.0  0.69331  0.42376  0.50618  1.0000
  C   C595      1.0  0.67908  0.27603  0.01344  1.0000
  C   C596      1.0  0.67934  0.28427  0.98107  1.0000
  C   C597      1.0  0.68466  0.27870  0.94973  1.0000
  C   C598      1.0  0.68996  0.26505  0.95059  1.0000
  C   C599      1.0  0.68960  0.25678  0.98292  1.0000
  C   C600      1.0  0.68409  0.26221  0.01415  1.0000
  H   H602      1.0  0.67569  0.29506  0.98026  1.0000
  H   H603      1.0  0.68493  0.28516  0.92477  1.0000
  H   H604      1.0  0.50047  0.42592  0.95303  1.0000
  H   H605      1.0  0.48747  0.32082  0.52378  1.0000
  C   C601      1.0  0.63724  0.31120  0.20711  1.0000
  C   C602      1.0  0.65448  0.31324  0.21016  1.0000
  C   C603      1.0  0.66242  0.31486  0.24420  1.0000
  C   C604      1.0  0.65327  0.31452  0.27546  1.0000
  C   C605      1.0  0.63601  0.31241  0.27242  1.0000
  C   C606      1.0  0.62803  0.31071  0.23838  1.0000
  H   H606      1.0  0.66170  0.31363  0.18633  1.0000
  H   H607      1.0  0.67578  0.31650  0.24632  1.0000
  H   H608      1.0  0.62884  0.31217  0.29628  1.0000
  H   H609      1.0  0.61469  0.30914  0.23626  1.0000
  C   C607      1.0  0.70870  0.40284  0.96830  1.0000
  C   C608      1.0  0.69957  0.38452  0.96444  1.0000
  C   C609      1.0  0.69229  0.37403  0.99426  1.0000
  C   C610      1.0  0.69423  0.38182  0.02825  1.0000
  C   C611      1.0  0.70378  0.40008  0.03226  1.0000
  C   C612      1.0  0.71095  0.41057  0.00242  1.0000
  H   H610      1.0  0.69786  0.37844  0.93815  1.0000
  H   H611      1.0  0.68504  0.35998  0.99086  1.0000
  H   H612      1.0  0.70545  0.40618  0.05852  1.0000
  C   C613      1.0  0.67374  0.48282  0.02399  1.0000
  H   H613      1.0  0.48994  0.30110  0.03277  1.0000
  C   C614      1.0  0.55852  0.26891  0.52283  1.0000
  C   C615      1.0  0.57595  0.28165  0.52557  1.0000
  C   C616      1.0  0.58674  0.28605  0.49556  1.0000
  C   C617      1.0  0.58022  0.27762  0.46256  1.0000
  C   C618      1.0  0.56287  0.26472  0.45993  1.0000
  C   C619      1.0  0.55203  0.26040  0.48988  1.0000
  H   H614      1.0  0.58103  0.28832  0.55097  1.0000
  H   H615      1.0  0.60003  0.29607  0.49792  1.0000
  C   C620      1.0  0.52565  0.27706  0.01745  1.0000
  S   S214      1.0  0.69730  0.25899  0.91103  1.0000
  C   C621      1.0  0.55887  0.25886  0.98981  1.0000
  C   C622      1.0  0.57180  0.26110  0.01584  1.0000
  C   C623      1.0  0.58783  0.27611  0.01636  1.0000
  C   C624      1.0  0.59115  0.28890  0.99051  1.0000
  C   C625      1.0  0.57818  0.28672  0.96455  1.0000
  C   C626      1.0  0.56201  0.27179  0.96432  1.0000
  H   H616      1.0  0.50372  0.27659  0.50795  1.0000
  H   H617      1.0  0.59769  0.27764  0.03644  1.0000
  H   H618      1.0  0.58069  0.29656  0.94439  1.0000
  H   H619      1.0  0.55213  0.27015  0.94412  1.0000
  H   H620      1.0  0.67802  0.41408  0.92944  1.0000
  N   N50       1.0  0.57159  0.46419  0.23867  1.0000
  C   C627      1.0  0.58910  0.47116  0.23197  1.0000
  C   C628      1.0  0.55957  0.45835  0.21105  1.0000
  C   C629      1.0  0.59494  0.47235  0.19686  1.0000
  C   C630      1.0  0.56496  0.45922  0.17563  1.0000
  C   C631      1.0  0.58276  0.46627  0.16862  1.0000
  C   C632      1.0  0.56551  0.46343  0.27541  1.0000
  H   H621      1.0  0.54571  0.45309  0.21631  1.0000
  C   C633      1.0  0.58863  0.24074  0.96283  1.0000
  H   H622      1.0  0.69349  0.24616  0.98388  1.0000
  H   H623      1.0  0.60882  0.47846  0.19151  1.0000
  H   H624      1.0  0.63031  0.28345  0.94925  1.0000
  H   H625      1.0  0.72860  0.30406  0.46238  1.0000
  C   C634      1.0  0.64747  0.26293  0.54012  1.0000
  H   H626      1.0  0.55955  0.47277  0.27900  1.0000
  N   N51       1.0  0.54015  0.45983  0.96844  1.0000
  H   H627      1.0  0.67756  0.39542  0.57523  1.0000
  C   C635      1.0  0.54952  0.45064  0.97742  1.0000
  C   C636      1.0  0.72130  0.29606  0.03111  1.0000
  C   C637      1.0  0.54153  0.43229  0.97738  1.0000
  H   H628      1.0  0.65652  0.27168  0.56015  1.0000
  H   H629      1.0  0.61806  0.27730  0.47588  1.0000
  C   C638      1.0  0.58867  0.25247  0.93684  1.0000
  H   H630      1.0  0.72815  0.39610  0.56356  1.0000
  C   C639      1.0  0.66264  0.38873  0.95121  1.0000
  H   H631      1.0  0.67676  0.47724  0.04755  1.0000
  H   H632      1.0  0.69576  0.45738  0.68239  1.0000
  H   H633      1.0  0.48629  0.29139  0.53525  1.0000
  C   C640      1.0  0.72553  0.29105  0.45160  1.0000
  S   S215      1.0  0.53924  0.23953  0.98987  1.0000
  N   N52       1.0  0.53768  0.27582  0.04064  1.0000
  C   C641      1.0  0.55431  0.28894  0.04301  1.0000
  H   H634      1.0  0.67698  0.45972  0.45842  1.0000
  H   H635      1.0  0.56310  0.45744  0.98599  1.0000
  H   H636      1.0  0.54361  0.25725  0.06909  1.0000
  H   H637      1.0  0.64902  0.36520  0.98119  1.0000
  C   C642      1.0  0.51440  0.43279  0.95877  1.0000
  H   H638      1.0  0.71264  0.24385  0.41668  1.0000
  S   S216      1.0  0.48687  0.41546  0.02965  1.0000
  N   N53       1.0  0.68858  0.36576  0.53422  1.0000
  N   N54       1.0  0.62546  0.25748  0.49432  1.0000
  H   H639      1.0  0.54884  0.42512  0.98606  1.0000
  H   H640      1.0  0.61220  0.25890  0.44623  1.0000
  H   H641      1.0  0.66541  0.24857  0.44138  1.0000
  C   C643      1.0  0.56396  0.48712  0.52335  1.0000
  H   H642      1.0  0.71354  0.30287  0.03917  1.0000
  C   C644      1.0  0.53029  0.29140  0.99493  1.0000
  C   C645      1.0  0.52277  0.45114  0.95937  1.0000
  C   C646      1.0  0.65863  0.38844  0.01496  1.0000
  H   H643      1.0  0.66115  0.38182  0.92585  1.0000
  H   H644      1.0  0.65208  0.48581  0.04846  1.0000
  Fe  Fe104     1.0  0.71069  0.24079  0.91291  1.0000
  C   C647      1.0  0.54733  0.30461  0.99648  1.0000
  H   H645      1.0  0.66953  0.34867  0.49683  1.0000
  C   C648      1.0  0.60381  0.26783  0.93174  1.0000
  C   C649      1.0  0.64776  0.45977  0.43492  1.0000
  H   H646      1.0  0.52067  0.29213  0.97630  1.0000
  H   H647      1.0  0.60825  0.46003  0.44844  1.0000
  C   C650      1.0  0.51636  0.28259  0.49558  1.0000
  C   C651      1.0  0.65587  0.37942  0.98225  1.0000
  H   H648      1.0  0.55576  0.44997  0.28155  1.0000
  C   C652      1.0  0.54856  0.47905  0.97102  1.0000
  C   C653      1.0  0.68511  0.43478  0.98697  1.0000
  H   H649      1.0  0.70974  0.41010  0.58614  1.0000
  C   C654      1.0  0.52232  0.48227  0.45292  1.0000
  C   C655      1.0  0.72635  0.29640  0.99557  1.0000
  H   H650      1.0  0.55004  0.48343  0.99954  1.0000
  C   C656      1.0  0.71406  0.38949  0.55991  1.0000
  C   C657      1.0  0.68566  0.38917  0.56632  1.0000
  Fe  Fe105     1.0  0.58541  0.47967  0.43458  1.0000
  H   H651      1.0  0.57283  0.31349  0.02184  1.0000
  H   H652      1.0  0.68393  0.25578  0.03909  1.0000
  H   H653      1.0  0.54104  0.45795  0.49035  1.0000
  C   C658      1.0  0.70370  0.39738  0.57255  1.0000
  Fe  Fe106     1.0  0.48524  0.24808  0.95566  1.0000
  Fe  Fe107     1.0  0.72111  0.47617  0.95552  1.0000
  C   C659      1.0  0.71238  0.28387  0.42518  1.0000
  H   H654      1.0  0.51702  0.45491  0.44843  1.0000
  C   C660      1.0  0.66811  0.40671  0.01614  1.0000
  H   H655      1.0  0.53002  0.29316  0.54574  1.0000
  H   H656      1.0  0.57683  0.24989  0.92141  1.0000
  H   H657      1.0  0.49331  0.27744  0.43829  1.0000
  C   C661      1.0  0.69966  0.47003  0.69579  1.0000
  C   C662      1.0  0.68054  0.34912  0.51397  1.0000
  H   H658      1.0  0.63955  0.35028  0.17227  1.0000
  H   H659      1.0  0.72398  0.43928  0.73453  1.0000
  Fe  Fe108     1.0  0.58323  0.47787  0.06803  1.0000
  H   H660      1.0  0.56172  0.48445  0.95903  1.0000
  C   C663      1.0  0.54895  0.29751  0.46476  1.0000
  H   H661      1.0  0.71814  0.42462  0.00583  1.0000
  N   N55       1.0  0.51782  0.28053  0.45963  1.0000
  C   C664      1.0  0.65258  0.35368  0.18313  1.0000
  H   H662      1.0  0.68328  0.35202  0.28021  1.0000
  C   C665      1.0  0.66575  0.45069  0.47416  1.0000
  H   H663      1.0  0.64457  0.35133  0.23771  1.0000
  C   C666      1.0  0.63756  0.44931  0.49268  1.0000
  C   C667      1.0  0.52384  0.42334  0.96802  1.0000
  C   C668      1.0  0.70623  0.37352  0.54088  1.0000
  C   C669      1.0  0.67213  0.40699  0.95339  1.0000
  H   H664      1.0  0.61246  0.44841  0.50655  1.0000
  H   H665      1.0  0.69733  0.26093  0.39245  1.0000
  H   H666      1.0  0.53513  0.28597  0.41575  1.0000
  S   S217      1.0  0.71614  0.41559  0.92962  1.0000
  N   N56       1.0  0.67469  0.41572  0.98555  1.0000
  H   H667      1.0  0.67560  0.33792  0.53248  1.0000
  C   C670      1.0  0.72559  0.28622  0.05580  1.0000
  H   H668      1.0  0.52797  0.26367  0.08997  1.0000
  N   N57       1.0  0.67169  0.35750  0.23388  1.0000
  C   C671      1.0  0.68532  0.36059  0.21156  1.0000
  H   H669      1.0  0.68089  0.37235  0.28221  1.0000
  C   C672      1.0  0.66637  0.35675  0.16021  1.0000
  C   C673      1.0  0.53252  0.26072  0.06415  1.0000
  H   H670      1.0  0.55917  0.30664  0.51802  1.0000
  C   C674      1.0  0.53117  0.29214  0.51702  1.0000
  C   C675      1.0  0.67472  0.35847  0.27273  1.0000
  H   H671      1.0  0.69814  0.36319  0.22246  1.0000
  C   C676      1.0  0.63450  0.26319  0.99932  1.0000
  H   H672      1.0  0.51726  0.40914  0.96940  1.0000
  C   C677      1.0  0.68286  0.36024  0.17439  1.0000
  H   H673      1.0  0.66425  0.35623  0.13146  1.0000
  H   H674      1.0  0.60382  0.27730  0.91237  1.0000
  H   H675      1.0  0.51515  0.45837  0.95357  1.0000
  H   H676      1.0  0.66431  0.36724  0.54113  1.0000
  Fe  Fe109     1.0  0.72813  0.44535  0.93112  1.0000
  H   H677      1.0  0.67002  0.45343  0.50276  1.0000
  H   H678      1.0  0.68608  0.44048  0.01432  1.0000
  H   H679      1.0  0.52190  0.24886  0.05145  1.0000
  C   C678      1.0  0.54754  0.29970  0.50143  1.0000
  H   H680      1.0  0.70534  0.29119  0.41576  1.0000
  H   H681      1.0  0.53866  0.25056  0.48744  1.0000
  H   H682      1.0  0.66234  0.35140  0.28725  1.0000
  H   H683      1.0  0.57642  0.46727  0.29547  1.0000
  Fe  Fe110     1.0  0.72204  0.47922  0.54521  1.0000
  S   S218      1.0  0.70231  0.47998  0.99530  1.0000
  H   H684      1.0  0.56387  0.28799  0.06139  1.0000
  C   C679      1.0  0.71649  0.25732  0.42556  1.0000
  H   H685      1.0  0.63122  0.46776  0.40257  1.0000
  S   S219      1.0  0.49322  0.41244  0.38592  1.0000
  H   H686      1.0  0.69546  0.45893  0.74851  1.0000
  H   H687      1.0  0.55546  0.45459  0.15361  1.0000
  H   H688      1.0  0.66309  0.43694  0.46710  1.0000
  H   H689      1.0  0.63940  0.44438  0.51826  1.0000
  C   C680      1.0  0.61872  0.27129  0.95291  1.0000
  H   H690      1.0  0.67062  0.41354  0.04182  1.0000
  C   C681      1.0  0.62231  0.45154  0.48627  1.0000
  C   C682      1.0  0.50197  0.27059  0.43794  1.0000
  H   H691      1.0  0.65407  0.38123  0.03943  1.0000
  C   C683      1.0  0.63268  0.46214  0.42765  1.0000
  C   C684      1.0  0.70520  0.48707  0.75070  1.0000
  C   C685      1.0  0.65969  0.48765  0.02461  1.0000
  C   C686      1.0  0.55943  0.30346  0.02080  1.0000
  C   C687      1.0  0.61343  0.26283  0.47500  1.0000
  H   H692      1.0  0.58707  0.46715  0.14128  1.0000
  H   H693      1.0  0.65780  0.46345  0.41493  1.0000
  H   H694      1.0  0.67927  0.44135  0.96908  1.0000
  H   H695      1.0  0.72125  0.28543  0.08315  1.0000
  H   H696      1.0  0.71442  0.36767  0.53050  1.0000
  H   H697      1.0  0.69213  0.47980  0.62601  1.0000
  C   C688      1.0  0.61991  0.45803  0.45355  1.0000
  H   H698      1.0  0.60026  0.25677  0.48693  1.0000
  H   H699      1.0  0.56944  0.25111  0.03559  1.0000
  H   H700      1.0  0.49461  0.25731  0.44910  1.0000
  C   C689      1.0  0.67826  0.37325  0.54702  1.0000
  C   C690      1.0  0.63637  0.26817  0.52063  1.0000
  H   H701      1.0  0.59868  0.47639  0.25370  1.0000
  S   S220      1.0  0.60470  0.48441  0.39108  1.0000
  H   H702      1.0  0.72250  0.30364  0.97629  1.0000
  C   C691      1.0  0.68403  0.48531  0.99341  1.0000
  H   H703      1.0  0.63682  0.28100  0.52624  1.0000
  C   C692      1.0  0.60382  0.24456  0.98338  1.0000
  C   C693      1.0  0.70788  0.26689  0.41210  1.0000
  C   C694      1.0  0.64737  0.24666  0.53251  1.0000
  C   C695      1.0  0.69942  0.47081  0.73317  1.0000
  S   S221      1.0  0.48273  0.27064  0.98790  1.0000
  H   H704      1.0  0.64196  0.25674  0.98620  1.0000
  S   S222      1.0  0.72815  0.24928  0.54979  1.0000
  S   S223      1.0  0.72776  0.42388  0.50168  1.0000
  H   H705      1.0  0.71033  0.47406  0.62876  1.0000
  C   C696      1.0  0.62513  0.24143  0.48693  1.0000
  C   C697      1.0  0.70553  0.48382  0.63729  1.0000
  Fe  Fe111     1.0  0.48057  0.24408  0.53412  1.0000
  C   C698      1.0  0.72963  0.26495  0.45180  1.0000
  S   S224      1.0  0.69803  0.48563  0.54314  1.0000
  C   C699      1.0  0.53887  0.46940  0.48432  1.0000
  H   H706      1.0  0.56946  0.47779  0.51539  1.0000
  C   C700      1.0  0.52519  0.46759  0.46076  1.0000
  N   N58       1.0  0.70552  0.48505  0.67642  1.0000
  H   H707      1.0  0.65635  0.24267  0.54652  1.0000
  H   H708      1.0  0.55936  0.48457  0.55122  1.0000
  H   H709      1.0  0.70574  0.48788  0.77975  1.0000
  C   C701      1.0  0.72995  0.45335  0.73907  1.0000
  N   N59       1.0  0.54952  0.48541  0.49921  1.0000
  H   H710      1.0  0.51195  0.48112  0.43424  1.0000
  H   H711      1.0  0.66508  0.48760  0.54914  1.0000
  S   S225      1.0  0.61132  0.48796  0.08589  1.0000
  H   H712      1.0  0.51868  0.23900  0.76016  1.0000
  C   C702      1.0  0.49921  0.67091  0.52439  1.0000
  H   H713      1.0  0.54281  0.57480  0.72958  1.0000
  C   C703      1.0  0.59336  0.51123  0.20762  1.0000
  S   S226      1.0  0.49916  0.69974  0.02094  1.0000
  C   C704      1.0  0.56380  0.62582  0.48159  1.0000
  H   H714      1.0  0.58516  0.50969  0.18417  1.0000
  H   H715      1.0  0.50510  0.68108  0.54476  1.0000
  N   N60       1.0  0.57915  0.60872  0.95960  1.0000
  C   C705      1.0  0.67996  0.53574  0.02093  1.0000
  Fe  Fe112     1.0  0.48912  0.57008  0.58620  1.0000
  C   C706      1.0  0.51323  0.73563  0.96161  1.0000
  H   H716      1.0  0.67846  0.53947  0.99387  1.0000
  Fe  Fe113     1.0  0.61810  0.50190  0.03387  1.0000
  S   S227      1.0  0.61610  0.52607  0.05559  1.0000
  N   N61       1.0  0.50246  0.56448  0.76142  1.0000
  H   H717      1.0  0.50185  0.57450  0.81365  1.0000
  H   H718      1.0  0.65136  0.53899  0.10252  1.0000
  Fe  Fe114     1.0  0.58739  0.51322  0.03915  1.0000
  S   S228      1.0  0.57204  0.52276  0.99996  1.0000
  S   S229      1.0  0.65153  0.50637  0.43155  1.0000
  H   H719      1.0  0.51051  0.72196  0.95694  1.0000
  H   H720      1.0  0.50786  0.70757  0.16465  1.0000
  S   S230      1.0  0.48665  0.62291  0.96161  1.0000
  Fe  Fe115     1.0  0.50146  0.60789  0.93718  1.0000
  S   S231      1.0  0.49487  0.59877  0.87948  1.0000
  C   C707      1.0  0.51997  0.56873  0.76161  1.0000
  Fe  Fe116     1.0  0.52183  0.58468  0.94757  1.0000
  S   S232      1.0  0.51628  0.57419  0.89104  1.0000
  S   S233      1.0  0.53800  0.57776  0.98956  1.0000
  Fe  Fe117     1.0  0.52227  0.60173  0.87521  1.0000
  S   S234      1.0  0.54060  0.61239  0.82857  1.0000
  Fe  Fe118     1.0  0.48919  0.57190  0.89918  1.0000
  S   S235      1.0  0.52979  0.61290  0.93166  1.0000
  C   C708      1.0  0.49373  0.56331  0.79553  1.0000
  Fe  Fe119     1.0  0.59627  0.50485  0.37221  1.0000
  H   H721      1.0  0.62255  0.51691  0.29256  1.0000
  C   C709      1.0  0.68553  0.49175  0.51165  1.0000
  Fe  Fe120     1.0  0.59578  0.51868  0.44875  1.0000
  N   N62       1.0  0.54114  0.63567  0.47673  1.0000
  S   S236      1.0  0.58933  0.53589  0.48911  1.0000
  Fe  Fe121     1.0  0.62380  0.50537  0.42837  1.0000
  C   C710      1.0  0.49144  0.67441  0.49372  1.0000
  C   C711      1.0  0.56703  0.60617  0.90013  1.0000
  S   S237      1.0  0.61660  0.52654  0.40640  1.0000
  H   H722      1.0  0.68487  0.50523  0.42606  1.0000
  Fe  Fe122     1.0  0.50237  0.60464  0.54484  1.0000
  S   S238      1.0  0.53044  0.60896  0.55314  1.0000
  Fe  Fe123     1.0  0.48061  0.71076  0.45315  1.0000
  C   C712      1.0  0.65709  0.52962  0.10818  1.0000
  S   S239      1.0  0.51608  0.57212  0.59668  1.0000
  Fe  Fe124     1.0  0.52260  0.60029  0.61000  1.0000
  S   S240      1.0  0.54096  0.61323  0.65756  1.0000
  Fe  Fe125     1.0  0.52164  0.58017  0.53958  1.0000
  S   S241      1.0  0.53299  0.56822  0.49664  1.0000
  S   S242      1.0  0.49531  0.59791  0.60265  1.0000
  S   S243      1.0  0.49392  0.57620  0.52808  1.0000
  C   C713      1.0  0.57395  0.54531  0.49006  1.0000
  C   C714      1.0  0.56320  0.54449  0.46063  1.0000
  C   C715      1.0  0.55082  0.55155  0.46325  1.0000
  C   C716      1.0  0.54879  0.55937  0.49536  1.0000
  C   C717      1.0  0.55945  0.56005  0.52487  1.0000
  C   C718      1.0  0.57194  0.55313  0.52215  1.0000
  H   H723      1.0  0.56451  0.53853  0.43574  1.0000
  H   H724      1.0  0.54275  0.55097  0.44013  1.0000
  H   H725      1.0  0.55816  0.56602  0.54975  1.0000
  H   H726      1.0  0.58009  0.55382  0.54520  1.0000
  C   C719      1.0  0.53895  0.61259  0.78103  1.0000
  C   C720      1.0  0.52319  0.60753  0.76128  1.0000
  C   C721      1.0  0.52325  0.60753  0.72319  1.0000
  C   C722      1.0  0.53910  0.61277  0.70498  1.0000
  C   C723      1.0  0.55464  0.61813  0.72508  1.0000
  C   C724      1.0  0.55457  0.61798  0.76251  1.0000
  H   H727      1.0  0.51104  0.60369  0.77519  1.0000
  H   H728      1.0  0.51117  0.60365  0.70800  1.0000
  H   H729      1.0  0.56695  0.62241  0.71151  1.0000
  H   H730      1.0  0.56682  0.62211  0.77722  1.0000
  C   C725      1.0  0.49055  0.64455  0.97729  1.0000
  H   H731      1.0  0.57488  0.50054  0.52224  1.0000
  S   S244      1.0  0.57521  0.49827  0.41360  1.0000
  C   C726      1.0  0.59641  0.51004  0.27283  1.0000
  S   S245      1.0  0.57870  0.49993  0.09239  1.0000
  C   C727      1.0  0.51949  0.56762  0.69707  1.0000
  H   H732      1.0  0.64625  0.51623  0.10891  1.0000
  C   C728      1.0  0.71093  0.50231  0.73070  1.0000
  C   C729      1.0  0.50155  0.56278  0.69713  1.0000
  Fe  Fe126     1.0  0.60743  0.51104  0.10708  1.0000
  C   C730      1.0  0.56216  0.53777  0.99835  1.0000
  C   C731      1.0  0.56250  0.54850  0.02749  1.0000
  C   C732      1.0  0.55465  0.56024  0.02451  1.0000
  C   C733      1.0  0.54633  0.56152  0.99245  1.0000
  C   C734      1.0  0.54588  0.55071  0.96338  1.0000
  C   C735      1.0  0.55374  0.53897  0.96635  1.0000
  H   H733      1.0  0.56882  0.54776  0.05234  1.0000
  H   H734      1.0  0.55510  0.56846  0.04730  1.0000
  H   H735      1.0  0.53957  0.55144  0.93852  1.0000
  H   H736      1.0  0.55333  0.53078  0.94357  1.0000
  C   C736      1.0  0.55256  0.60965  0.46634  1.0000
  H   H737      1.0  0.55691  0.59937  0.46280  1.0000
  S   S246      1.0  0.48834  0.73036  0.32189  1.0000
  C   C737      1.0  0.62176  0.51870  0.23480  1.0000
  C   C738      1.0  0.58601  0.50814  0.24191  1.0000
  H   H738      1.0  0.52645  0.59368  0.44637  1.0000
  S   S247      1.0  0.49298  0.62025  0.50607  1.0000
  C   C739      1.0  0.48310  0.73023  0.21274  1.0000
  H   H739      1.0  0.70098  0.52885  0.00821  1.0000
  H   H740      1.0  0.56851  0.63014  0.87758  1.0000
  C   C740      1.0  0.66433  0.50085  0.46341  1.0000
  C   C741      1.0  0.61436  0.51533  0.26907  1.0000
  H   H741      1.0  0.63569  0.52296  0.23229  1.0000
  H   H742      1.0  0.56033  0.59816  0.87685  1.0000
  H   H743      1.0  0.50074  0.73779  0.91252  1.0000
  H   H744      1.0  0.49179  0.73529  0.19055  1.0000
  C   C742      1.0  0.52992  0.61972  0.46232  1.0000
  C   C743      1.0  0.53547  0.60650  0.45685  1.0000
  C   C744      1.0  0.69088  0.49667  0.47664  1.0000
  H   H745      1.0  0.65818  0.53966  0.04034  1.0000
  H   H746      1.0  0.71565  0.51503  0.74414  1.0000
  S   S248      1.0  0.49754  0.73558  0.42453  1.0000
  C   C745      1.0  0.65583  0.49527  0.99469  1.0000
  C   C746      1.0  0.55781  0.63874  0.48682  1.0000
  S   S249      1.0  0.49397  0.58037  0.95702  1.0000
  C   C747      1.0  0.65887  0.49572  0.49830  1.0000
  S   S250      1.0  0.60472  0.49932  0.47294  1.0000
  H   H747      1.0  0.55418  0.51212  0.50617  1.0000
  C   C748      1.0  0.49951  0.65441  0.52909  1.0000
  C   C749      1.0  0.49210  0.64108  0.50298  1.0000
  S   S251      1.0  0.58606  0.50471  0.31493  1.0000
  C   C750      1.0  0.49539  0.69804  0.15385  1.0000
  S   S252      1.0  0.59012  0.48998  0.01428  1.0000
  H   H748      1.0  0.50503  0.69739  0.10091  1.0000
  H   H749      1.0  0.56695  0.58457  0.92994  1.0000
  C   C751      1.0  0.57087  0.59861  0.93015  1.0000
  C   C752      1.0  0.57154  0.62413  0.90058  1.0000
  C   C753      1.0  0.49527  0.67835  0.00371  1.0000
  C   C754      1.0  0.68042  0.50125  0.45288  1.0000
  C   C755      1.0  0.69251  0.52969  0.02894  1.0000
  H   H750      1.0  0.70321  0.49718  0.46796  1.0000
  C   C756      1.0  0.50731  0.65841  0.98050  1.0000
  C   C757      1.0  0.50962  0.67510  0.99371  1.0000
  C   C758      1.0  0.61132  0.51658  0.20386  1.0000
  H   H751      1.0  0.71547  0.51296  0.67794  1.0000
  H   H752      1.0  0.51852  0.65625  0.97304  1.0000
  H   H753      1.0  0.52268  0.68557  0.99622  1.0000
  C   C759      1.0  0.58329  0.60081  0.99091  1.0000
  H   H754      1.0  0.57694  0.62816  0.48999  1.0000
  C   C760      1.0  0.58316  0.62625  0.96062  1.0000
  H   H755      1.0  0.51648  0.61700  0.45568  1.0000
  H   H756      1.0  0.58237  0.58753  0.98450  1.0000
  H   H757      1.0  0.54547  0.66254  0.48013  1.0000
  S   S253      1.0  0.49198  0.73411  0.08219  1.0000
  C   C761      1.0  0.57950  0.63423  0.93109  1.0000
  C   C762      1.0  0.48988  0.73310  0.24826  1.0000
  S   S254      1.0  0.62128  0.52076  0.16126  1.0000
  H   H758      1.0  0.66324  0.50353  0.94072  1.0000
  H   H759      1.0  0.58260  0.64811  0.93195  1.0000
  H   H760      1.0  0.56647  0.65113  0.49950  1.0000
  H   H761      1.0  0.57213  0.50419  0.24447  1.0000
  H   H762      1.0  0.53028  0.64802  0.51172  1.0000
  C   C763      1.0  0.53496  0.64915  0.48383  1.0000
  C   C764      1.0  0.67994  0.49259  0.96325  1.0000
  C   C765      1.0  0.66847  0.53577  0.04740  1.0000
  N   N63       1.0  0.66967  0.53022  0.08112  1.0000
  H   H763      1.0  0.57390  0.59942  0.01244  1.0000
  H   H764      1.0  0.66335  0.53313  0.13524  1.0000
  H   H765      1.0  0.59679  0.60900  0.00108  1.0000
  H   H766      1.0  0.52391  0.64758  0.46548  1.0000
  H   H767      1.0  0.58915  0.63411  0.98445  1.0000
  H   H768      1.0  0.68243  0.51919  0.11553  1.0000
  H   H769      1.0  0.50557  0.65208  0.55285  1.0000
  C   C766      1.0  0.68186  0.52413  0.08915  1.0000
  H   H770      1.0  0.70286  0.51855  0.06929  1.0000
  S   S255      1.0  0.49169  0.69569  0.48945  1.0000
  H   H771      1.0  0.49424  0.56064  0.67201  1.0000
  H   H772      1.0  0.52555  0.73713  0.01287  1.0000
  C   C767      1.0  0.69350  0.52383  0.06325  1.0000
  C   C768      1.0  0.53281  0.49841  0.46940  1.0000
  C   C769      1.0  0.54626  0.49966  0.49299  1.0000
  S   S256      1.0  0.63951  0.50343  0.99494  1.0000
  C   C770      1.0  0.49316  0.56120  0.72976  1.0000
  H   H773      1.0  0.52630  0.56961  0.67200  1.0000
  Fe  Fe127     1.0  0.48162  0.71308  0.03847  1.0000
  C   C771      1.0  0.71091  0.50105  0.69332  1.0000
  H   H774      1.0  0.68770  0.49468  0.93956  1.0000
  C   C772      1.0  0.52877  0.57050  0.72946  1.0000
  C   C773      1.0  0.66942  0.49132  0.52219  1.0000
  C   C774      1.0  0.48428  0.64456  0.47234  1.0000
  H   H775      1.0  0.53065  0.50994  0.46390  1.0000
  C   C775      1.0  0.49381  0.69237  0.11820  1.0000
  H   H776      1.0  0.52739  0.57162  0.78667  1.0000
  C   C776      1.0  0.66602  0.49761  0.96402  1.0000
  H   H777      1.0  0.64660  0.49535  0.50699  1.0000
  H   H778      1.0  0.71427  0.49650  0.62525  1.0000
  C   C777      1.0  0.48388  0.66102  0.46777  1.0000
  H   H779      1.0  0.49143  0.55084  0.80889  1.0000
  H   H780      1.0  0.48199  0.69613  0.20302  1.0000
  H   H781      1.0  0.48093  0.56385  0.79195  1.0000
  C   C778      1.0  0.48068  0.69153  0.17543  1.0000
  H   H782      1.0  0.54218  0.96634  0.87621  1.0000
  H   H783      1.0  0.53110  0.79116  0.37652  1.0000
  S   S257      1.0  0.49961  0.78051  0.04325  1.0000
  H   H784      1.0  0.52379  0.79801  0.41631  1.0000
  H   H785      1.0  0.58891  0.94469  0.92082  1.0000
  C   C779      1.0  0.54891  0.95809  0.87202  1.0000
  Fe  Fe128     1.0  0.49330  0.89744  0.94553  1.0000
  S   S258      1.0  0.51287  0.89224  0.97854  1.0000
  Fe  Fe129     1.0  0.51087  0.89730  0.87457  1.0000
  S   S259      1.0  0.53198  0.89220  0.90237  1.0000
  S   S260      1.0  0.50521  0.90224  0.81668  1.0000
  Fe  Fe130     1.0  0.51036  0.87221  0.93547  1.0000
  S   S261      1.0  0.50220  0.84232  0.94017  1.0000
  Fe  Fe131     1.0  0.53273  0.91264  0.94367  1.0000
  S   S262      1.0  0.55832  0.93503  0.96498  1.0000
  N   N64       1.0  0.48640  0.93594  0.51780  1.0000
  S   S263      1.0  0.51312  0.91875  0.91360  1.0000
  Fe  Fe132     1.0  0.49122  0.90098  0.57841  1.0000
  S   S264      1.0  0.49750  0.89671  0.52231  1.0000
  Fe  Fe133     1.0  0.52225  0.89708  0.61017  1.0000
  S   S265      1.0  0.53154  0.89303  0.55546  1.0000
  S   S266      1.0  0.53450  0.89451  0.66349  1.0000
  Fe  Fe134     1.0  0.52528  0.91553  0.53771  1.0000
  S   S267      1.0  0.53771  0.93698  0.49520  1.0000
  Fe  Fe135     1.0  0.50319  0.87468  0.54367  1.0000
  S   S268      1.0  0.48952  0.84683  0.51750  1.0000
  S   S269      1.0  0.51843  0.92067  0.59321  1.0000
  S   S270      1.0  0.49452  0.87784  0.59902  1.0000
  C   C780      1.0  0.55085  0.96028  0.49279  1.0000
  C   C781      1.0  0.55361  0.96831  0.45911  1.0000
  C   C782      1.0  0.59006  0.95566  0.90325  1.0000
  H   H786      1.0  0.53557  0.85889  0.65508  1.0000
  C   C783      1.0  0.55870  0.97094  0.52296  1.0000
  H   H787      1.0  0.54773  0.96030  0.43547  1.0000
  C   C784      1.0  0.49901  0.83794  0.60446  1.0000
  H   H788      1.0  0.55687  0.96510  0.54907  1.0000
  C   C785      1.0  0.51331  0.89936  0.77449  1.0000
  C   C786      1.0  0.52675  0.89400  0.77131  1.0000
  C   C787      1.0  0.53311  0.89262  0.73722  1.0000
  C   C788      1.0  0.52602  0.89637  0.70591  1.0000
  C   C789      1.0  0.51236  0.90137  0.70909  1.0000
  C   C790      1.0  0.50615  0.90296  0.74315  1.0000
  H   H789      1.0  0.53231  0.89100  0.79503  1.0000
  H   H790      1.0  0.54364  0.88867  0.73511  1.0000
  H   H791      1.0  0.50672  0.90427  0.68532  1.0000
  H   H792      1.0  0.49575  0.90710  0.74514  1.0000
  C   C791      1.0  0.52026  0.78736  0.39569  1.0000
  C   C792      1.0  0.58174  0.96702  0.99279  1.0000
  C   C793      1.0  0.56449  0.95721  0.98014  1.0000
  C   C794      1.0  0.55330  0.96557  0.97859  1.0000
  N   N65       1.0  0.52494  0.76140  0.99973  1.0000
  H   H793      1.0  0.48446  0.80463  0.93417  1.0000
  H   H794      1.0  0.59057  0.96084  0.99425  1.0000
  H   H795      1.0  0.53997  0.95828  0.96895  1.0000
  C   C795      1.0  0.49209  0.82744  0.50515  1.0000
  H   H796      1.0  0.52466  0.76443  0.05596  1.0000
  H   H797      1.0  0.50624  0.76882  0.92514  1.0000
  H   H798      1.0  0.49718  0.80006  0.41257  1.0000
  C   C796      1.0  0.52864  0.85449  0.62879  1.0000
  C   C797      1.0  0.50809  0.82635  0.50825  1.0000
  H   H799      1.0  0.53725  0.78435  0.03349  1.0000
  C   C798      1.0  0.49016  0.79383  0.98216  1.0000
  H   H800      1.0  0.60035  0.95785  0.88333  1.0000
  H   H801      1.0  0.51958  0.83764  0.51785  1.0000
  H   H802      1.0  0.51109  0.85918  0.68388  1.0000
  C   C799      1.0  0.50932  0.81065  0.49854  1.0000
  H   H803      1.0  0.50380  0.74043  0.25297  1.0000
  C   C800      1.0  0.54157  0.94329  0.84949  1.0000
  C   C801      1.0  0.49918  0.79745  0.01516  1.0000
  C   C802      1.0  0.50914  0.81518  0.02543  1.0000
  C   C803      1.0  0.50999  0.82905  0.00337  1.0000
  C   C804      1.0  0.50121  0.82544  0.97012  1.0000
  C   C805      1.0  0.49463  0.79572  0.48560  1.0000
  N   N66       1.0  0.50377  0.78398  0.37698  1.0000
  H   H804      1.0  0.51628  0.81825  0.05072  1.0000
  H   H805      1.0  0.51774  0.84254  0.01186  1.0000
  H   H806      1.0  0.52180  0.81008  0.50099  1.0000
  N   N67       1.0  0.50964  0.84744  0.63229  1.0000
  H   H807      1.0  0.51895  0.77534  0.40978  1.0000
  C   C806      1.0  0.49131  0.80770  0.95978  1.0000
  C   C807      1.0  0.50107  0.94614  0.54222  1.0000
  H   H808      1.0  0.57242  0.92815  0.86052  1.0000
  C   C808      1.0  0.48457  0.84533  0.66481  1.0000
  H   H809      1.0  0.52912  0.93994  0.83579  1.0000
  H   H810      1.0  0.53236  0.84445  0.61713  1.0000
  H   H811      1.0  0.53325  0.86608  0.61124  1.0000
  C   C809      1.0  0.52176  0.74430  0.99327  1.0000
  C   C810      1.0  0.50266  0.85121  0.66220  1.0000
  C   C811      1.0  0.50771  0.74450  0.93679  1.0000
  N   N68       1.0  0.57324  0.95144  0.88507  1.0000
  C   C812      1.0  0.56489  0.96203  0.88961  1.0000
  C   C813      1.0  0.48926  0.92927  0.48630  1.0000
  S   S271      1.0  0.49735  0.77654  0.47226  1.0000
  H   H812      1.0  0.54575  0.76825  0.03807  1.0000
  H   H813      1.0  0.57039  0.97344  0.90743  1.0000
  H   H814      1.0  0.51284  0.94404  0.53621  1.0000
  H   H815      1.0  0.50685  0.76672  0.33853  1.0000
  C   C814      1.0  0.49868  0.77284  0.34785  1.0000
  Fe  Fe136     1.0  0.48283  0.75056  0.04726  1.0000
  H   H816      1.0  0.52163  0.78361  0.98102  1.0000
  C   C815      1.0  0.53366  0.77003  0.03341  1.0000
  H   H817      1.0  0.50455  0.83540  0.58033  1.0000
  C   C816      1.0  0.56599  0.93675  0.86350  1.0000
  H   H818      1.0  0.54433  0.92083  0.82826  1.0000
  S   S272      1.0  0.48936  0.87644  0.90478  1.0000
  H   H819      1.0  0.50453  0.96033  0.54006  1.0000
  C   C817      1.0  0.55011  0.93251  0.84526  1.0000
  H   H820      1.0  0.49759  0.94204  0.57029  1.0000
  C   C818      1.0  0.51953  0.77019  0.97554  1.0000
  Fe  Fe137     1.0  0.48149  0.74835  0.44900  1.0000
  H   H821      1.0  0.50236  0.93124  0.47932  1.0000
  C   C819      1.0  0.49327  0.79137  0.38926  1.0000
  C   C820      1.0  0.51081  0.76188  0.94380  1.0000
  C   C821      1.0  0.56417  0.98652  0.45549  1.0000
  H   H822      1.0  0.59427  0.96761  0.92064  1.0000
  C   C822      1.0  0.48273  0.76886  0.33013  1.0000
  C   C823      1.0  0.48087  0.83183  0.60614  1.0000
  C   C824      1.0  0.58780  0.98477  0.00359  1.0000
  H   H823      1.0  0.48249  0.78035  0.97363  1.0000
  H   H824      1.0  0.48180  0.85031  0.99235  1.0000
  C   C825      1.0  0.55941  0.98346  0.98953  1.0000
  H   H825      1.0  0.48079  0.91307  0.86547  1.0000
  H   H826      1.0  0.74027  0.20419  0.74033  1.0000
  S   S273      1.0  0.73775  0.21559  0.56104  1.0000
  H   H827      1.0  0.76650  0.21931  0.80867  1.0000
  H   H828      1.0  0.77533  0.20431  0.85581  1.0000
  C   C826      1.0  0.77269  0.22647  0.83313  1.0000
  C   C827      1.0  0.77768  0.21790  0.85970  1.0000
  S   S274      1.0  0.73897  0.21509  0.91385  1.0000
  C   C828      1.0  0.78537  0.22689  0.89151  1.0000
  H   H829      1.0  0.78918  0.22040  0.91253  1.0000
  H   H830      1.0  0.73615  0.21182  0.67785  1.0000
  C   C829      1.0  0.73410  0.21286  0.73558  1.0000
  Fe  Fe138     1.0  0.74321  0.23699  0.51994  1.0000
  C   C830      1.0  0.73179  0.21717  0.70001  1.0000
  S   S275      1.0  0.73078  0.21276  0.80911  1.0000
  Fe  Fe139     1.0  0.87779  0.37195  0.41272  1.0000
  S   S276      1.0  0.88199  0.36317  0.46681  1.0000
  S   S277      1.0  0.86855  0.39297  0.40288  1.0000
  Fe  Fe140     1.0  0.88566  0.34481  0.37359  1.0000
  S   S278      1.0  0.89077  0.33401  0.42561  1.0000
  S   S279      1.0  0.88434  0.33091  0.31976  1.0000
  Fe  Fe141     1.0  0.86628  0.33553  0.44542  1.0000
  S   S280      1.0  0.84622  0.31439  0.48149  1.0000
  Fe  Fe142     1.0  0.90619  0.36245  0.44333  1.0000
  S   S281      1.0  0.93072  0.37529  0.48082  1.0000
  S   S282      1.0  0.86052  0.34461  0.39270  1.0000
  S   S283      1.0  0.90260  0.37298  0.38994  1.0000
  Fe  Fe143     1.0  0.89162  0.35509  0.10574  1.0000
  S   S284      1.0  0.89491  0.33397  0.07355  1.0000
  S   S285      1.0  0.89726  0.36486  0.16428  1.0000
  Fe  Fe144     1.0  0.88486  0.37116  0.03793  1.0000
  S   S286      1.0  0.88736  0.35114  0.00081  1.0000
  S   S287      1.0  0.87816  0.39288  0.01837  1.0000
  Fe  Fe145     1.0  0.87088  0.33135  0.04102  1.0000
  S   S288      1.0  0.84854  0.30369  0.02873  1.0000
  Fe  Fe146     1.0  0.91104  0.35533  0.03534  1.0000
  S   S289      1.0  0.93778  0.35772  0.01599  1.0000
  S   S290      1.0  0.86696  0.35133  0.07578  1.0000
  S   S291      1.0  0.90924  0.37630  0.06965  1.0000
  S   S292      1.0  0.75235  0.46188  0.90064  1.0000
  H   H831      1.0  0.87084  0.40977  0.31865  1.0000
  S   S293      1.0  0.77229  0.26772  0.95043  1.0000
  S   S294      1.0  0.75427  0.45894  0.57177  1.0000
  C   C831      1.0  0.93803  0.34122  0.10243  1.0000
  S   S295      1.0  0.76652  0.25472  0.48488  1.0000
  S   S296      1.0  0.91647  0.46705  0.09554  1.0000
  S   S297      1.0  0.91397  0.46909  0.46755  1.0000
  C   C832      1.0  0.97554  0.43870  0.52337  1.0000
  C   C833      1.0  0.96406  0.38233  0.45485  1.0000
  N   N69       1.0  0.77517  0.24348  0.83821  1.0000
  H   H832      1.0  0.74124  0.28678  0.51908  1.0000
  H   H833      1.0  0.84673  0.48024  0.10138  1.0000
  C   C834      1.0  0.85376  0.28514  0.43296  1.0000
  C   C835      1.0  0.88998  0.41395  0.03753  1.0000
  C   C836      1.0  0.90214  0.41677  0.06529  1.0000
  C   C837      1.0  0.91051  0.43328  0.08214  1.0000
  C   C838      1.0  0.90646  0.44701  0.07195  1.0000
  C   C839      1.0  0.89450  0.44441  0.04380  1.0000
  C   C840      1.0  0.88639  0.42791  0.02639  1.0000
  H   H834      1.0  0.90481  0.40617  0.07458  1.0000
  H   H835      1.0  0.91978  0.43526  0.10387  1.0000
  H   H836      1.0  0.89139  0.45501  0.03569  1.0000
  H   H837      1.0  0.87698  0.42581  0.00487  1.0000
  C   C841      1.0  0.82721  0.29415  0.00727  1.0000
  C   C842      1.0  0.81717  0.27580  0.00811  1.0000
  C   C843      1.0  0.80039  0.26754  0.99142  1.0000
  C   C844      1.0  0.79329  0.27747  0.97320  1.0000
  C   C845      1.0  0.80329  0.29582  0.97239  1.0000
  C   C846      1.0  0.82004  0.30410  0.98929  1.0000
  H   H838      1.0  0.82244  0.26789  0.02192  1.0000
  H   H839      1.0  0.79298  0.25347  0.99271  1.0000
  H   H840      1.0  0.79810  0.30376  0.95844  1.0000
  H   H841      1.0  0.82748  0.31817  0.98816  1.0000
  C   C847      1.0  0.73540  0.46451  0.70954  1.0000
  C   C848      1.0  0.95942  0.37140  0.00083  1.0000
  H   H842      1.0  0.95765  0.39613  0.99958  1.0000
  C   C849      1.0  0.78787  0.24420  0.89644  1.0000
  C   C850      1.0  0.82355  0.29891  0.48244  1.0000
  C   C851      1.0  0.81694  0.28956  0.51402  1.0000
  C   C852      1.0  0.79951  0.27643  0.51567  1.0000
  C   C853      1.0  0.78837  0.27212  0.48549  1.0000
  C   C854      1.0  0.79494  0.28153  0.45393  1.0000
  C   C855      1.0  0.81228  0.29489  0.45247  1.0000
  H   H843      1.0  0.82543  0.29245  0.53746  1.0000
  H   H844      1.0  0.79484  0.26940  0.54018  1.0000
  H   H845      1.0  0.78656  0.27842  0.43030  1.0000
  H   H846      1.0  0.81702  0.30185  0.42793  1.0000
  C   C856      1.0  0.88714  0.34052  0.27669  1.0000
  C   C857      1.0  0.89437  0.35870  0.27244  1.0000
  C   C858      1.0  0.89717  0.36582  0.23787  1.0000
  C   C859      1.0  0.89253  0.35491  0.20703  1.0000
  C   C860      1.0  0.88496  0.33671  0.21120  1.0000
  C   C861      1.0  0.88247  0.32959  0.24581  1.0000
  H   H847      1.0  0.89811  0.36729  0.29584  1.0000
  H   H848      1.0  0.90308  0.37991  0.23507  1.0000
  H   H849      1.0  0.88117  0.32811  0.18781  1.0000
  H   H850      1.0  0.87683  0.31551  0.24872  1.0000
  C   C862      1.0  0.95403  0.38286  0.48392  1.0000
  C   C863      1.0  0.96287  0.39056  0.51639  1.0000
  H   H851      1.0  0.95536  0.39106  0.53915  1.0000
  C   C864      1.0  0.88063  0.41361  0.42353  1.0000
  C   C865      1.0  0.87493  0.42682  0.41923  1.0000
  C   C866      1.0  0.88497  0.44382  0.43300  1.0000
  C   C867      1.0  0.90074  0.44771  0.45127  1.0000
  C   C868      1.0  0.90633  0.43444  0.45604  1.0000
  C   C869      1.0  0.89633  0.41742  0.44210  1.0000
  H   H852      1.0  0.86278  0.42390  0.40491  1.0000
  H   H853      1.0  0.88041  0.45384  0.42970  1.0000
  H   H854      1.0  0.91848  0.43737  0.47037  1.0000
  H   H855      1.0  0.90077  0.40727  0.44552  1.0000
  H   H856      1.0  0.95760  0.37648  0.42970  1.0000
  N   N70       1.0  0.90726  0.45317  0.35587  1.0000
  C   C870      1.0  0.90910  0.43789  0.35844  1.0000
  C   C871      1.0  0.89292  0.45334  0.33892  1.0000
  C   C872      1.0  0.89622  0.42216  0.34432  1.0000
  C   C873      1.0  0.87966  0.43778  0.32495  1.0000
  C   C874      1.0  0.88129  0.42209  0.32797  1.0000
  C   C875      1.0  0.92058  0.46956  0.37135  1.0000
  H   H857      1.0  0.79051  0.46349  0.53469  1.0000
  H   H858      1.0  0.89156  0.46552  0.33682  1.0000
  H   H859      1.0  0.80410  0.44862  0.49690  1.0000
  H   H860      1.0  0.86805  0.43787  0.31256  1.0000
  C   C876      1.0  0.80544  0.47729  0.99065  1.0000
  C   C877      1.0  0.78243  0.25227  0.86960  1.0000
  H   H861      1.0  0.73150  0.28973  0.92920  1.0000
  Fe  Fe147     1.0  0.74699  0.24323  0.93299  1.0000
  H   H862      1.0  0.92025  0.43765  0.37259  1.0000
  C   C878      1.0  0.94589  0.37220  0.11646  1.0000
  H   H863      1.0  0.86014  0.47302  0.49497  1.0000
  C   C879      1.0  0.78069  0.48539  0.83044  1.0000
  H   H864      1.0  0.77816  0.26619  0.80922  1.0000
  C   C880      1.0  0.83270  0.47862  0.55395  1.0000
  C   C881      1.0  0.73179  0.46015  0.77441  1.0000
  H   H865      1.0  0.93867  0.37953  0.12697  1.0000
  H   H866      1.0  0.77396  0.46146  0.79977  1.0000
  H   H867      1.0  0.76846  0.24598  0.78382  1.0000
  H   H868      1.0  0.92475  0.44844  0.98887  1.0000
  N   N71       1.0  0.73552  0.28725  0.98503  1.0000
  C   C882      1.0  0.78103  0.46927  0.82299  1.0000
  H   H869      1.0  0.94667  0.37406  0.08701  1.0000
  H   H870      1.0  0.79569  0.45322  0.57252  1.0000
  C   C883      1.0  0.96598  0.38959  0.99501  1.0000
  H   H871      1.0  0.83163  0.45209  0.46853  1.0000
  H   H872      1.0  0.82591  0.47914  0.11433  1.0000
  N   N72       1.0  0.73415  0.28169  0.46415  1.0000
  C   C884      1.0  0.74093  0.28794  0.94783  1.0000
  C   C885      1.0  0.84396  0.27413  0.45997  1.0000
  H   H873      1.0  0.74129  0.27543  0.93963  1.0000
  N   N73       1.0  0.86212  0.40638  0.10299  1.0000
  C   C886      1.0  0.87324  0.42027  0.12379  1.0000
  C   C887      1.0  0.86100  0.38992  0.10820  1.0000
  C   C888      1.0  0.88399  0.41792  0.14997  1.0000
  C   C889      1.0  0.87134  0.38708  0.13453  1.0000
  C   C890      1.0  0.88303  0.40120  0.15523  1.0000
  C   C891      1.0  0.85083  0.40888  0.07572  1.0000
  H   H874      1.0  0.87436  0.43339  0.11938  1.0000
  H   H875      1.0  0.85233  0.37895  0.09146  1.0000
  H   H876      1.0  0.89329  0.42911  0.16535  1.0000
  H   H877      1.0  0.87048  0.37404  0.13860  1.0000
  H   H878      1.0  0.89144  0.39910  0.17499  1.0000
  H   H879      1.0  0.85042  0.40128  0.05087  1.0000
  H   H880      1.0  0.83737  0.40440  0.08580  1.0000
  H   H881      1.0  0.85583  0.42285  0.06805  1.0000
  H   H882      1.0  0.80566  0.25300  0.41349  1.0000
  N   N74       1.0  0.81702  0.46724  0.53891  1.0000
  H   H883      1.0  0.82360  0.27269  0.36642  1.0000
  C   C892      1.0  0.79931  0.47350  0.87565  1.0000
  N   N75       1.0  0.84655  0.28429  0.39961  1.0000
  H   H884      1.0  0.75587  0.25060  0.81703  1.0000
  C   C893      1.0  0.94129  0.46922  0.02496  1.0000
  C   C894      1.0  0.82950  0.27290  0.39245  1.0000
  H   H885      1.0  0.74797  0.27116  0.00114  1.0000
  H   H886      1.0  0.93495  0.41612  0.48599  1.0000
  C   C895      1.0  0.74034  0.27807  0.00934  1.0000
  Fe  Fe148     1.0  0.76121  0.48509  0.54665  1.0000
  C   C896      1.0  0.97053  0.36330  0.99461  1.0000
  C   C897      1.0  0.80061  0.46496  0.55547  1.0000
  H   H887      1.0  0.92976  0.31362  0.09125  1.0000
  H   H888      1.0  0.79302  0.46590  0.98737  1.0000
  H   H889      1.0  0.79202  0.48336  0.47401  1.0000
  C   C898      1.0  0.73528  0.27724  0.04498  1.0000
  C   C899      1.0  0.92795  0.34863  0.15615  1.0000
  C   C900      1.0  0.91966  0.31819  0.14105  1.0000
  H   H890      1.0  0.94555  0.34512  0.07825  1.0000
  H   H891      1.0  0.94192  0.46038  0.04519  1.0000
  H   H892      1.0  0.84951  0.27544  0.48678  1.0000
  Fe  Fe149     1.0  0.75965  0.48024  0.94865  1.0000
  C   C901      1.0  0.84843  0.48073  0.53862  1.0000
  C   C902      1.0  0.94912  0.42248  0.48846  1.0000
  H   H893      1.0  0.94949  0.43248  0.54186  1.0000
  S   S298      1.0  0.73943  0.47471  0.50449  1.0000
  C   C903      1.0  0.81931  0.26168  0.41884  1.0000
  H   H894      1.0  0.91426  0.47577  0.38875  1.0000
  C   C904      1.0  0.93166  0.46253  0.99331  1.0000
  C   C905      1.0  0.79027  0.46322  0.84601  1.0000
  H   H895      1.0  0.95934  0.37791  0.12816  1.0000
  C   C906      1.0  0.95924  0.42100  0.46068  1.0000
  C   C907      1.0  0.85671  0.29649  0.37210  1.0000
  C   C908      1.0  0.92926  0.32335  0.10986  1.0000
  H   H896      1.0  0.85399  0.30824  0.37242  1.0000
  H   H897      1.0  0.81864  0.25432  0.47398  1.0000
  H   H898      1.0  0.86695  0.29483  0.43936  1.0000
  C   C909      1.0  0.84026  0.48622  0.11909  1.0000
  C   C910      1.0  0.84805  0.47101  0.50793  1.0000
  S   S299      1.0  0.73572  0.24948  0.88300  1.0000
  H   H899      1.0  0.75704  0.28341  0.49211  1.0000
  C   C911      1.0  0.82662  0.26236  0.45282  1.0000
  H   H900      1.0  0.87100  0.30095  0.37648  1.0000
  C   C912      1.0  0.93057  0.47414  0.96805  1.0000
  H   H901      1.0  0.85346  0.29031  0.34496  1.0000
  C   C913      1.0  0.82032  0.47538  0.00348  1.0000
  H   H902      1.0  0.96581  0.34936  0.99884  1.0000
  H   H903      1.0  0.80232  0.47665  0.57204  1.0000
  S   S300      1.0  0.73644  0.46260  0.98045  1.0000
  H   H904      1.0  0.81912  0.46246  0.00991  1.0000
  C   C914      1.0  0.81653  0.45749  0.50904  1.0000
  N   N76       1.0  0.93687  0.35355  0.12495  1.0000
  H   H905      1.0  0.79368  0.25126  0.92120  1.0000
  H   H906      1.0  0.73603  0.25730  0.46250  1.0000
  H   H907      1.0  0.78392  0.26557  0.87430  1.0000
  Fe  Fe150     1.0  0.73205  0.44891  0.53155  1.0000
  H   H908      1.0  0.89728  0.40990  0.34785  1.0000
  H   H909      1.0  0.91262  0.30437  0.14696  1.0000
  C   C915      1.0  0.97744  0.42828  0.46506  1.0000
  C   C916      1.0  0.74311  0.48267  0.71597  1.0000
  Fe  Fe151     1.0  0.73648  0.46507  0.60785  1.0000
  C   C917      1.0  0.83202  0.45930  0.49299  1.0000
  H   H910      1.0  0.80658  0.46901  0.89380  1.0000
  H   H911      1.0  0.91185  0.32709  0.18909  1.0000
  H   H912      1.0  0.95291  0.41332  0.43680  1.0000
  H   H913      1.0  0.79042  0.45060  0.84090  1.0000
  C   C918      1.0  0.74752  0.28926  0.49259  1.0000
  H   H914      1.0  0.75517  0.30361  0.48932  1.0000
  C   C919      1.0  0.91915  0.33090  0.16459  1.0000
  C   C920      1.0  0.73898  0.47828  0.78073  1.0000
  Fe  Fe152     1.0  0.73673  0.47591  0.88058  1.0000
  S   S301      1.0  0.85468  0.48673  0.02668  1.0000
  H   H915      1.0  0.73876  0.26958  0.06392  1.0000
  H   H916      1.0  0.93021  0.46736  0.38863  1.0000
  H   H917      1.0  0.92278  0.46885  0.94382  1.0000
  C   C921      1.0  0.94935  0.48729  0.03138  1.0000
  H   H918      1.0  0.81691  0.48384  0.43872  1.0000
  C   C922      1.0  0.76918  0.25203  0.81075  1.0000
  H   H919      1.0  0.92739  0.35842  0.17450  1.0000
  C   C923      1.0  0.95729  0.43148  0.51995  1.0000
  S   S302      1.0  0.74006  0.48767  0.82431  1.0000
  H   H920      1.0  0.84307  0.48432  0.14742  1.0000
  H   H921      1.0  0.75419  0.29873  0.94478  1.0000
  H   H922      1.0  0.92749  0.47877  0.34981  1.0000
  S   S303      1.0  0.73100  0.45500  0.66546  1.0000
  H   H923      1.0  0.83310  0.48657  0.57726  1.0000
  H   H924      1.0  0.92822  0.56475  0.36296  1.0000
  H   H925      1.0  0.82578  0.50106  0.07469  1.0000
  C   C924      1.0  0.84421  0.52814  0.07882  1.0000
  C   C925      1.0  0.96657  0.56541  0.39142  1.0000
  H   H926      1.0  0.95095  0.52633  0.32435  1.0000
  H   H927      1.0  0.83717  0.53237  0.05957  1.0000
  H   H928      1.0  0.97302  0.54226  0.04770  1.0000
  Fe  Fe153     1.0  0.90645  0.51991  0.11392  1.0000
  S   S304      1.0  0.90136  0.52952  0.06049  1.0000
  S   S305      1.0  0.90459  0.53248  0.16723  1.0000
  N   N77       1.0  0.78895  0.49501  0.86041  1.0000
  C   C926      1.0  0.97858  0.54826  0.02273  1.0000
  Fe  Fe154     1.0  0.92368  0.52379  0.04028  1.0000
  S   S306      1.0  0.94420  0.54021  0.99910  1.0000
  Fe  Fe155     1.0  0.88333  0.50114  0.04755  1.0000
  C   C927      1.0  0.85995  0.54021  0.09429  1.0000
  S   S307      1.0  0.92982  0.51644  0.09459  1.0000
  N   N78       1.0  0.84671  0.50493  0.11138  1.0000
  Fe  Fe156     1.0  0.90839  0.51030  0.37846  1.0000
  S   S308      1.0  0.90415  0.53153  0.40822  1.0000
  S   S309      1.0  0.91281  0.50385  0.32087  1.0000
  C   C928      1.0  0.86216  0.51667  0.12663  1.0000
  S   S310      1.0  0.90411  0.51094  0.48292  1.0000
  Fe  Fe157     1.0  0.88406  0.50971  0.44082  1.0000
  C   C929      1.0  0.79869  0.48956  0.88218  1.0000
  Fe  Fe158     1.0  0.92450  0.53125  0.44859  1.0000
  S   S311      1.0  0.94788  0.55623  0.47005  1.0000
  C   C930      1.0  0.80831  0.50244  0.51326  1.0000
  S   S312      1.0  0.92978  0.51167  0.41648  1.0000
  C   C931      1.0  0.96990  0.56007  0.48181  1.0000
  S   S313      1.0  0.85441  0.50193  0.44719  1.0000
  S   S314      1.0  0.79094  0.50234  0.54057  1.0000
  H   H929      1.0  0.96713  0.53414  0.46849  1.0000
  H   H930      1.0  0.93777  0.57050  0.40707  1.0000
  H   H931      1.0  0.75050  0.50353  0.75578  1.0000
  Fe  Fe159     1.0  0.90844  0.49142  0.44776  1.0000
  C   C932      1.0  0.90991  0.51186  0.27860  1.0000
  C   C933      1.0  0.90498  0.52562  0.27524  1.0000
  C   C934      1.0  0.90341  0.53178  0.24101  1.0000
  C   C935      1.0  0.90657  0.52418  0.20980  1.0000
  C   C936      1.0  0.91130  0.51030  0.21321  1.0000
  C   C937      1.0  0.91304  0.50426  0.24739  1.0000
  H   H932      1.0  0.90240  0.53154  0.29890  1.0000
  H   H933      1.0  0.89971  0.54250  0.23870  1.0000
  H   H934      1.0  0.91384  0.50435  0.18951  1.0000
  H   H935      1.0  0.78870  0.51416  0.89791  1.0000
  C   C938      1.0  0.95554  0.53736  0.34320  1.0000
  C   C939      1.0  0.96759  0.54925  0.99534  1.0000
  S   S315      1.0  0.90514  0.49595  0.02378  1.0000
  C   C940      1.0  0.86898  0.53447  0.11843  1.0000
  H   H936      1.0  0.95418  0.51251  0.01092  1.0000
  H   H937      1.0  0.96709  0.55833  0.94187  1.0000
  S   S316      1.0  0.78821  0.49738  0.96736  1.0000
  H   H938      1.0  0.82840  0.52183  0.54684  1.0000
  H   H939      1.0  0.79860  0.52256  0.85544  1.0000
  H   H940      1.0  0.97864  0.53447  0.35960  1.0000
  H   H941      1.0  0.97083  0.57619  0.41084  1.0000
  C   C941      1.0  0.84001  0.51357  0.50352  1.0000
  C   C942      1.0  0.82580  0.51340  0.52336  1.0000
  H   H942      1.0  0.85329  0.52205  0.51192  1.0000
  H   H943      1.0  0.94828  0.58432  0.36985  1.0000
  H   H944      1.0  0.86525  0.55394  0.08735  1.0000
  C   C943      1.0  0.83789  0.50657  0.99973  1.0000
  C   C944      1.0  0.82296  0.50850  0.98731  1.0000
  H   H945      1.0  0.88133  0.54369  0.13040  1.0000
  C   C945      1.0  0.94571  0.54689  0.34840  1.0000
  H   H946      1.0  0.93355  0.54304  0.33328  1.0000
  H   H947      1.0  0.85032  0.51794  0.00291  1.0000
  H   H948      1.0  0.82412  0.52144  0.98114  1.0000
  H   H949      1.0  0.86939  0.51229  0.14510  1.0000
  C   C946      1.0  0.97104  0.54193  0.36291  1.0000
  H   H950      1.0  0.77508  0.51094  0.85918  1.0000
  N   N79       1.0  0.95123  0.56065  0.37248  1.0000
  C   C947      1.0  0.97533  0.55738  0.96331  1.0000
  C   C948      1.0  0.83665  0.48999  0.00838  1.0000
  H   H951      1.0  0.95611  0.49254  0.05673  1.0000
  C   C949      1.0  0.78786  0.51153  0.86852  1.0000
  H   H952      1.0  0.91691  0.49365  0.24959  1.0000
  C   C950      1.0  0.83701  0.50289  0.47283  1.0000
  C   C951      1.0  0.94085  0.57054  0.37822  1.0000
  C   C952      1.0  0.80531  0.49176  0.48254  1.0000
  C   C953      1.0  0.83778  0.51043  0.08760  1.0000
  C   C954      1.0  0.93762  0.50392  0.94756  1.0000
  H   H953      1.0  0.86084  0.49027  0.54967  1.0000
  S   S317      1.0  0.74503  0.49527  0.92736  1.0000
  C   C955      1.0  0.74486  0.48947  0.75131  1.0000
  S   S318      1.0  0.74448  0.49200  0.58563  1.0000
  H   H954      1.0  0.74740  0.49147  0.69368  1.0000
  C   C956      1.0  0.94809  0.49851  0.00547  1.0000
  C   C957      1.0  0.80659  0.49391  0.98278  1.0000
  H   H955      1.0  0.80583  0.49752  0.90512  1.0000
  H   H956      1.0  0.94991  0.51625  0.94692  1.0000
  H   H957      1.0  0.77355  0.49004  0.81240  1.0000
  C   C958      1.0  0.81951  0.49210  0.46246  1.0000
  C   C959      1.0  0.97664  0.55607  0.38716  1.0000
  H   H958      1.0  0.97738  0.58711  0.49703  1.0000
  C   C960      1.0  0.97600  0.54714  0.47804  1.0000
  H   H959      1.0  0.92685  0.50749  0.95473  1.0000
  S   S319      1.0  0.88725  0.49216  0.10219  1.0000
  H   H960      1.0  0.93511  0.49804  0.92016  1.0000
  N   N80       1.0  0.93905  0.49190  0.97401  1.0000
  Fe  Fe160     1.0  0.91007  0.48922  0.07928  1.0000
  S   S320      1.0  0.88745  0.48871  0.40811  1.0000
