data_image0
_chemical_formula_structural       FeSFeS2Fe2S3HNSCH2C4NCHCH3C2HCSCHFeS2FeSFeSFeS2C6H4CFeCH6CHCNC2HCH3C6H4C6H4SH2C3H3NH3CHCH2CHC7HCHS2CHC3H2C3H5CH3CH3FeC2HCN2CHCHCSCSHFeS2FeS2FeSFeS3C2HNHCH2CH2CHCHFeS2FeS2FeSFeS3C6H3SHS2C4H6C3HNH2C2NH4C8H4C2H3CHCH2C5H3CH2C2HC3HCHC2HC2H6SCH5SCNHC5HC2H4NCH2CSC2H2SC2HSC2HCH2C2FeHCH3CHFeC2NHFeS2CHSHC3H5SC3HFeCH2C2HFeS2FeSFeSFeS3HNHSHFeSFeS2FeSFeS3HFeH2C2SH2FeS2FeS2FeSFe2S2FeS2FeSFeS2FeSHFeSH2SCFeSFeHC5HSHC7H4C6HCH2C6H4C2H2CH2CHCSCHC3HC6H7C5HC6H3CHCHCHC6H4CHCFeSCHNFeC6H4CHCH3CHC5SH3SHC5H5CHSHC2HNCNC2H5NSC2H2CSHCH2NFeHSHCHCSC5FeHC2H2NHCFeSNCHSCH2SCHSCHNC3SHSH3CH2CSHC4H2SHNCHC2HC5SN2FeC3FeC2H4CHFeS4FeSH3CHCH6CH4CHC2FeHSCH2CH2C2H2CHC2H2CHC2HC2HNCH3NCH12CHCNCH2CH2CHC2H2SHCHCHCH2SH2FeS2FeSFe2SCFeSHCSFeSHNSC4HC4HC5NH3CH2CH3CH2CH4CHCSFeSHC2HCH3CSH3CH2FeCHFeS2FeS2FeSFeS3FeS2FeS2FeS2FeS2FeSFeS3FeS2FeS2H2CSFeS2FeSFeS3HS2FeSFeSH4SCFeSFeSCS2FeSC7H4C2H2C4HFeH3C7H4C4HCH2C5HC2HCH2SNHC2H3C6H4C6H4NH2CH2FeC2NCH3C6H4C6H4C5H2CHCHSCNH2C2H2NC5H8CHNC3HC2H3C2H3NC6H2NC2HCH2CHCH2NC6H3CH2CHSC4H4C2SC2HSC4NHCH3CHSHC2HSH2SCH2C2FeSHC3HCHCHCSH2FeCH2C3HCH2CSC2HC3HS2CH2CHC4HCSC2H2FeHFeHCHCSCSN2HFeSH6C4HSCSCH3CH4CH3CHFeH3CH3C2H3C2H2C2HC2HCHSHFeHCSH2C3HC2SC2HNH5C2H2NC6FeHCSCFeCH2CHC2HCH2SNSNH2CH2CH5C2H2FeCSH2C2H2FeS2FeS2FeSFeS2FeS2FeSFeSFeS3HC2NH2FeSCSCFeHNFeS2FeSHS2FeS2FeSHFeSFeS4HC3H2FeC7H4C6H3C7H4C6H2SCHNC6H4C6H4CHC3H5SCHCSC4H2C6H5C2HC4HC2HCHC3HNC6H12NCHCHNC6H4CHC2NH2CNH4CHC2HC2H3C3H4C2H3C4HSHCSC2SC2HCHCHSH2CHC2H2C2H4CSHC2H3SCHNHCHCHSC2H3NCNH2FeCH3CH2C2FeCSCFeCHNH2CHNH2CHCSCH3CHC2HSCHCH4FeS2FeS2FeSFeS3FeS2FeSCFeSFeS2Fe2SFeSFeS2FeCHFeS2FeSH2S2FeSFeSFeSFeS2FeS2FeSFeS3FeS2FeHSHC6H4C6H4C6H4S2H2C3H2C5H3CHC6H4C6H4C6H4C6H4C2HSHNC6H2CH2CH7C4NC6H3C4HSC2HCHC2HSHCSC4HCFeH2C2HSNHNH2CH2CH3CHCH2CH2C3H2CSHSCHFeNCHFeCNCH3CH3CHNHCHSCH3C2H5SCSHCHC6HNCSCHCH3CH4C2HC2H3CH2C3NHCH2CH3C3H2CH2C4S2CHC4NH2CHSC2H2CNH2CH3C3N2C3H2C2H6C5HNCH6CH5FeHCH2CHSCH2S2HC2HFeS2FeS2FeSFeS4FeS2FeS2FeSFeS4FeS2FeS2FeHFeS3FeS2FeS2FeSFeS3FeCSHCSHCFeS2HCSHCHCH4SC8H4C5H3C6H4C7H5CSHC6HNH2C6H4C6H4C6H4C6H4C5H2CN3HNC2HC6HSHFeNHFeH4CNH3C2H6SNC6H2SH6C2H3SCFeSH2NHCH2C2HCSC2H3C3H3CH2C2FeCNC2SHC4H5CHC2H2C2H3C5H2C2H4C3NCHCHC2SCHCH2NH2C2HC2HNS2HCH2FeHCSHC2NSC7H2C4FeCHC2H4CH2C2HC3HSHCH5CFeHFeHCHSHCHNHCH6CFeH2CHSH2CHCFeCH3CH4C2H3CH2SCHFeS2FeS2FeHFeS3C2HCNHCHSHCNHCH3CH4FeS2FeSHFeSFeS3C5NC2SHC6HCH3C2HC2HCH2C5H5SC3HCHNHSCFeHC7H4C6H2SC7HCH2SCNHC2HNCH2CH3CH2CH3CH2C2H6SHCHCH5C3H3SH2C4H3CHC3H5FeS2FeS2FeSFeS3CH4FeS2FeS2FeSFeS3H2C2H2CHC2FeH2CHC2HC7H2SH4C7H4C3HC2HC3FeH2C7H3NH4C2FeSC2HCHSC2HCNH3CFeHCH2C3H2CHCN2C5H5C2H4SH4NCHCHSCH2CSH3CH2C2H3C2HNHSCHC3SH3SHC2SC2HNSCFeS2FeSFeS2C2FeS2FeSCFeSFeS3CHFeHSC2H2NCHSH3C2H6CH4C2H2C2HCHC6H5CH2CH2NSCHSHCHSHC6H4C6H3C2HNH2CHC2H5C4SHFeS2FeSFeSFeSFeS2FeSCFeHFeS3HFeS2FeS2FeSFeS3FeS2FeSCFeSFeS3HFeS2FeS2FeSFeS3FeHFeS2FeSFeCS2C6H6C4HCH2C2H2C7H2CH2C2H2C6H4C6H6FeHCSCHCSCHSCHC6H5S2H3CHC6H4C6H3CSCH2CHCHNC6H8SHCFeCHNHC2HNC3NC4NCH4CH2CNC6H9CNHC3H3CSHCH5SCH2C3NH2C5H3CHFeCHNHC6FeHCHSC3H2C4HCHCH2SN2HCH3CHCHCSH3C2HCHCSH2C2HNCNCH2SCH3CH2CSC2HCH2CSCH3C5H2FeCHCHCHFeC2H3C2FeH3CH2CFeS2FeS2FeSFeS3FeSCFeS2FeSFeS3C2H3SFeS2FeS2FeSFeS3NH3C2H2FeSHFeS2FeSFeS3C6H4C3HNC6HSH2C6H5SHSC2H3C6H4C6H4C6H4C2H2CH2CHFeC6H5C2HC4H2CHCH2CHCH4CSHCH6FeHCSFeSCHCH2C2HSHCH2FeCHC2HSFeCHSC2HSHC2HC2HNHC3HCH2FeNC6H8NC6H8C4H3NC6H5CHSC4HFeNSHSHCNHC2SH3C2NCH2CH3C2H2SFeHCH2NC2HCH2CH4CHSHC3HNC3H3C3SHC2HFeCHSH3SHFeNCHSHFeHC3S
_chemical_formula_sum              "Fe256 S512 H1536 N128 C1536"
_cell_length_a       113.32
_cell_length_b       111.829
_cell_length_c       35.6401
_cell_angle_alpha    77.0568
_cell_angle_beta     76.978
_cell_angle_gamma    100.752

_space_group_name_H-M_alt    "P 1"
_space_group_IT_number       1

loop_
  _space_group_symop_operation_xyz
  'x, y, z'

loop_
  _atom_site_type_symbol
  _atom_site_label
  _atom_site_symmetry_multiplicity
  _atom_site_fract_x
  _atom_site_fract_y
  _atom_site_fract_z
  _atom_site_occupancy
  Fe  Fe1       1.0  0.05966  0.48079  0.53857  1.0000
  S   S1        1.0  0.06391  0.47589  0.48049  1.0000
  Fe  Fe2       1.0  0.06125  0.45586  0.58659  1.0000
  S   S2        1.0  0.06547  0.44848  0.53187  1.0000
  S   S3        1.0  0.05973  0.44510  0.65061  1.0000
  Fe  Fe3       1.0  0.07872  0.46793  0.50224  1.0000
  Fe  Fe4       1.0  0.05019  0.45703  0.51391  1.0000
  S   S4        1.0  0.03478  0.45247  0.48257  1.0000
  S   S5        1.0  0.07551  0.47442  0.55762  1.0000
  S   S6        1.0  0.04505  0.46279  0.57108  1.0000
  H   H1        1.0  0.00854  0.39216  0.03090  1.0000
  N   N1        1.0  0.99988  0.49129  0.29998  1.0000
  S   S7        1.0  0.99528  0.40944  0.44956  1.0000
  C   C1        1.0  0.11564  0.48074  0.94354  1.0000
  H   H2        1.0  0.10555  0.47127  0.58877  1.0000
  H   H3        1.0  0.00989  0.40174  0.08634  1.0000
  C   C2        1.0  0.08916  0.44355  0.65554  1.0000
  C   C3        1.0  0.01097  0.47276  0.97873  1.0000
  C   C4        1.0  0.99238  0.38956  0.12605  1.0000
  C   C5        1.0  0.10437  0.46135  0.05434  1.0000
  N   N2        1.0  0.10421  0.45537  0.02485  1.0000
  C   C6        1.0  0.99307  0.46801  0.41881  1.0000
  H   H4        1.0  0.99286  0.39370  0.15064  1.0000
  C   C7        1.0  0.99067  0.44894  0.51651  1.0000
  H   H5        1.0  0.02796  0.45502  0.93728  1.0000
  H   H6        1.0  0.08228  0.44497  0.58797  1.0000
  H   H7        1.0  0.09485  0.45818  0.55715  1.0000
  C   C8        1.0  0.10142  0.46414  0.61732  1.0000
  C   C9        1.0  0.09096  0.44609  0.69084  1.0000
  H   H8        1.0  0.06826  0.49112  0.60015  1.0000
  C   C10       1.0  0.10333  0.46703  0.65209  1.0000
  S   S8        1.0  0.99472  0.40317  0.97280  1.0000
  C   C11       1.0  0.00112  0.38853  0.05887  1.0000
  H   H9        1.0  0.08321  0.43450  0.65738  1.0000
  Fe  Fe5       1.0  0.07510  0.46802  0.84004  1.0000
  S   S9        1.0  0.07825  0.45289  0.88827  1.0000
  S   S10       1.0  0.07962  0.47219  0.77175  1.0000
  Fe  Fe6       1.0  0.06823  0.48324  0.89888  1.0000
  S   S11       1.0  0.07064  0.46947  0.95077  1.0000
  Fe  Fe7       1.0  0.08826  0.46904  0.90772  1.0000
  S   S12       1.0  0.10755  0.47060  0.92005  1.0000
  Fe  Fe8       1.0  0.06026  0.45476  0.92750  1.0000
  S   S13       1.0  0.04377  0.44101  0.97735  1.0000
  S   S14       1.0  0.05670  0.46890  0.87831  1.0000
  C   C12       1.0  0.02998  0.43136  0.97350  1.0000
  C   C13       1.0  0.02975  0.42662  0.94044  1.0000
  C   C14       1.0  0.01881  0.41822  0.94019  1.0000
  C   C15       1.0  0.00787  0.41480  0.97226  1.0000
  C   C16       1.0  0.00795  0.42002  0.00446  1.0000
  C   C17       1.0  0.01899  0.42805  0.00537  1.0000
  H   H10       1.0  0.03814  0.42904  0.91574  1.0000
  H   H11       1.0  0.01889  0.41423  0.91515  1.0000
  H   H12       1.0  0.99965  0.41752  0.02938  1.0000
  H   H13       1.0  0.01904  0.43171  0.03101  1.0000
  C   C18       1.0  0.99398  0.48796  0.24169  1.0000
  Fe  Fe9       1.0  0.99276  0.48846  0.09282  1.0000
  C   C19       1.0  0.99773  0.45673  0.96068  1.0000
  H   H14       1.0  0.01268  0.48765  0.33373  1.0000
  H   H15       1.0  0.10864  0.47635  0.65054  1.0000
  H   H16       1.0  0.00225  0.46396  0.53050  1.0000
  H   H17       1.0  0.01316  0.44952  0.56559  1.0000
  H   H18       1.0  0.02832  0.48471  0.54862  1.0000
  H   H19       1.0  0.10458  0.48238  0.52422  1.0000
  C   C20       1.0  0.10931  0.48596  0.97178  1.0000
  H   H20       1.0  0.03920  0.46740  0.97221  1.0000
  C   C21       1.0  0.13447  0.49273  0.43396  1.0000
  N   N3        1.0  0.09428  0.45256  0.61945  1.0000
  C   C22       1.0  0.12636  0.45744  0.01208  1.0000
  C   C23       1.0  0.11502  0.45337  0.00380  1.0000
  H   H21       1.0  0.09586  0.46319  0.07036  1.0000
  C   C24       1.0  0.03126  0.48389  0.47077  1.0000
  H   H22       1.0  0.08893  0.45994  0.00480  1.0000
  H   H23       1.0  0.02439  0.47519  0.48851  1.0000
  H   H24       1.0  0.00547  0.45969  0.38362  1.0000
  C   C25       1.0  0.06365  0.45319  0.68551  1.0000
  C   C26       1.0  0.06094  0.44648  0.72616  1.0000
  C   C27       1.0  0.06516  0.45232  0.75368  1.0000
  C   C28       1.0  0.07229  0.46489  0.74060  1.0000
  C   C29       1.0  0.07474  0.47166  0.70018  1.0000
  C   C30       1.0  0.07037  0.46590  0.67293  1.0000
  H   H25       1.0  0.05577  0.43664  0.73626  1.0000
  H   H26       1.0  0.06327  0.44695  0.78462  1.0000
  H   H27       1.0  0.08035  0.48133  0.68953  1.0000
  H   H28       1.0  0.07257  0.47120  0.64192  1.0000
  C   C31       1.0  0.02468  0.44026  0.47114  1.0000
  C   C32       1.0  0.02380  0.42733  0.48641  1.0000
  C   C33       1.0  0.01500  0.41808  0.47869  1.0000
  C   C34       1.0  0.00700  0.42154  0.45536  1.0000
  C   C35       1.0  0.00810  0.43444  0.43931  1.0000
  C   C36       1.0  0.01679  0.44370  0.44736  1.0000
  H   H29       1.0  0.02977  0.42446  0.50467  1.0000
  H   H30       1.0  0.01432  0.40813  0.49120  1.0000
  H   H31       1.0  0.00211  0.43726  0.42117  1.0000
  H   H32       1.0  0.01731  0.45363  0.43540  1.0000
  S   S15       1.0  0.09832  0.47262  0.45960  1.0000
  H   H33       1.0  0.09902  0.46021  0.71648  1.0000
  H   H34       1.0  0.13369  0.47845  0.91525  1.0000
  C   C37       1.0  0.12436  0.49171  0.50239  1.0000
  C   C38       1.0  0.00813  0.45228  0.94684  1.0000
  C   C39       1.0  0.11289  0.48509  0.49927  1.0000
  H   H35       1.0  0.99523  0.44580  0.07901  1.0000
  H   H36       1.0  0.11578  0.47085  0.08541  1.0000
  H   H37       1.0  0.99636  0.48930  0.20953  1.0000
  N   N4        1.0  0.02109  0.46823  0.96556  1.0000
  H   H38       1.0  0.00714  0.44414  0.93487  1.0000
  H   H39       1.0  0.00729  0.42653  0.57123  1.0000
  H   H40       1.0  0.12272  0.48329  0.40385  1.0000
  C   C40       1.0  0.03348  0.47439  0.96738  1.0000
  H   H41       1.0  0.01658  0.49148  0.53003  1.0000
  C   C41       1.0  0.99918  0.46716  0.97614  1.0000
  H   H42       1.0  0.03275  0.47876  0.99263  1.0000
  H   H43       1.0  0.13543  0.46739  0.04739  1.0000
  C   C42       1.0  0.11556  0.46563  0.06319  1.0000
  H   H44       1.0  0.09804  0.44303  0.57455  1.0000
  C   C43       1.0  0.00573  0.44577  0.55359  1.0000
  C   C44       1.0  0.09803  0.45794  0.68906  1.0000
  C   C45       1.0  0.00244  0.43285  0.55675  1.0000
  C   C46       1.0  0.11227  0.48182  0.46397  1.0000
  C   C47       1.0  0.00194  0.39401  0.09015  1.0000
  C   C48       1.0  0.99340  0.42826  0.53894  1.0000
  C   C49       1.0  0.09240  0.45147  0.01525  1.0000
  H   H45       1.0  0.99905  0.37663  0.00545  1.0000
  C   C50       1.0  0.09231  0.44956  0.58296  1.0000
  H   H46       1.0  0.01193  0.48069  0.99163  1.0000
  S   S16       1.0  0.00493  0.47621  0.43437  1.0000
  S   S17       1.0  0.08634  0.48382  0.85692  1.0000
  C   C51       1.0  0.12866  0.48243  0.93696  1.0000
  H   H47       1.0  0.08644  0.43911  0.71959  1.0000
  C   C52       1.0  0.03771  0.48463  0.43164  1.0000
  C   C53       1.0  0.99595  0.46046  0.39346  1.0000
  C   C54       1.0  0.12662  0.46367  0.04182  1.0000
  H   H48       1.0  0.03845  0.48187  0.93886  1.0000
  H   H49       1.0  0.14518  0.48990  0.95381  1.0000
  C   C55       1.0  0.01986  0.45835  0.94883  1.0000
  C   C56       1.0  0.99022  0.37321  0.03029  1.0000
  C   C57       1.0  0.99973  0.45387  0.53367  1.0000
  H   H50       1.0  0.14275  0.49555  0.40870  1.0000
  H   H51       1.0  0.08526  0.44474  0.04196  1.0000
  H   H52       1.0  0.09933  0.48483  0.97723  1.0000
  H   H53       1.0  0.03575  0.47657  0.41977  1.0000
  H   H54       1.0  0.99116  0.47072  0.98689  1.0000
  C   C58       1.0  0.04666  0.49572  0.40840  1.0000
  H   H55       1.0  0.11501  0.44909  0.97932  1.0000
  H   H56       1.0  0.09357  0.44685  0.99053  1.0000
  H   H57       1.0  0.13497  0.45623  0.99443  1.0000
  C   C59       1.0  0.12310  0.48576  0.43131  1.0000
  H   H58       1.0  0.11070  0.49575  0.01706  1.0000
  H   H59       1.0  0.99128  0.41829  0.54006  1.0000
  H   H60       1.0  0.98853  0.45204  0.95980  1.0000
  Fe  Fe10      1.0  0.00153  0.49512  0.43594  1.0000
  C   C60       1.0  0.02671  0.49279  0.52753  1.0000
  C   C61       1.0  0.11581  0.49216  0.99442  1.0000
  H   H61       1.0  0.07187  0.49351  0.79768  1.0000
  C   C62       1.0  0.00301  0.49245  0.25971  1.0000
  N   N5        1.0  0.99103  0.37893  0.06318  1.0000
  N   N6        1.0  0.03365  0.49390  0.48637  1.0000
  C   C63       1.0  0.13523  0.48892  0.95889  1.0000
  H   H62       1.0  0.12481  0.49395  0.53012  1.0000
  C   C64       1.0  0.12879  0.49356  0.98855  1.0000
  H   H63       1.0  0.98897  0.44843  0.35994  1.0000
  C   C65       1.0  0.13522  0.49555  0.46979  1.0000
  S   S18       1.0  0.99541  0.46880  0.10229  1.0000
  C   C66       1.0  0.00943  0.49575  0.31883  1.0000
  S   S19       1.0  0.00778  0.52823  0.31283  1.0000
  H   H64       1.0  0.08189  0.53788  0.55012  1.0000
  Fe  Fe11      1.0  0.09157  0.57104  0.61781  1.0000
  S   S20       1.0  0.09407  0.58440  0.55665  1.0000
  S   S21       1.0  0.08465  0.57172  0.68253  1.0000
  Fe  Fe12      1.0  0.09706  0.55000  0.58204  1.0000
  S   S22       1.0  0.10047  0.56144  0.51889  1.0000
  S   S23       1.0  0.09721  0.52955  0.59987  1.0000
  Fe  Fe13      1.0  0.11125  0.57723  0.53706  1.0000
  S   S24       1.0  0.13085  0.58612  0.49382  1.0000
  Fe  Fe14      1.0  0.08309  0.56748  0.54265  1.0000
  S   S25       1.0  0.06857  0.56807  0.50635  1.0000
  S   S26       1.0  0.10921  0.56491  0.59872  1.0000
  S   S27       1.0  0.07919  0.55504  0.60508  1.0000
  C   C67       1.0  0.01662  0.54491  0.55875  1.0000
  C   C68       1.0  0.07581  0.50488  0.73683  1.0000
  H   H65       1.0  0.04009  0.57769  0.51451  1.0000
  N   N7        1.0  0.08329  0.52733  0.72523  1.0000
  H   H66       1.0  0.08908  0.51733  0.48587  1.0000
  C   C69       1.0  0.08243  0.52561  0.76511  1.0000
  H   H67       1.0  0.02532  0.54248  0.60710  1.0000
  H   H68       1.0  0.13586  0.55031  0.90878  1.0000
  C   C70       1.0  0.08691  0.60379  0.81953  1.0000
  H   H69       1.0  0.05503  0.56921  0.85565  1.0000
  H   H70       1.0  0.14776  0.62683  0.51903  1.0000
  C   C71       1.0  0.03338  0.56076  0.56389  1.0000
  H   H71       1.0  0.13980  0.52054  0.94567  1.0000
  C   C72       1.0  0.14957  0.62001  0.50258  1.0000
  H   H72       1.0  0.02702  0.54542  0.04363  1.0000
  Fe  Fe15      1.0  0.10903  0.58362  0.86435  1.0000
  S   S28       1.0  0.10499  0.59263  0.91542  1.0000
  S   S29       1.0  0.11300  0.59335  0.79780  1.0000
  Fe  Fe16      1.0  0.10678  0.55823  0.92055  1.0000
  S   S30       1.0  0.10272  0.56498  0.97533  1.0000
  S   S31       1.0  0.10820  0.53814  0.92741  1.0000
  Fe  Fe17      1.0  0.08989  0.57440  0.94664  1.0000
  S   S32       1.0  0.07001  0.57226  0.98372  1.0000
  Fe  Fe18      1.0  0.11828  0.58246  0.94044  1.0000
  S   S33       1.0  0.13324  0.58700  0.97355  1.0000
  S   S34       1.0  0.09305  0.56656  0.89385  1.0000
  S   S35       1.0  0.12322  0.57471  0.88720  1.0000
  C   C73       1.0  0.07531  0.51124  0.91141  1.0000
  C   C74       1.0  0.07489  0.52372  0.91023  1.0000
  C   C75       1.0  0.08502  0.53205  0.91474  1.0000
  C   C76       1.0  0.09563  0.52799  0.92015  1.0000
  C   C77       1.0  0.09600  0.51547  0.92152  1.0000
  C   C78       1.0  0.08585  0.50710  0.91719  1.0000
  H   H73       1.0  0.06669  0.52691  0.90622  1.0000
  H   H74       1.0  0.08438  0.54145  0.91524  1.0000
  H   H75       1.0  0.10412  0.51220  0.92605  1.0000
  S   S36       1.0  0.01701  0.51242  0.40352  1.0000
  H   H76       1.0  0.09299  0.54696  0.70908  1.0000
  S   S37       1.0  0.13615  0.50041  0.02098  1.0000
  S   S38       1.0  0.00454  0.50380  0.10917  1.0000
  C   C79       1.0  0.04846  0.54142  0.96678  1.0000
  C   C80       1.0  0.05861  0.55147  0.96288  1.0000
  C   C81       1.0  0.05739  0.55950  0.98770  1.0000
  C   C82       1.0  0.04586  0.55737  0.01637  1.0000
  H   H77       1.0  0.04954  0.53526  0.94744  1.0000
  H   H78       1.0  0.06738  0.55293  0.94074  1.0000
  H   H79       1.0  0.04478  0.56357  0.03559  1.0000
  H   H80       1.0  0.00238  0.53850  0.51551  1.0000
  H   H81       1.0  0.01053  0.53541  0.57030  1.0000
  H   H82       1.0  0.07464  0.51498  0.99207  1.0000
  C   C83       1.0  0.14419  0.59903  0.98282  1.0000
  C   C84       1.0  0.14647  0.61194  0.96351  1.0000
  C   C85       1.0  0.07011  0.52025  0.01045  1.0000
  H   H83       1.0  0.08755  0.53331  0.00436  1.0000
  N   N8        1.0  0.05737  0.51709  0.02535  1.0000
  H   H84       1.0  0.14112  0.61500  0.94323  1.0000
  H   H85       1.0  0.13196  0.52877  0.91339  1.0000
  C   C86       1.0  0.00614  0.52550  0.23903  1.0000
  C   C87       1.0  0.07505  0.50302  0.77742  1.0000
  N   N9        1.0  0.07150  0.58384  0.84407  1.0000
  H   H86       1.0  0.15007  0.64034  0.37664  1.0000
  H   H87       1.0  0.07726  0.54582  0.04537  1.0000
  H   H88       1.0  0.14489  0.58265  0.55658  1.0000
  H   H89       1.0  0.13327  0.52434  0.01943  1.0000
  C   C88       1.0  0.00813  0.54837  0.50050  1.0000
  C   C89       1.0  0.07173  0.53751  0.04077  1.0000
  C   C90       1.0  0.09407  0.57671  0.71253  1.0000
  C   C91       1.0  0.10392  0.58767  0.69759  1.0000
  C   C92       1.0  0.10990  0.59244  0.72383  1.0000
  C   C93       1.0  0.10633  0.58617  0.76505  1.0000
  C   C94       1.0  0.09691  0.57487  0.77955  1.0000
  C   C95       1.0  0.09066  0.57032  0.75361  1.0000
  H   H90       1.0  0.10653  0.59280  0.66617  1.0000
  H   H91       1.0  0.11716  0.60119  0.71222  1.0000
  H   H92       1.0  0.09411  0.56986  0.81099  1.0000
  H   H93       1.0  0.08301  0.56189  0.76553  1.0000
  C   C96       1.0  0.14214  0.60037  0.48667  1.0000
  C   C97       1.0  0.13698  0.54390  0.01866  1.0000
  H   H94       1.0  0.07883  0.54363  0.69419  1.0000
  H   H95       1.0  0.15284  0.57255  0.48306  1.0000
  H   H96       1.0  0.04036  0.56369  0.57869  1.0000
  C   C98       1.0  0.13996  0.60918  0.50813  1.0000
  H   H97       1.0  0.10290  0.53356  0.50917  1.0000
  C   C99       1.0  0.07748  0.53056  0.01760  1.0000
  H   H98       1.0  0.14946  0.52752  0.24077  1.0000
  H   H99       1.0  0.13088  0.60765  0.52893  1.0000
  C   C100      1.0  0.05746  0.55537  0.50077  1.0000
  C   C101      1.0  0.05260  0.54373  0.53022  1.0000
  C   C102      1.0  0.04278  0.53448  0.52703  1.0000
  C   C103      1.0  0.03760  0.53667  0.49446  1.0000
  C   C104      1.0  0.05249  0.55744  0.46763  1.0000
  H   H100      1.0  0.05618  0.54198  0.55609  1.0000
  H   H101      1.0  0.03903  0.52563  0.55050  1.0000
  H   H102      1.0  0.05611  0.56640  0.44466  1.0000
  C   C105      1.0  0.15127  0.59535  0.00925  1.0000
  H   H103      1.0  0.06310  0.57740  0.90733  1.0000
  H   H104      1.0  0.14959  0.58543  0.02463  1.0000
  C   C106      1.0  0.08480  0.52116  0.58695  1.0000
  C   C107      1.0  0.08091  0.50794  0.60115  1.0000
  H   H105      1.0  0.04691  0.51198  0.98661  1.0000
  C   C108      1.0  0.06635  0.50781  0.56051  1.0000
  C   C109      1.0  0.07000  0.52100  0.54734  1.0000
  C   C110      1.0  0.07908  0.52768  0.56097  1.0000
  H   H106      1.0  0.02489  0.57045  0.47899  1.0000
  C   C111      1.0  0.11063  0.53153  0.48961  1.0000
  H   H107      1.0  0.06614  0.52603  0.52542  1.0000
  C   C112      1.0  0.02469  0.56444  0.50770  1.0000
  C   C113      1.0  0.02498  0.54884  0.57971  1.0000
  H   H108      1.0  0.01751  0.50308  0.29678  1.0000
  C   C114      1.0  0.06495  0.57228  0.83713  1.0000
  C   C115      1.0  0.13854  0.55860  0.95594  1.0000
  H   H109      1.0  0.00171  0.55465  0.49689  1.0000
  H   H110      1.0  0.06496  0.57376  0.80518  1.0000
  H   H111      1.0  0.01594  0.53045  0.22854  1.0000
  H   H112      1.0  0.06963  0.56457  0.84518  1.0000
  H   H113      1.0  0.05599  0.51458  0.40690  1.0000
  H   H114      1.0  0.09291  0.54031  0.66795  1.0000
  S   S39       1.0  0.99697  0.52849  0.43257  1.0000
  C   C116      1.0  0.13636  0.54845  0.93951  1.0000
  H   H115      1.0  0.12382  0.54831  0.48880  1.0000
  H   H116      1.0  0.05492  0.50042  0.00486  1.0000
  H   H117      1.0  0.08490  0.53366  0.77656  1.0000
  H   H118      1.0  0.14064  0.56413  0.00877  1.0000
  H   H119      1.0  0.11723  0.50995  0.44147  1.0000
  S   S40       1.0  0.06254  0.50083  0.90650  1.0000
  C   C117      1.0  0.99998  0.52175  0.21166  1.0000
  N   N10       1.0  0.10881  0.52094  0.47630  1.0000
  H   H120      1.0  0.09569  0.50498  0.47242  1.0000
  C   C118      1.0  0.11862  0.51834  0.45196  1.0000
  C   C119      1.0  0.12248  0.53989  0.47831  1.0000
  C   C120      1.0  0.13063  0.52638  0.44061  1.0000
  C   C121      1.0  0.13256  0.53726  0.45372  1.0000
  C   C122      1.0  0.13479  0.53395  0.00134  1.0000
  H   H121      1.0  0.04444  0.51271  0.47636  1.0000
  C   C123      1.0  0.07836  0.51342  0.79176  1.0000
  C   C124      1.0  0.07152  0.50128  0.58836  1.0000
  H   H122      1.0  0.07502  0.59607  0.92074  1.0000
  H   H123      1.0  0.08515  0.50286  0.62182  1.0000
  H   H124      1.0  0.08166  0.59228  0.78241  1.0000
  H   H125      1.0  0.12312  0.51902  0.96225  1.0000
  N   N11       1.0  0.13454  0.53629  0.96221  1.0000
  C   C125      1.0  0.05877  0.53392  0.05717  1.0000
  H   H126      1.0  0.04156  0.52134  0.06008  1.0000
  H   H127      1.0  0.05419  0.53943  0.07454  1.0000
  C   C126      1.0  0.03576  0.54711  0.02093  1.0000
  S   S41       1.0  0.15169  0.51987  0.07734  1.0000
  C   C127      1.0  0.07638  0.59542  0.89016  1.0000
  C   C128      1.0  0.08512  0.60489  0.85850  1.0000
  H   H128      1.0  0.01245  0.49714  0.24113  1.0000
  H   H129      1.0  0.14796  0.52720  0.17244  1.0000
  S   S42       1.0  0.02410  0.52523  0.49521  1.0000
  C   C129      1.0  0.03703  0.53906  0.99613  1.0000
  C   C130      1.0  0.04271  0.54815  0.46430  1.0000
  H   H130      1.0  0.00505  0.52381  0.18043  1.0000
  S   S43       1.0  0.14953  0.50338  0.47590  1.0000
  C   C131      1.0  0.05169  0.52366  0.04896  1.0000
  C   C132      1.0  0.07996  0.59316  0.81277  1.0000
  H   H131      1.0  0.14186  0.54359  0.44491  1.0000
  C   C133      1.0  0.06966  0.58486  0.88238  1.0000
  H   H132      1.0  0.01366  0.54835  0.47047  1.0000
  H   H133      1.0  0.08620  0.49742  0.91870  1.0000
  C   C134      1.0  0.07991  0.51719  0.71101  1.0000
  C   C135      1.0  0.04241  0.50483  0.46380  1.0000
  Fe  Fe19      1.0  0.00198  0.51985  0.38083  1.0000
  H   H134      1.0  0.03892  0.55003  0.43894  1.0000
  C   C136      1.0  0.13888  0.55631  0.99573  1.0000
  H   H135      1.0  0.09401  0.61086  0.79481  1.0000
  H   H136      1.0  0.08039  0.51857  0.67951  1.0000
  H   H137      1.0  0.13739  0.54205  0.04947  1.0000
  C   C137      1.0  0.04971  0.50738  0.01317  1.0000
  H   H138      1.0  0.09070  0.61292  0.86425  1.0000
  Fe  Fe20      1.0  0.01108  0.51961  0.45711  1.0000
  C   C138      1.0  0.03323  0.56864  0.52775  1.0000
  C   C139      1.0  0.08719  0.54017  0.69787  1.0000
  N   N12       1.0  0.01659  0.55268  0.52315  1.0000
  H   H139      1.0  0.02986  0.50143  0.53682  1.0000
  Fe  Fe21      1.0  0.00602  0.51590  0.04771  1.0000
  S   S44       1.0  0.99557  0.49982  0.03012  1.0000
  S   S45       1.0  0.02512  0.52542  0.00201  1.0000
  C   C140      1.0  0.99969  0.52301  0.27976  1.0000
  H   H140      1.0  0.04107  0.50212  0.03762  1.0000
  S   S46       1.0  0.99657  0.50132  0.49129  1.0000
  H   H141      1.0  0.13984  0.56820  0.93808  1.0000
  C   C141      1.0  0.13230  0.52565  0.94492  1.0000
  C   C142      1.0  0.09638  0.51212  0.48965  1.0000
  C   C143      1.0  0.04904  0.50591  0.42451  1.0000
  H   H142      1.0  0.14548  0.56381  0.53477  1.0000
  H   H143      1.0  0.07777  0.51205  0.82333  1.0000
  H   H144      1.0  0.00557  0.50033  0.34173  1.0000
  H   H145      1.0  0.09428  0.50696  0.52180  1.0000
  H   H146      1.0  0.13839  0.52405  0.42218  1.0000
  S   S47       1.0  0.05608  0.49970  0.53934  1.0000
  C   C144      1.0  0.15400  0.60252  0.45981  1.0000
  C   C145      1.0  0.15464  0.56866  0.51225  1.0000
  C   C146      1.0  0.15502  0.53449  0.17630  1.0000
  H   H147      1.0  0.07326  0.49680  0.72556  1.0000
  Fe  Fe22      1.0  0.15513  0.50970  0.02934  1.0000
  C   C147      1.0  0.15504  0.58549  0.54622  1.0000
  H   H148      1.0  0.05176  0.49637  0.37809  1.0000
  H   H149      1.0  0.16951  0.49038  0.48400  1.0000
  C   C148      1.0  0.17667  0.49494  0.49556  1.0000
  C   C149      1.0  0.18905  0.49439  0.48199  1.0000
  H   H150      1.0  0.19162  0.48948  0.45956  1.0000
  Fe  Fe23      1.0  0.28715  0.58241  0.53423  1.0000
  S   S48       1.0  0.26726  0.57599  0.57234  1.0000
  S   S49       1.0  0.29627  0.60339  0.51082  1.0000
  Fe  Fe24      1.0  0.28949  0.55586  0.54083  1.0000
  S   S50       1.0  0.26964  0.54710  0.57992  1.0000
  Fe  Fe25      1.0  0.26438  0.56188  0.53659  1.0000
  S   S51       1.0  0.24618  0.56113  0.51724  1.0000
  Fe  Fe26      1.0  0.27391  0.56181  0.61245  1.0000
  S   S52       1.0  0.26714  0.55768  0.68045  1.0000
  S   S53       1.0  0.28405  0.56960  0.49515  1.0000
  S   S54       1.0  0.29397  0.56928  0.57692  1.0000
  H   H151      1.0  0.18175  0.58080  0.96383  1.0000
  N   N13       1.0  0.27545  0.69849  0.84325  1.0000
  H   H152      1.0  0.17965  0.55926  0.12226  1.0000
  S   S55       1.0  0.28867  0.69789  0.57732  1.0000
  H   H153      1.0  0.16008  0.56147  0.50872  1.0000
  Fe  Fe27      1.0  0.29923  0.55668  0.94013  1.0000
  S   S56       1.0  0.30899  0.57488  0.89235  1.0000
  Fe  Fe28      1.0  0.27324  0.56176  0.94473  1.0000
  S   S57       1.0  0.28144  0.58051  0.89737  1.0000
  S   S58       1.0  0.25276  0.55684  0.98157  1.0000
  Fe  Fe29      1.0  0.29332  0.56996  0.86437  1.0000
  S   S59       1.0  0.29906  0.57341  0.79606  1.0000
  Fe  Fe30      1.0  0.29630  0.58373  0.92948  1.0000
  S   S60       1.0  0.30295  0.60288  0.94097  1.0000
  S   S61       1.0  0.28432  0.55097  0.91015  1.0000
  S   S62       1.0  0.28734  0.56580  0.97884  1.0000
  H   H154      1.0  0.27773  0.59145  0.72292  1.0000
  Fe  Fe31      1.0  0.32008  0.70827  0.91087  1.0000
  H   H155      1.0  0.18543  0.62527  0.26286  1.0000
  H   H156      1.0  0.30060  0.66654  0.06872  1.0000
  C   C150      1.0  0.29679  0.54023  0.70008  1.0000
  C   C151      1.0  0.20000  0.63796  0.27502  1.0000
  S   S63       1.0  0.31392  0.72624  0.77976  1.0000
  H   H157      1.0  0.30952  0.68920  0.38470  1.0000
  H   H158      1.0  0.18031  0.56906  0.20153  1.0000
  Fe  Fe32      1.0  0.19468  0.52985  0.41405  1.0000
  S   S64       1.0  0.17673  0.53139  0.45272  1.0000
  S   S65       1.0  0.21228  0.52823  0.43513  1.0000
  Fe  Fe33      1.0  0.18347  0.52969  0.34220  1.0000
  S   S66       1.0  0.16485  0.53158  0.37562  1.0000
  S   S67       1.0  0.18922  0.53262  0.27440  1.0000
  Fe  Fe34      1.0  0.17615  0.54551  0.39825  1.0000
  S   S68       1.0  0.17022  0.56319  0.40380  1.0000
  Fe  Fe35      1.0  0.16653  0.51710  0.42780  1.0000
  Fe  Fe36      1.0  0.30926  0.70243  0.54654  1.0000
  S   S69       1.0  0.19471  0.54507  0.36080  1.0000
  S   S70       1.0  0.18463  0.51412  0.39317  1.0000
  Fe  Fe37      1.0  0.22172  0.64726  0.43466  1.0000
  S   S71       1.0  0.22785  0.63871  0.38410  1.0000
  S   S72       1.0  0.23561  0.65285  0.47025  1.0000
  Fe  Fe38      1.0  0.21163  0.62209  0.41778  1.0000
  S   S73       1.0  0.21390  0.60224  0.42766  1.0000
  Fe  Fe39      1.0  0.21822  0.63870  0.03063  1.0000
  S   S74       1.0  0.21671  0.62478  0.08907  1.0000
  S   S75       1.0  0.23773  0.64912  0.98807  1.0000
  Fe  Fe40      1.0  0.20520  0.61053  0.06787  1.0000
  S   S76       1.0  0.20850  0.59122  0.06965  1.0000
  H   H159      1.0  0.16536  0.61284  0.88577  1.0000
  Fe  Fe41      1.0  0.16637  0.51216  0.10039  1.0000
  S   S77       1.0  0.18194  0.52893  0.06351  1.0000
  H   H160      1.0  0.19871  0.66913  0.26714  1.0000
  H   H161      1.0  0.28885  0.72898  0.77469  1.0000
  S   S78       1.0  0.17014  0.52656  0.98658  1.0000
  C   C152      1.0  0.19914  0.50690  0.11725  1.0000
  Fe  Fe42      1.0  0.18378  0.51862  0.01618  1.0000
  S   S79       1.0  0.20330  0.51886  0.98048  1.0000
  Fe  Fe43      1.0  0.16758  0.53580  0.03649  1.0000
  H   H162      1.0  0.18720  0.59403  0.28384  1.0000
  C   C153      1.0  0.31106  0.59448  0.00776  1.0000
  C   C154      1.0  0.16884  0.58390  0.92935  1.0000
  C   C155      1.0  0.26045  0.58948  0.98538  1.0000
  C   C156      1.0  0.15585  0.62094  0.96990  1.0000
  C   C157      1.0  0.31119  0.72138  0.70969  1.0000
  H   H163      1.0  0.16497  0.57387  0.93435  1.0000
  S   S80       1.0  0.17559  0.62893  0.99968  1.0000
  H   H164      1.0  0.30030  0.68460  0.01795  1.0000
  C   C158      1.0  0.19674  0.58152  0.05736  1.0000
  C   C159      1.0  0.18517  0.58439  0.05911  1.0000
  C   C160      1.0  0.17572  0.57643  0.05019  1.0000
  C   C161      1.0  0.17782  0.56562  0.03912  1.0000
  C   C162      1.0  0.18949  0.56290  0.03632  1.0000
  C   C163      1.0  0.19889  0.57075  0.04590  1.0000
  C   C164      1.0  0.17956  0.65486  0.36138  1.0000
  H   H165      1.0  0.19718  0.50017  0.06618  1.0000
  H   H166      1.0  0.19141  0.55491  0.02598  1.0000
  H   H167      1.0  0.20788  0.56855  0.04395  1.0000
  H   H168      1.0  0.22466  0.65922  0.20370  1.0000
  C   C165      1.0  0.18211  0.52402  0.24577  1.0000
  C   C166      1.0  0.17174  0.51364  0.26337  1.0000
  C   C167      1.0  0.16608  0.50750  0.23904  1.0000
  C   C168      1.0  0.17054  0.51185  0.19699  1.0000
  C   C169      1.0  0.18089  0.52226  0.17945  1.0000
  C   C170      1.0  0.18674  0.52819  0.20374  1.0000
  H   H169      1.0  0.16810  0.51032  0.29568  1.0000
  C   C171      1.0  0.17299  0.55239  0.14835  1.0000
  H   H170      1.0  0.18438  0.52576  0.14720  1.0000
  H   H171      1.0  0.19475  0.53622  0.18988  1.0000
  C   C172      1.0  0.18243  0.57399  0.40997  1.0000
  C   C173      1.0  0.19321  0.57043  0.41598  1.0000
  C   C174      1.0  0.20288  0.57916  0.42130  1.0000
  C   C175      1.0  0.20175  0.59143  0.42088  1.0000
  C   C176      1.0  0.19088  0.59489  0.41545  1.0000
  C   C177      1.0  0.18128  0.58623  0.40968  1.0000
  H   H172      1.0  0.19410  0.56092  0.41681  1.0000
  H   H173      1.0  0.21122  0.57637  0.42580  1.0000
  H   H174      1.0  0.18965  0.60406  0.41692  1.0000
  H   H175      1.0  0.17290  0.58896  0.40547  1.0000
  C   C178      1.0  0.24740  0.58618  0.99706  1.0000
  C   C179      1.0  0.30990  0.66990  0.47275  1.0000
  H   H176      1.0  0.24094  0.53120  0.05216  1.0000
  H   H177      1.0  0.18927  0.50334  0.13345  1.0000
  C   C180      1.0  0.26008  0.67633  0.50755  1.0000
  H   H178      1.0  0.31298  0.63577  0.03275  1.0000
  H   H179      1.0  0.30794  0.60336  0.58863  1.0000
  C   C181      1.0  0.21629  0.50963  0.05929  1.0000
  H   H180      1.0  0.32105  0.67388  0.41156  1.0000
  C   C182      1.0  0.18405  0.56148  0.19136  1.0000
  S   S81       1.0  0.31429  0.72072  0.56206  1.0000
  C   C183      1.0  0.25502  0.69243  0.89024  1.0000
  H   H181      1.0  0.28839  0.53121  0.60932  1.0000
  C   C184      1.0  0.30692  0.68445  0.41653  1.0000
  C   C185      1.0  0.17359  0.50169  0.52331  1.0000
  C   C186      1.0  0.29300  0.72203  0.68448  1.0000
  H   H182      1.0  0.25108  0.70531  0.92549  1.0000
  C   C187      1.0  0.23914  0.54707  0.97720  1.0000
  C   C188      1.0  0.22746  0.54690  0.00168  1.0000
  C   C189      1.0  0.21641  0.53869  0.00174  1.0000
  C   C190      1.0  0.21687  0.53039  0.97763  1.0000
  C   C191      1.0  0.22855  0.53063  0.95284  1.0000
  C   C192      1.0  0.23964  0.53898  0.95238  1.0000
  H   H183      1.0  0.22695  0.55306  0.02115  1.0000
  H   H184      1.0  0.20758  0.53865  0.02104  1.0000
  H   H185      1.0  0.22905  0.52423  0.93414  1.0000
  H   H186      1.0  0.24857  0.53896  0.93352  1.0000
  H   H187      1.0  0.24328  0.51552  0.06919  1.0000
  H   H188      1.0  0.19731  0.59711  0.96997  1.0000
  H   H189      1.0  0.28715  0.71627  0.83974  1.0000
  C   C193      1.0  0.16367  0.61314  0.45506  1.0000
  C   C194      1.0  0.20746  0.51339  0.13375  1.0000
  C   C195      1.0  0.25775  0.70357  0.90151  1.0000
  C   C196      1.0  0.22010  0.51806  0.11216  1.0000
  C   C197      1.0  0.20356  0.50503  0.07973  1.0000
  H   H190      1.0  0.30972  0.71796  0.65335  1.0000
  C   C198      1.0  0.26438  0.68695  0.97938  1.0000
  C   C199      1.0  0.26826  0.67901  0.95644  1.0000
  C   C200      1.0  0.26001  0.66743  0.95977  1.0000
  C   C201      1.0  0.24784  0.66360  0.98622  1.0000
  C   C202      1.0  0.24404  0.67147  0.00947  1.0000
  C   C203      1.0  0.25226  0.68308  0.00597  1.0000
  H   H191      1.0  0.26304  0.66143  0.94155  1.0000
  H   H192      1.0  0.23472  0.66869  0.02986  1.0000
  H   H193      1.0  0.24915  0.68915  0.02383  1.0000
  C   C204      1.0  0.26690  0.60193  0.98004  1.0000
  H   H194      1.0  0.19095  0.59690  0.50433  1.0000
  C   C205      1.0  0.30535  0.72430  0.74452  1.0000
  H   H195      1.0  0.20412  0.51481  0.16307  1.0000
  C   C206      1.0  0.18056  0.65621  0.28201  1.0000
  H   H196      1.0  0.18187  0.61938  0.91743  1.0000
  C   C207      1.0  0.27627  0.56161  0.71247  1.0000
  C   C208      1.0  0.28922  0.56666  0.69829  1.0000
  C   C209      1.0  0.29608  0.56981  0.72465  1.0000
  C   C210      1.0  0.29010  0.56807  0.76535  1.0000
  C   C211      1.0  0.27718  0.56285  0.77962  1.0000
  C   C212      1.0  0.27033  0.55961  0.75330  1.0000
  H   H197      1.0  0.29394  0.56820  0.66701  1.0000
  H   H198      1.0  0.30609  0.57378  0.71335  1.0000
  H   H199      1.0  0.27245  0.56145  0.81084  1.0000
  H   H200      1.0  0.26032  0.55565  0.76465  1.0000
  C   C213      1.0  0.31271  0.60736  0.50048  1.0000
  H   H201      1.0  0.28292  0.69901  0.78254  1.0000
  C   C214      1.0  0.17855  0.60941  0.91969  1.0000
  Fe  Fe44      1.0  0.19008  0.62809  0.03603  1.0000
  S   S82       1.0  0.16578  0.55583  0.02825  1.0000
  C   C215      1.0  0.26853  0.52528  0.67366  1.0000
  H   H202      1.0  0.31444  0.62746  0.48133  1.0000
  N   N14       1.0  0.18303  0.60050  0.94140  1.0000
  Fe  Fe45      1.0  0.31661  0.73429  0.91604  1.0000
  C   C216      1.0  0.23717  0.55206  0.49304  1.0000
  C   C217      1.0  0.22631  0.55539  0.48575  1.0000
  C   C218      1.0  0.21876  0.54846  0.46725  1.0000
  C   C219      1.0  0.22194  0.53804  0.45571  1.0000
  C   C220      1.0  0.23283  0.53475  0.46283  1.0000
  C   C221      1.0  0.24039  0.54169  0.48127  1.0000
  H   H203      1.0  0.22367  0.56337  0.49465  1.0000
  H   H204      1.0  0.21043  0.55113  0.46219  1.0000
  H   H205      1.0  0.23544  0.52674  0.45406  1.0000
  H   H206      1.0  0.24870  0.53900  0.48644  1.0000
  C   C222      1.0  0.28444  0.53455  0.70243  1.0000
  H   H207      1.0  0.31421  0.58808  0.51710  1.0000
  C   C223      1.0  0.16151  0.62199  0.47632  1.0000
  H   H208      1.0  0.18827  0.55670  0.21402  1.0000
  H   H209      1.0  0.17936  0.57767  0.49271  1.0000
  H   H210      1.0  0.30527  0.66509  0.94800  1.0000
  C   C224      1.0  0.21526  0.61309  0.31412  1.0000
  H   H211      1.0  0.26556  0.58241  0.98028  1.0000
  C   C225      1.0  0.26249  0.68827  0.48025  1.0000
  C   C226      1.0  0.25644  0.68933  0.44958  1.0000
  C   C227      1.0  0.24816  0.67872  0.44610  1.0000
  C   C228      1.0  0.24580  0.66678  0.47324  1.0000
  C   C229      1.0  0.25188  0.66570  0.50388  1.0000
  S   S83       1.0  0.20628  0.62969  0.47017  1.0000
  H   H212      1.0  0.25813  0.69848  0.42833  1.0000
  H   H213      1.0  0.24361  0.67980  0.42237  1.0000
  H   H214      1.0  0.25008  0.65658  0.52535  1.0000
  S   S84       1.0  0.30304  0.54378  0.52847  1.0000
  H   H215      1.0  0.23963  0.52042  0.02236  1.0000
  C   C230      1.0  0.24290  0.60101  0.46246  1.0000
  C   C231      1.0  0.25757  0.61471  0.48195  1.0000
  C   C232      1.0  0.25005  0.59208  0.46419  1.0000
  C   C233      1.0  0.26493  0.60594  0.48420  1.0000
  C   C234      1.0  0.26108  0.59454  0.47539  1.0000
  H   H216      1.0  0.24231  0.57655  0.00091  1.0000
  H   H217      1.0  0.26062  0.62358  0.48864  1.0000
  H   H218      1.0  0.24697  0.58323  0.45730  1.0000
  H   H219      1.0  0.27355  0.60793  0.49271  1.0000
  H   H220      1.0  0.26659  0.58756  0.47736  1.0000
  C   C235      1.0  0.29832  0.67862  0.99791  1.0000
  H   H221      1.0  0.19208  0.60402  0.23345  1.0000
  S   S85       1.0  0.30990  0.71495  0.96082  1.0000
  H   H222      1.0  0.15657  0.59000  0.89484  1.0000
  C   C236      1.0  0.29719  0.68701  0.44275  1.0000
  C   C237      1.0  0.21106  0.64759  0.25865  1.0000
  H   H223      1.0  0.31572  0.54730  0.66187  1.0000
  N   N15       1.0  0.17396  0.55228  0.18601  1.0000
  C   C238      1.0  0.17025  0.64848  0.31327  1.0000
  N   N16       1.0  0.24733  0.60749  0.99913  1.0000
  C   C239      1.0  0.26014  0.61089  0.98689  1.0000
  C   C240      1.0  0.24039  0.61704  0.00548  1.0000
  H   H224      1.0  0.26520  0.62057  0.98241  1.0000
  H   H225      1.0  0.27706  0.60457  0.97053  1.0000
  H   H226      1.0  0.23869  0.62183  0.97704  1.0000
  H   H227      1.0  0.23122  0.61266  0.02844  1.0000
  H   H228      1.0  0.24558  0.62438  0.01642  1.0000
  N   N17       1.0  0.29679  0.59941  0.68840  1.0000
  S   S86       1.0  0.16284  0.50416  0.16752  1.0000
  C   C241      1.0  0.30521  0.60267  0.65133  1.0000
  C   C242      1.0  0.15586  0.53467  0.21465  1.0000
  H   H229      1.0  0.20463  0.52400  0.53340  1.0000
  H   H230      1.0  0.21960  0.50814  0.03006  1.0000
  C   C243      1.0  0.16356  0.54348  0.14291  1.0000
  S   S87       1.0  0.17335  0.63578  0.46968  1.0000
  H   H231      1.0  0.27163  0.72076  0.89232  1.0000
  C   C244      1.0  0.26933  0.71223  0.88298  1.0000
  H   H232      1.0  0.15968  0.62973  0.38967  1.0000
  H   H233      1.0  0.16267  0.64276  0.30611  1.0000
  N   N18       1.0  0.22435  0.51621  0.07533  1.0000
  Fe  Fe46      1.0  0.31099  0.72958  0.50360  1.0000
  H   H234      1.0  0.21547  0.61204  0.34492  1.0000
  S   S88       1.0  0.16903  0.50086  0.05538  1.0000
  H   H235      1.0  0.28550  0.59414  0.59744  1.0000
  C   C245      1.0  0.30614  0.54273  0.66430  1.0000
  H   H236      1.0  0.28668  0.68324  0.50402  1.0000
  C   C246      1.0  0.21448  0.61561  0.23562  1.0000
  S   S89       1.0  0.27300  0.70212  0.48253  1.0000
  C   C247      1.0  0.16056  0.60436  0.01593  1.0000
  C   C248      1.0  0.23769  0.52102  0.05380  1.0000
  C   C249      1.0  0.21615  0.65171  0.21675  1.0000
  C   C250      1.0  0.21037  0.64611  0.19152  1.0000
  C   C251      1.0  0.30285  0.66175  0.04570  1.0000
  Fe  Fe47      1.0  0.29382  0.71151  0.93394  1.0000
  H   H237      1.0  0.21444  0.64929  0.15935  1.0000
  C   C252      1.0  0.16136  0.59631  0.55376  1.0000
  C   C253      1.0  0.28437  0.59439  0.69338  1.0000
  H   H238      1.0  0.28438  0.68560  0.81900  1.0000
  H   H239      1.0  0.27752  0.68189  0.93568  1.0000
  N   N19       1.0  0.16148  0.57902  0.52408  1.0000
  H   H240      1.0  0.16628  0.54353  0.24886  1.0000
  C   C254      1.0  0.29696  0.66640  0.54145  1.0000
  Fe  Fe48      1.0  0.21380  0.64659  0.35706  1.0000
  S   S90       1.0  0.21858  0.65489  0.28940  1.0000
  N   N20       1.0  0.24665  0.61212  0.47157  1.0000
  C   C255      1.0  0.24095  0.59536  0.00362  1.0000
  H   H241      1.0  0.23081  0.59270  0.01243  1.0000
  S   S91       1.0  0.20805  0.62380  0.00786  1.0000
  C   C256      1.0  0.29412  0.68103  0.48381  1.0000
  H   H242      1.0  0.20300  0.50941  0.57109  1.0000
  H   H243      1.0  0.24614  0.68550  0.90522  1.0000
  S   S92       1.0  0.28528  0.72154  0.64643  1.0000
  C   C257      1.0  0.20470  0.51383  0.53858  1.0000
  H   H244      1.0  0.22650  0.52319  0.12502  1.0000
  S   S93       1.0  0.30909  0.54317  0.97103  1.0000
  C   C258      1.0  0.32013  0.56338  0.46757  1.0000
  H   H245      1.0  0.26780  0.52086  0.64900  1.0000
  N   N21       1.0  0.30055  0.67272  0.49836  1.0000
  C   C259      1.0  0.16541  0.54373  0.21900  1.0000
  C   C260      1.0  0.18086  0.59368  0.51674  1.0000
  C   C261      1.0  0.16918  0.60577  0.90184  1.0000
  S   S94       1.0  0.19818  0.62925  0.38682  1.0000
  H   H246      1.0  0.23433  0.59891  0.45398  1.0000
  S   S95       1.0  0.20853  0.65639  0.40537  1.0000
  H   H247      1.0  0.26433  0.67529  0.53196  1.0000
  H   H248      1.0  0.24397  0.62972  0.44205  1.0000
  H   H249      1.0  0.31309  0.56870  0.47086  1.0000
  C   C262      1.0  0.28715  0.72501  0.71921  1.0000
  H   H250      1.0  0.31506  0.60659  0.64741  1.0000
  H   H251      1.0  0.21408  0.61687  0.20484  1.0000
  C   C263      1.0  0.30505  0.72018  0.67995  1.0000
  S   S96       1.0  0.29038  0.72726  0.53007  1.0000
  H   H252      1.0  0.18339  0.59265  0.06781  1.0000
  C   C264      1.0  0.22425  0.62258  0.28321  1.0000
  C   C265      1.0  0.31938  0.62014  0.48654  1.0000
  C   C266      1.0  0.19231  0.60452  0.96174  1.0000
  C   C267      1.0  0.26401  0.69006  0.86070  1.0000
  H   H253      1.0  0.23080  0.63124  0.21941  1.0000
  H   H254      1.0  0.16672  0.57860  0.05226  1.0000
  S   S97       1.0  0.27405  0.70200  0.97476  1.0000
  H   H255      1.0  0.28811  0.67641  0.00099  1.0000
  N   N22       1.0  0.28156  0.53118  0.67034  1.0000
  C   C268      1.0  0.17424  0.58284  0.51004  1.0000
  H   H256      1.0  0.30479  0.58540  0.01228  1.0000
  C   C269      1.0  0.19047  0.66337  0.29097  1.0000
  C   C270      1.0  0.22398  0.62375  0.24362  1.0000
  H   H257      1.0  0.19788  0.66794  0.33795  1.0000
  C   C271      1.0  0.20591  0.60508  0.30507  1.0000
  C   C272      1.0  0.17434  0.60052  0.53840  1.0000
  C   C273      1.0  0.16423  0.59293  0.90705  1.0000
  C   C274      1.0  0.28471  0.69586  0.81216  1.0000
  C   C275      1.0  0.30123  0.60143  0.72266  1.0000
  S   S98       1.0  0.30737  0.71140  0.48619  1.0000
  N   N23       1.0  0.20544  0.60663  0.26628  1.0000
  N   N24       1.0  0.30244  0.66690  0.00750  1.0000
  Fe  Fe49      1.0  0.19855  0.62961  0.11226  1.0000
  C   C276      1.0  0.19925  0.63656  0.20801  1.0000
  C   C277      1.0  0.23922  0.62155  0.46894  1.0000
  C   C278      1.0  0.17832  0.58789  0.94630  1.0000
  Fe  Fe50      1.0  0.28697  0.70811  0.51735  1.0000
  C   C279      1.0  0.31870  0.59593  0.03346  1.0000
  C   C280      1.0  0.19405  0.63262  0.24982  1.0000
  H   H258      1.0  0.19586  0.63478  0.30702  1.0000
  H   H259      1.0  0.29440  0.70092  0.80989  1.0000
  H   H260      1.0  0.23798  0.62515  0.49589  1.0000
  H   H261      1.0  0.22972  0.61753  0.46690  1.0000
  C   C281      1.0  0.28864  0.59570  0.62292  1.0000
  H   H262      1.0  0.19171  0.56594  0.16301  1.0000
  Fe  Fe51      1.0  0.19373  0.63799  0.43719  1.0000
  S   S99       1.0  0.18686  0.61405  0.09544  1.0000
  S   S100      1.0  0.20041  0.64436  0.05450  1.0000
  S   S101      1.0  0.30357  0.70337  0.88760  1.0000
  S   S102      1.0  0.19155  0.62897  0.17831  1.0000
  Fe  Fe52      1.0  0.29357  0.71714  0.58806  1.0000
  S   S103      1.0  0.32025  0.68779  0.55704  1.0000
  H   H263      1.0  0.27791  0.72668  0.72266  1.0000
  H   H264      1.0  0.29900  0.54296  0.72557  1.0000
  H   H265      1.0  0.27036  0.58793  0.66509  1.0000
  C   C282      1.0  0.19002  0.66266  0.33085  1.0000
  H   H266      1.0  0.30342  0.68448  0.96681  1.0000
  C   C283      1.0  0.27811  0.70955  0.85362  1.0000
  H   H267      1.0  0.18105  0.65638  0.25109  1.0000
  H   H268      1.0  0.30487  0.66325  0.55079  1.0000
  H   H269      1.0  0.18754  0.60656  0.98959  1.0000
  H   H270      1.0  0.17928  0.60920  0.54263  1.0000
  H   H271      1.0  0.31184  0.64502  0.96376  1.0000
  H   H272      1.0  0.19893  0.59078  0.24652  1.0000
  C   C284      1.0  0.19543  0.59842  0.25711  1.0000
  H   H273      1.0  0.29444  0.67306  0.55907  1.0000
  H   H274      1.0  0.15616  0.60171  0.56990  1.0000
  H   H275      1.0  0.30747  0.64676  0.08525  1.0000
  H   H276      1.0  0.26304  0.53255  0.67237  1.0000
  C   C285      1.0  0.16306  0.61724  0.99586  1.0000
  H   H277      1.0  0.26425  0.51777  0.70249  1.0000
  C   C286      1.0  0.29328  0.72618  0.74905  1.0000
  C   C287      1.0  0.31172  0.60469  0.97582  1.0000
  Fe  Fe53      1.0  0.31041  0.72330  0.84742  1.0000
  H   H278      1.0  0.17935  0.65426  0.39236  1.0000
  S   S104      1.0  0.29953  0.73143  0.89240  1.0000
  C   C288      1.0  0.30307  0.53946  0.63152  1.0000
  H   H279      1.0  0.17273  0.61454  0.43459  1.0000
  H   H280      1.0  0.31499  0.66329  0.48420  1.0000
  C   C289      1.0  0.30665  0.65051  0.05534  1.0000
  H   H281      1.0  0.23129  0.62914  0.28996  1.0000
  H   H282      1.0  0.16584  0.60133  0.03641  1.0000
  C   C290      1.0  0.30984  0.64441  0.02578  1.0000
  C   C291      1.0  0.30922  0.64962  0.98705  1.0000
  H   H283      1.0  0.19897  0.59772  0.32934  1.0000
  H   H284      1.0  0.27714  0.53306  0.72985  1.0000
  C   C292      1.0  0.30547  0.66093  0.97838  1.0000
  H   H285      1.0  0.31022  0.54147  0.60331  1.0000
  C   C293      1.0  0.31764  0.55103  0.49219  1.0000
  C   C294      1.0  0.18298  0.50786  0.53698  1.0000
  H   H286      1.0  0.26185  0.68132  0.85237  1.0000
  H   H287      1.0  0.19939  0.61327  0.94227  1.0000
  C   C295      1.0  0.31919  0.59795  0.50710  1.0000
  H   H288      1.0  0.29209  0.69370  0.43157  1.0000
  C   C296      1.0  0.28012  0.59239  0.66078  1.0000
  C   C297      1.0  0.30126  0.60087  0.61803  1.0000
  H   H289      1.0  0.28886  0.65812  0.54924  1.0000
  C   C298      1.0  0.31332  0.67582  0.43153  1.0000
  C   C299      1.0  0.29066  0.53366  0.63508  1.0000
  H   H290      1.0  0.18056  0.51330  0.55793  1.0000
  N   N25       1.0  0.16976  0.64803  0.35230  1.0000
  C   C300      1.0  0.15893  0.63970  0.38445  1.0000
  H   H291      1.0  0.15761  0.63086  0.95429  1.0000
  H   H292      1.0  0.15577  0.59579  0.44299  1.0000
  H   H293      1.0  0.16402  0.50235  0.53340  1.0000
  N   N26       1.0  0.19510  0.50726  0.52356  1.0000
  C   C301      1.0  0.31951  0.61659  0.97148  1.0000
  H   H294      1.0  0.29384  0.59698  0.75164  1.0000
  H   H295      1.0  0.20786  0.50045  0.48484  1.0000
  H   H296      1.0  0.15809  0.49943  0.25288  1.0000
  H   H297      1.0  0.21426  0.51360  0.52263  1.0000
  H   H298      1.0  0.31839  0.58784  0.05728  1.0000
  H   H299      1.0  0.15828  0.64229  0.41311  1.0000
  H   H300      1.0  0.31341  0.56668  0.99915  1.0000
  H   H301      1.0  0.16300  0.54342  0.11296  1.0000
  H   H302      1.0  0.30436  0.61171  0.71941  1.0000
  H   H303      1.0  0.32058  0.72007  0.70560  1.0000
  H   H304      1.0  0.30912  0.59695  0.72496  1.0000
  H   H305      1.0  0.32004  0.62457  0.94699  1.0000
  C   C302      1.0  0.19819  0.50057  0.49657  1.0000
  H   H306      1.0  0.29402  0.74561  0.58474  1.0000
  C   C303      1.0  0.30069  0.76187  0.51159  1.0000
  N   N27       1.0  0.30614  0.76295  0.54465  1.0000
  C   C304      1.0  0.31606  0.77291  0.53894  1.0000
  H   H307      1.0  0.31993  0.78000  0.51010  1.0000
  H   H308      1.0  0.30134  0.77135  0.49195  1.0000
  C   C305      1.0  0.30174  0.75365  0.58031  1.0000
  H   H309      1.0  0.31735  0.76635  0.07331  1.0000
  H   H310      1.0  0.30575  0.75663  0.49312  1.0000
  C   C306      1.0  0.30712  0.75433  0.61169  1.0000
  H   H311      1.0  0.29063  0.75672  0.52295  1.0000
  C   C307      1.0  0.31715  0.76452  0.60631  1.0000
  C   C308      1.0  0.32165  0.77390  0.56974  1.0000
  H   H312      1.0  0.30358  0.74695  0.63993  1.0000
  H   H313      1.0  0.32148  0.76504  0.63034  1.0000
  S   S105      1.0  0.48565  0.01764  0.16037  1.0000
  H   H314      1.0  0.47875  0.01208  0.24664  1.0000
  C   C309      1.0  0.48621  0.04979  0.13740  1.0000
  H   H315      1.0  0.47581  0.03827  0.10900  1.0000
  C   C310      1.0  0.48278  0.04694  0.10462  1.0000
  H   H316      1.0  0.48784  0.02170  0.29363  1.0000
  C   C311      1.0  0.48733  0.01951  0.23505  1.0000
  H   H317      1.0  0.48608  0.05298  0.04037  1.0000
  H   H318      1.0  0.48185  0.04339  0.16727  1.0000
  S   S106      1.0  0.48831  0.02469  0.04149  1.0000
  H   H319      1.0  0.48048  0.46513  0.49641  1.0000
  H   H320      1.0  0.42857  0.49398  0.71098  1.0000
  Fe  Fe54      1.0  0.44139  0.47830  0.58588  1.0000
  S   S107      1.0  0.43303  0.46836  0.54607  1.0000
  S   S108      1.0  0.43280  0.47223  0.65319  1.0000
  Fe  Fe55      1.0  0.45287  0.46881  0.51590  1.0000
  S   S109      1.0  0.45577  0.45068  0.50101  1.0000
  Fe  Fe56      1.0  0.43656  0.48775  0.50418  1.0000
  Fe  Fe57      1.0  0.45257  0.49055  0.88726  1.0000
  S   S110      1.0  0.46099  0.47744  0.55852  1.0000
  C   C312      1.0  0.48241  0.43087  0.00612  1.0000
  Fe  Fe58      1.0  0.46439  0.47765  0.82647  1.0000
  S   S111      1.0  0.44659  0.47132  0.87727  1.0000
  H   H321      1.0  0.47821  0.45103  0.66231  1.0000
  C   C313      1.0  0.48504  0.43188  0.93617  1.0000
  S   S112      1.0  0.46328  0.48387  0.93038  1.0000
  Fe  Fe59      1.0  0.45892  0.46514  0.91652  1.0000
  S   S113      1.0  0.45685  0.44857  0.96971  1.0000
  H   H322      1.0  0.47305  0.44131  0.90760  1.0000
  N   N28       1.0  0.44801  0.44439  0.62905  1.0000
  S   S114      1.0  0.47585  0.46966  0.86464  1.0000
  C   C314      1.0  0.46936  0.44109  0.96968  1.0000
  C   C315      1.0  0.47273  0.43718  0.00529  1.0000
  C   C316      1.0  0.47299  0.45027  0.39140  1.0000
  C   C317      1.0  0.44750  0.44687  0.66517  1.0000
  H   H323      1.0  0.46778  0.43894  0.03239  1.0000
  C   C318      1.0  0.47065  0.44748  0.49088  1.0000
  C   C319      1.0  0.47570  0.43856  0.93500  1.0000
  C   C320      1.0  0.45834  0.44927  0.67770  1.0000
  C   C321      1.0  0.44297  0.47401  0.68350  1.0000
  H   H324      1.0  0.48487  0.42783  0.03371  1.0000
  C   C322      1.0  0.43648  0.44171  0.61696  1.0000
  C   C323      1.0  0.47012  0.43856  0.38321  1.0000
  C   C324      1.0  0.44623  0.47129  0.75004  1.0000
  C   C325      1.0  0.43819  0.47004  0.72545  1.0000
  C   C326      1.0  0.47012  0.44628  0.61657  1.0000
  N   N29       1.0  0.47940  0.43281  0.37115  1.0000
  H   H325      1.0  0.44251  0.46825  0.78236  1.0000
  H   H326      1.0  0.42825  0.46605  0.73897  1.0000
  H   H327      1.0  0.42686  0.48972  0.96553  1.0000
  C   C327      1.0  0.46973  0.44906  0.65305  1.0000
  H   H328      1.0  0.46358  0.42909  0.48365  1.0000
  H   H329      1.0  0.43114  0.43175  0.63216  1.0000
  C   C328      1.0  0.45908  0.44382  0.60518  1.0000
  H   H330      1.0  0.46557  0.45456  0.40260  1.0000
  H   H331      1.0  0.47382  0.48374  0.67722  1.0000
  H   H332      1.0  0.43054  0.44816  0.62493  1.0000
  C   C329      1.0  0.47183  0.43598  0.48262  1.0000
  H   H333      1.0  0.45792  0.45146  0.70611  1.0000
  H   H334      1.0  0.48211  0.41434  0.37361  1.0000
  C   C330      1.0  0.46385  0.48001  0.69080  1.0000
  H   H335      1.0  0.43849  0.44322  0.58396  1.0000
  H   H336      1.0  0.43870  0.44722  0.68425  1.0000
  H   H337      1.0  0.47856  0.42214  0.32915  1.0000
  H   H338      1.0  0.45960  0.48208  0.63423  1.0000
  C   C331      1.0  0.48508  0.47214  0.98799  1.0000
  H   H339      1.0  0.45944  0.44153  0.57704  1.0000
  C   C332      1.0  0.45581  0.47905  0.66634  1.0000
  S   S115      1.0  0.46973  0.47755  0.76143  1.0000
  Fe  Fe60      1.0  0.47965  0.48846  0.87668  1.0000
  S   S116      1.0  0.45583  0.48747  0.47100  1.0000
  H   H340      1.0  0.40979  0.49308  0.01663  1.0000
  C   C333      1.0  0.45910  0.47622  0.73263  1.0000
  C   C334      1.0  0.48130  0.45627  0.48997  1.0000
  H   H341      1.0  0.46642  0.41550  0.37628  1.0000
  C   C335      1.0  0.47640  0.42062  0.36215  1.0000
  H   H342      1.0  0.47890  0.44600  0.59715  1.0000
  H   H343      1.0  0.46042  0.43402  0.38728  1.0000
  H   H344      1.0  0.48516  0.47387  0.01740  1.0000
  C   C336      1.0  0.48542  0.45609  0.38704  1.0000
  S   S117      1.0  0.42497  0.49367  0.46249  1.0000
  H   H345      1.0  0.48655  0.48147  0.96608  1.0000
  H   H346      1.0  0.41713  0.49177  0.78163  1.0000
  H   H347      1.0  0.48454  0.42467  0.46510  1.0000
  C   C337      1.0  0.48367  0.43346  0.47203  1.0000
  H   H348      1.0  0.47571  0.46618  0.99091  1.0000
  H   H349      1.0  0.48771  0.46491  0.39487  1.0000
  Fe  Fe61      1.0  0.46194  0.49613  0.51655  1.0000
  C   C338      1.0  0.42712  0.49599  0.77060  1.0000
  H   H350      1.0  0.41711  0.60566  0.44177  1.0000
  Fe  Fe62      1.0  0.39010  0.54665  0.41977  1.0000
  S   S118      1.0  0.40581  0.55606  0.36386  1.0000
  S   S119      1.0  0.39419  0.53535  0.47448  1.0000
  Fe  Fe63      1.0  0.37204  0.56086  0.38862  1.0000
  S   S120      1.0  0.38656  0.57115  0.32996  1.0000
  S   S121      1.0  0.35499  0.56900  0.39463  1.0000
  Fe  Fe64      1.0  0.39120  0.55251  0.33139  1.0000
  S   S122      1.0  0.39849  0.54746  0.27397  1.0000
  Fe  Fe65      1.0  0.39973  0.57374  0.36716  1.0000
  S   S123      1.0  0.41309  0.59269  0.35325  1.0000
  S   S124      1.0  0.37562  0.54167  0.38743  1.0000
  S   S125      1.0  0.38512  0.56486  0.42555  1.0000
  Fe  Fe66      1.0  0.46302  0.61276  0.44630  1.0000
  S   S126      1.0  0.46742  0.61979  0.49689  1.0000
  S   S127      1.0  0.45041  0.59328  0.46076  1.0000
  Fe  Fe67      1.0  0.46549  0.63862  0.46382  1.0000
  S   S128      1.0  0.45293  0.64939  0.49393  1.0000
  S   S129      1.0  0.45916  0.63095  0.41663  1.0000
  Fe  Fe68      1.0  0.38098  0.54617  0.07826  1.0000
  S   S130      1.0  0.37324  0.53386  0.04286  1.0000
  S   S131      1.0  0.37004  0.54563  0.14063  1.0000
  Fe  Fe69      1.0  0.40369  0.56053  0.00872  1.0000
  S   S132      1.0  0.39791  0.54978  0.96694  1.0000
  S   S133      1.0  0.42137  0.57610  0.98887  1.0000
  Fe  Fe70      1.0  0.37854  0.55188  0.99279  1.0000
  S   S134      1.0  0.36751  0.55989  0.95148  1.0000
  Fe  Fe71      1.0  0.39320  0.53266  0.01965  1.0000
  S   S135      1.0  0.39832  0.51388  0.01961  1.0000
  S   S136      1.0  0.38495  0.56424  0.02982  1.0000
  S   S137      1.0  0.40032  0.54332  0.05999  1.0000
  Fe  Fe72      1.0  0.45524  0.60974  0.10614  1.0000
  S   S138      1.0  0.46141  0.62351  0.04529  1.0000
  S   S139      1.0  0.43773  0.59390  0.12914  1.0000
  Fe  Fe73      1.0  0.46537  0.63846  0.07647  1.0000
  S   S140      1.0  0.45517  0.65414  0.06888  1.0000
  S   S141      1.0  0.45773  0.62468  0.13805  1.0000
  H   H351      1.0  0.32475  0.53245  0.01538  1.0000
  H   H352      1.0  0.40580  0.52233  0.52899  1.0000
  C   C339      1.0  0.32870  0.69168  0.99488  1.0000
  S   S142      1.0  0.43373  0.72950  0.59425  1.0000
  Fe  Fe74      1.0  0.45817  0.71192  0.55593  1.0000
  S   S143      1.0  0.44015  0.70184  0.60333  1.0000
  S   S144      1.0  0.47215  0.70179  0.52940  1.0000
  Fe  Fe75      1.0  0.43143  0.71387  0.56381  1.0000
  S   S145      1.0  0.41356  0.70746  0.54627  1.0000
  Fe  Fe76      1.0  0.44415  0.71830  0.62983  1.0000
  S   S146      1.0  0.44031  0.71342  0.69838  1.0000
  S   S147      1.0  0.44928  0.72313  0.51507  1.0000
  S   S148      1.0  0.46301  0.72757  0.58481  1.0000
  H   H353      1.0  0.34276  0.65422  0.23839  1.0000
  S   S149      1.0  0.38508  0.67109  0.37669  1.0000
  S   S150      1.0  0.38565  0.64180  0.41208  1.0000
  Fe  Fe77      1.0  0.38821  0.65961  0.43237  1.0000
  S   S151      1.0  0.40533  0.66511  0.45457  1.0000
  Fe  Fe78      1.0  0.38061  0.65290  0.35989  1.0000
  S   S152      1.0  0.38781  0.65234  0.29569  1.0000
  H   H354      1.0  0.34519  0.56501  0.04451  1.0000
  H   H355      1.0  0.46572  0.71019  0.05657  1.0000
  H   H356      1.0  0.36450  0.51294  0.13814  1.0000
  H   H357      1.0  0.44962  0.67583  0.41203  1.0000
  S   S153      1.0  0.44509  0.71730  0.92128  1.0000
  C   C340      1.0  0.45214  0.59965  0.24401  1.0000
  Fe  Fe79      1.0  0.43288  0.72375  0.96779  1.0000
  S   S154      1.0  0.41262  0.71468  0.00271  1.0000
  Fe  Fe80      1.0  0.45984  0.72262  0.95158  1.0000
  S   S155      1.0  0.47372  0.71058  0.95772  1.0000
  C   C341      1.0  0.45563  0.59311  0.21602  1.0000
  S   S156      1.0  0.45542  0.74474  0.81751  1.0000
  S   S157      1.0  0.36818  0.65503  0.46935  1.0000
  Fe  Fe81      1.0  0.36974  0.64706  0.06263  1.0000
  S   S158      1.0  0.38953  0.65642  0.02384  1.0000
  C   C342      1.0  0.44646  0.50251  0.71757  1.0000
  C   C343      1.0  0.40659  0.69836  0.00946  1.0000
  C   C344      1.0  0.39441  0.69243  0.03416  1.0000
  C   C345      1.0  0.38917  0.67954  0.03930  1.0000
  C   C346      1.0  0.39607  0.67247  0.01966  1.0000
  C   C347      1.0  0.40830  0.67837  0.99527  1.0000
  C   C348      1.0  0.41356  0.69126  0.99026  1.0000
  H   H358      1.0  0.38901  0.69785  0.04936  1.0000
  H   H359      1.0  0.37978  0.67512  0.05822  1.0000
  H   H360      1.0  0.41370  0.67297  0.98001  1.0000
  H   H361      1.0  0.42296  0.69570  0.97127  1.0000
  C   C349      1.0  0.37344  0.63951  0.21330  1.0000
  C   C350      1.0  0.38165  0.64512  0.23240  1.0000
  H   H362      1.0  0.37660  0.64026  0.18165  1.0000
  H   H363      1.0  0.39114  0.65018  0.21528  1.0000
  C   C351      1.0  0.43368  0.50003  0.79612  1.0000
  C   C352      1.0  0.44365  0.72280  0.73084  1.0000
  C   C353      1.0  0.43958  0.71713  0.77256  1.0000
  C   C354      1.0  0.44287  0.72377  0.79953  1.0000
  H   H364      1.0  0.43982  0.54359  0.49487  1.0000
  Fe  Fe82      1.0  0.47948  0.63624  0.38298  1.0000
  H   H365      1.0  0.36355  0.56934  0.17564  1.0000
  H   H366      1.0  0.43400  0.70744  0.78405  1.0000
  H   H367      1.0  0.43979  0.71920  0.83142  1.0000
  C   C355      1.0  0.34243  0.67343  0.48277  1.0000
  C   C356      1.0  0.41085  0.69489  0.52406  1.0000
  C   C357      1.0  0.41927  0.68732  0.51866  1.0000
  C   C358      1.0  0.41716  0.67789  0.49881  1.0000
  C   C359      1.0  0.40671  0.67600  0.48373  1.0000
  C   C360      1.0  0.39815  0.68339  0.48985  1.0000
  C   C361      1.0  0.40021  0.69276  0.51000  1.0000
  H   H368      1.0  0.42746  0.68881  0.52951  1.0000
  H   H369      1.0  0.42387  0.67227  0.49440  1.0000
  H   H370      1.0  0.39006  0.68204  0.47847  1.0000
  H   H371      1.0  0.39364  0.69856  0.51417  1.0000
  C   C362      1.0  0.46023  0.66903  0.03255  1.0000
  C   C363      1.0  0.45165  0.67652  0.02936  1.0000
  C   C364      1.0  0.45556  0.68909  0.00489  1.0000
  C   C365      1.0  0.46815  0.69430  0.98366  1.0000
  H   H372      1.0  0.48086  0.66327  0.08978  1.0000
  C   C366      1.0  0.47271  0.67401  0.00977  1.0000
  H   H373      1.0  0.44196  0.67272  0.04681  1.0000
  H   H374      1.0  0.44892  0.69488  0.00360  1.0000
  C   C367      1.0  0.37374  0.67481  0.92796  1.0000
  C   C368      1.0  0.48372  0.63868  0.28201  1.0000
  C   C369      1.0  0.35148  0.55410  0.95547  1.0000
  C   C370      1.0  0.34634  0.56047  0.92700  1.0000
  C   C371      1.0  0.33345  0.55692  0.93061  1.0000
  H   H375      1.0  0.42887  0.60650  0.96629  1.0000
  C   C372      1.0  0.41614  0.50497  0.46714  1.0000
  C   C373      1.0  0.34367  0.54386  0.98706  1.0000
  H   H376      1.0  0.35233  0.56833  0.90229  1.0000
  C   C374      1.0  0.46147  0.67984  0.11161  1.0000
  H   H377      1.0  0.36476  0.70267  0.54401  1.0000
  H   H378      1.0  0.34753  0.53883  0.00903  1.0000
  S   S159      1.0  0.33552  0.63153  0.12602  1.0000
  N   N30       1.0  0.39436  0.51174  0.13445  1.0000
  H   H379      1.0  0.36103  0.68209  0.03283  1.0000
  C   C375      1.0  0.37759  0.64437  0.27330  1.0000
  C   C376      1.0  0.41699  0.52159  0.94722  1.0000
  H   H380      1.0  0.33910  0.73287  0.50441  1.0000
  H   H381      1.0  0.46531  0.59526  0.19848  1.0000
  H   H382      1.0  0.41425  0.53043  0.94175  1.0000
  C   C377      1.0  0.42625  0.57996  0.02885  1.0000
  C   C378      1.0  0.43786  0.58845  0.02086  1.0000
  C   C379      1.0  0.44167  0.59228  0.05198  1.0000
  C   C380      1.0  0.43376  0.58785  0.09108  1.0000
  C   C381      1.0  0.42225  0.57913  0.09934  1.0000
  C   C382      1.0  0.41849  0.57519  0.06818  1.0000
  H   H383      1.0  0.44387  0.59216  0.99044  1.0000
  H   H384      1.0  0.45066  0.59877  0.04552  1.0000
  H   H385      1.0  0.41609  0.57566  0.12958  1.0000
  H   H386      1.0  0.40946  0.56872  0.07443  1.0000
  C   C383      1.0  0.45856  0.66352  0.50581  1.0000
  C   C384      1.0  0.44991  0.66941  0.52434  1.0000
  C   C385      1.0  0.45397  0.68097  0.53260  1.0000
  C   C386      1.0  0.46675  0.68678  0.52233  1.0000
  C   C387      1.0  0.47542  0.68081  0.50428  1.0000
  C   C388      1.0  0.47136  0.66922  0.49602  1.0000
  H   H387      1.0  0.44000  0.66506  0.53220  1.0000
  H   H388      1.0  0.44722  0.68545  0.54657  1.0000
  H   H389      1.0  0.36705  0.58720  0.95675  1.0000
  H   H390      1.0  0.32681  0.68962  0.05775  1.0000
  N   N31       1.0  0.34810  0.57997  0.99169  1.0000
  H   H391      1.0  0.34988  0.59896  0.25044  1.0000
  H   H392      1.0  0.44606  0.51748  0.40064  1.0000
  C   C389      1.0  0.37576  0.61201  0.35165  1.0000
  H   H393      1.0  0.45669  0.69209  0.78196  1.0000
  H   H394      1.0  0.33710  0.59394  0.50630  1.0000
  Fe  Fe83      1.0  0.48719  0.62577  0.45767  1.0000
  C   C390      1.0  0.34082  0.56190  0.43301  1.0000
  C   C391      1.0  0.33848  0.54968  0.45828  1.0000
  N   N32       1.0  0.36593  0.68756  0.96900  1.0000
  C   C392      1.0  0.33077  0.54025  0.99053  1.0000
  H   H395      1.0  0.43345  0.63208  0.08847  1.0000
  H   H396      1.0  0.34548  0.54433  0.45479  1.0000
  H   H397      1.0  0.35465  0.66860  0.32989  1.0000
  C   C393      1.0  0.39055  0.54815  0.23667  1.0000
  C   C394      1.0  0.37761  0.54666  0.24596  1.0000
  C   C395      1.0  0.37144  0.54611  0.21602  1.0000
  C   C396      1.0  0.37819  0.54729  0.17661  1.0000
  C   C397      1.0  0.39118  0.54915  0.16714  1.0000
  C   C398      1.0  0.39731  0.54944  0.19718  1.0000
  H   H398      1.0  0.37232  0.54542  0.27650  1.0000
  H   H399      1.0  0.36136  0.54447  0.22363  1.0000
  H   H400      1.0  0.39647  0.55007  0.13692  1.0000
  H   H401      1.0  0.40733  0.55056  0.18983  1.0000
  C   C399      1.0  0.42378  0.59236  0.38199  1.0000
  C   C400      1.0  0.43408  0.60272  0.37222  1.0000
  C   C401      1.0  0.44252  0.60280  0.39553  1.0000
  C   C402      1.0  0.44052  0.59269  0.42936  1.0000
  C   C403      1.0  0.43026  0.58227  0.43902  1.0000
  C   C404      1.0  0.42194  0.58204  0.41515  1.0000
  H   H402      1.0  0.43554  0.61074  0.34669  1.0000
  H   H403      1.0  0.45059  0.61070  0.38716  1.0000
  H   H404      1.0  0.42861  0.57447  0.46535  1.0000
  H   H405      1.0  0.41396  0.57402  0.42297  1.0000
  C   C405      1.0  0.42632  0.61503  0.47783  1.0000
  C   C406      1.0  0.40241  0.52350  0.47129  1.0000
  C   C407      1.0  0.40735  0.51884  0.50279  1.0000
  C   C408      1.0  0.33163  0.56874  0.43788  1.0000
  C   C409      1.0  0.32704  0.61810  0.99761  1.0000
  H   H406      1.0  0.36594  0.51899  0.20017  1.0000
  H   H407      1.0  0.47292  0.58923  0.03214  1.0000
  C   C410      1.0  0.48070  0.56110  0.99425  1.0000
  H   H408      1.0  0.47075  0.57585  0.47838  1.0000
  C   C411      1.0  0.37304  0.51333  0.14732  1.0000
  H   H409      1.0  0.32288  0.55653  0.05005  1.0000
  S   S160      1.0  0.33723  0.60853  0.05886  1.0000
  C   C412      1.0  0.33206  0.69437  0.47639  1.0000
  N   N33       1.0  0.47130  0.71648  0.81016  1.0000
  H   H410      1.0  0.41011  0.51821  0.08333  1.0000
  H   H411      1.0  0.33317  0.66859  0.54603  1.0000
  C   C413      1.0  0.41431  0.50970  0.50058  1.0000
  C   C414      1.0  0.47848  0.51254  0.61080  1.0000
  H   H412      1.0  0.36401  0.66360  0.19269  1.0000
  H   H413      1.0  0.33786  0.65967  0.01292  1.0000
  N   N34       1.0  0.42005  0.63362  0.48901  1.0000
  C   C415      1.0  0.42732  0.62523  0.49457  1.0000
  C   C416      1.0  0.41198  0.63235  0.46599  1.0000
  C   C417      1.0  0.41076  0.62227  0.44873  1.0000
  C   C418      1.0  0.41795  0.61353  0.45492  1.0000
  C   C419      1.0  0.42144  0.64447  0.50572  1.0000
  H   H414      1.0  0.43398  0.62643  0.51187  1.0000
  H   H415      1.0  0.40645  0.63918  0.46082  1.0000
  H   H416      1.0  0.40434  0.62130  0.43052  1.0000
  H   H417      1.0  0.42814  0.65282  0.48271  1.0000
  H   H418      1.0  0.41233  0.64685  0.51521  1.0000
  H   H419      1.0  0.42507  0.64254  0.53238  1.0000
  H   H420      1.0  0.42164  0.54762  0.46877  1.0000
  H   H421      1.0  0.45911  0.60693  0.24829  1.0000
  C   C420      1.0  0.42056  0.60910  0.98243  1.0000
  H   H422      1.0  0.46743  0.50163  0.58228  1.0000
  N   N35       1.0  0.36632  0.59426  0.42641  1.0000
  C   C421      1.0  0.37870  0.59673  0.40618  1.0000
  C   C422      1.0  0.35859  0.60055  0.41021  1.0000
  C   C423      1.0  0.38359  0.60556  0.36842  1.0000
  H   H423      1.0  0.34910  0.73810  0.43163  1.0000
  C   C424      1.0  0.47385  0.72246  0.73912  1.0000
  C   C425      1.0  0.36141  0.58541  0.46670  1.0000
  H   H424      1.0  0.38488  0.59187  0.41912  1.0000
  H   H425      1.0  0.34885  0.59878  0.42665  1.0000
  H   H426      1.0  0.46160  0.70706  0.45765  1.0000
  C   C426      1.0  0.33269  0.67403  0.03965  1.0000
  C   C427      1.0  0.48341  0.62581  0.22248  1.0000
  H   H427      1.0  0.36173  0.59073  0.48947  1.0000
  H   H428      1.0  0.35157  0.58021  0.47167  1.0000
  H   H429      1.0  0.36680  0.57811  0.47085  1.0000
  N   N36       1.0  0.43633  0.70002  0.42341  1.0000
  C   C428      1.0  0.43808  0.68922  0.41333  1.0000
  C   C429      1.0  0.44467  0.70645  0.43884  1.0000
  C   C430      1.0  0.44838  0.68458  0.41892  1.0000
  C   C431      1.0  0.45512  0.70211  0.44456  1.0000
  C   C432      1.0  0.45701  0.69118  0.43415  1.0000
  C   C433      1.0  0.42574  0.70507  0.41626  1.0000
  H   H430      1.0  0.43131  0.68396  0.40194  1.0000
  H   H431      1.0  0.44318  0.71490  0.44728  1.0000
  N   N37       1.0  0.35655  0.58222  0.25284  1.0000
  C   C434      1.0  0.43352  0.49731  0.73096  1.0000
  C   C435      1.0  0.43019  0.50810  0.92436  1.0000
  H   H432      1.0  0.36506  0.57790  0.00617  1.0000
  C   C436      1.0  0.38343  0.51081  0.12374  1.0000
  H   H433      1.0  0.41802  0.69754  0.41493  1.0000
  H   H434      1.0  0.35729  0.58811  0.14104  1.0000
  C   C437      1.0  0.32911  0.68548  0.03321  1.0000
  H   H435      1.0  0.48532  0.68524  0.49632  1.0000
  C   C438      1.0  0.33888  0.61405  0.48667  1.0000
  H   H436      1.0  0.35910  0.69179  0.51756  1.0000
  H   H437      1.0  0.46999  0.59207  0.51504  1.0000
  N   N38       1.0  0.35459  0.70972  0.50454  1.0000
  C   C439      1.0  0.34704  0.71685  0.51906  1.0000
  C   C440      1.0  0.36043  0.71273  0.46437  1.0000
  C   C441      1.0  0.34506  0.72719  0.49302  1.0000
  C   C442      1.0  0.35851  0.72292  0.43747  1.0000
  C   C443      1.0  0.35075  0.73017  0.45200  1.0000
  C   C444      1.0  0.35686  0.69916  0.53241  1.0000
  H   H438      1.0  0.43275  0.53256  0.39360  1.0000
  H   H439      1.0  0.36140  0.69656  0.87720  1.0000
  H   H440      1.0  0.42179  0.70894  0.44115  1.0000
  C   C445      1.0  0.34989  0.65957  0.24833  1.0000
  H   H441      1.0  0.42885  0.49906  0.82711  1.0000
  H   H442      1.0  0.37948  0.61902  0.32263  1.0000
  C   C446      1.0  0.44654  0.58387  0.21046  1.0000
  H   H443      1.0  0.35633  0.69580  0.01140  1.0000
  S   S161      1.0  0.44187  0.50596  0.88555  1.0000
  C   C447      1.0  0.44659  0.50529  0.78162  1.0000
  C   C448      1.0  0.48280  0.68869  0.07476  1.0000
  C   C449      1.0  0.48292  0.56732  0.50869  1.0000
  C   C450      1.0  0.48017  0.70021  0.05901  1.0000
  H   H444      1.0  0.40240  0.50170  0.09530  1.0000
  H   H445      1.0  0.48442  0.65518  0.23583  1.0000
  H   H446      1.0  0.32623  0.70066  0.98979  1.0000
  H   H447      1.0  0.32845  0.70266  0.47374  1.0000
  C   C451      1.0  0.48595  0.57752  0.02440  1.0000
  C   C452      1.0  0.38506  0.51778  0.19267  1.0000
  S   S162      1.0  0.35381  0.67989  0.40179  1.0000
  C   C453      1.0  0.44508  0.52351  0.42056  1.0000
  C   C454      1.0  0.41451  0.50056  0.98928  1.0000
  H   H448      1.0  0.43210  0.60840  0.48230  1.0000
  S   S163      1.0  0.36327  0.62641  0.09757  1.0000
  C   C455      1.0  0.44134  0.53803  0.47374  1.0000
  C   C456      1.0  0.46701  0.71038  0.74205  1.0000
  C   C457      1.0  0.35576  0.57972  0.29564  1.0000
  C   C458      1.0  0.32839  0.56492  0.02627  1.0000
  N   N39       1.0  0.43560  0.53903  0.44363  1.0000
  H   H449      1.0  0.37269  0.69698  0.00809  1.0000
  C   C459      1.0  0.34102  0.56974  0.02282  1.0000
  H   H450      1.0  0.41200  0.50684  0.12513  1.0000
  H   H451      1.0  0.32625  0.58558  0.94373  1.0000
  H   H452      1.0  0.38548  0.67230  0.18281  1.0000
  C   C460      1.0  0.47471  0.50997  0.57792  1.0000
  H   H453      1.0  0.47811  0.66477  0.48184  1.0000
  S   S164      1.0  0.35521  0.61789  0.47872  1.0000
  H   H454      1.0  0.38588  0.52082  0.21907  1.0000
  C   C461      1.0  0.35298  0.59247  0.23414  1.0000
  C   C462      1.0  0.33521  0.67487  0.96974  1.0000
  H   H455      1.0  0.37598  0.67729  0.28381  1.0000
  S   S165      1.0  0.48446  0.61760  0.18544  1.0000
  H   H456      1.0  0.34240  0.71446  0.55089  1.0000
  H   H457      1.0  0.48282  0.52879  0.92632  1.0000
  S   S166      1.0  0.47739  0.51385  0.49745  1.0000
  C   C463      1.0  0.40443  0.51893  0.43756  1.0000
  H   H458      1.0  0.41556  0.57336  0.23246  1.0000
  H   H459      1.0  0.36250  0.57423  0.30370  1.0000
  C   C464      1.0  0.36539  0.63764  0.29523  1.0000
  C   C465      1.0  0.32556  0.54693  0.96282  1.0000
  Fe  Fe84      1.0  0.36535  0.63814  0.44478  1.0000
  S   S167      1.0  0.46692  0.74294  0.91347  1.0000
  H   H460      1.0  0.45804  0.57720  0.00372  1.0000
  C   C466      1.0  0.47491  0.58116  0.02201  1.0000
  C   C467      1.0  0.36131  0.58500  0.98835  1.0000
  C   C468      1.0  0.48308  0.62571  0.29127  1.0000
  H   H461      1.0  0.46315  0.55917  0.97900  1.0000
  C   C469      1.0  0.47666  0.68664  0.98551  1.0000
  H   H462      1.0  0.37163  0.67911  0.86809  1.0000
  C   C470      1.0  0.40528  0.50952  0.10848  1.0000
  H   H463      1.0  0.41251  0.50594  0.40983  1.0000
  C   C471      1.0  0.36061  0.57594  0.19182  1.0000
  S   S168      1.0  0.36061  0.65391  0.11358  1.0000
  H   H464      1.0  0.36215  0.63702  0.32661  1.0000
  H   H465      1.0  0.40064  0.52243  0.41318  1.0000
  Fe  Fe85      1.0  0.45130  0.73778  0.88574  1.0000
  C   C472      1.0  0.43502  0.63363  0.02609  1.0000
  H   H466      1.0  0.41957  0.61025  0.11181  1.0000
  H   H467      1.0  0.34176  0.74245  0.96563  1.0000
  C   C473      1.0  0.43061  0.62747  0.06702  1.0000
  C   C474      1.0  0.35710  0.58644  0.17241  1.0000
  C   C475      1.0  0.36123  0.63276  0.23541  1.0000
  H   H468      1.0  0.43522  0.63218  0.96690  1.0000
  C   C476      1.0  0.37158  0.67799  0.96426  1.0000
  H   H469      1.0  0.46888  0.51937  0.69986  1.0000
  H   H470      1.0  0.33335  0.57819  0.41845  1.0000
  C   C477      1.0  0.47373  0.71983  0.84569  1.0000
  S   S169      1.0  0.44715  0.72746  0.00126  1.0000
  C   C478      1.0  0.35731  0.63166  0.27654  1.0000
  C   C479      1.0  0.46641  0.51160  0.72807  1.0000
  H   H471      1.0  0.41305  0.60018  0.99683  1.0000
  C   C480      1.0  0.32685  0.60768  0.02829  1.0000
  C   C481      1.0  0.39533  0.51539  0.16805  1.0000
  C   C482      1.0  0.46663  0.57450  0.00577  1.0000
  H   H472      1.0  0.46492  0.70817  0.71569  1.0000
  S   S170      1.0  0.48295  0.61739  0.40916  1.0000
  S   S171      1.0  0.35064  0.62549  0.21291  1.0000
  C   C483      1.0  0.36022  0.57394  0.23235  1.0000
  H   H473      1.0  0.44127  0.64307  0.01575  1.0000
  H   H474      1.0  0.36285  0.56571  0.24735  1.0000
  C   C484      1.0  0.36261  0.69439  0.93785  1.0000
  H   H475      1.0  0.45407  0.73983  0.68447  1.0000
  C   C485      1.0  0.45095  0.52242  0.45118  1.0000
  C   C486      1.0  0.43082  0.58744  0.26023  1.0000
  C   C487      1.0  0.37010  0.68153  0.89635  1.0000
  C   C488      1.0  0.41084  0.51203  0.98286  1.0000
  H   H476      1.0  0.41720  0.61534  0.96043  1.0000
  C   C489      1.0  0.46795  0.70147  0.06996  1.0000
  S   S172      1.0  0.36019  0.64805  0.39122  1.0000
  C   C490      1.0  0.35326  0.59477  0.19366  1.0000
  C   C491      1.0  0.42654  0.51958  0.91806  1.0000
  H   H477      1.0  0.34788  0.62643  0.29380  1.0000
  H   H478      1.0  0.46503  0.68768  0.43867  1.0000
  Fe  Fe86      1.0  0.36487  0.66533  0.41214  1.0000
  H   H479      1.0  0.39093  0.67443  0.22469  1.0000
  Fe  Fe87      1.0  0.35295  0.63334  0.14659  1.0000
  H   H480      1.0  0.41337  0.59988  0.06244  1.0000
  C   C492      1.0  0.42784  0.54809  0.43913  1.0000
  H   H481      1.0  0.47105  0.50404  0.72199  1.0000
  C   C493      1.0  0.43747  0.53198  0.41700  1.0000
  S   S173      1.0  0.48539  0.63738  0.07153  1.0000
  C   C494      1.0  0.41936  0.60941  0.05197  1.0000
  S   S174      1.0  0.43787  0.74393  0.92996  1.0000
  N   N40       1.0  0.42378  0.61549  0.01185  1.0000
  N   N41       1.0  0.43428  0.58128  0.23203  1.0000
  H   H482      1.0  0.39339  0.60740  0.35239  1.0000
  Fe  Fe88      1.0  0.34632  0.62614  0.07405  1.0000
  S   S175      1.0  0.35385  0.64614  0.03458  1.0000
  H   H483      1.0  0.45355  0.52876  0.50207  1.0000
  H   H484      1.0  0.47422  0.50608  0.64040  1.0000
  H   H485      1.0  0.43384  0.55786  0.42496  1.0000
  H   H486      1.0  0.47337  0.59204  0.59791  1.0000
  H   H487      1.0  0.36244  0.59367  0.99883  1.0000
  H   H488      1.0  0.35696  0.61439  0.36014  1.0000
  C   C495      1.0  0.45023  0.73624  0.78509  1.0000
  C   C496      1.0  0.47650  0.66660  0.11542  1.0000
  C   C497      1.0  0.47586  0.72539  0.77372  1.0000
  C   C498      1.0  0.48387  0.64513  0.24316  1.0000
  H   H489      1.0  0.42151  0.54593  0.42048  1.0000
  S   S176      1.0  0.47405  0.60615  0.10394  1.0000
  C   C499      1.0  0.35660  0.66750  0.29973  1.0000
  S   S177      1.0  0.33140  0.69378  0.91500  1.0000
  C   C500      1.0  0.43157  0.62742  0.99872  1.0000
  H   H490      1.0  0.34837  0.69441  0.55810  1.0000
  H   H491      1.0  0.33334  0.62718  0.99307  1.0000
  H   H492      1.0  0.47034  0.72835  0.84897  1.0000
  C   C501      1.0  0.33948  0.69248  0.44213  1.0000
  H   H493      1.0  0.34127  0.69920  0.41319  1.0000
  H   H494      1.0  0.46893  0.71210  0.87378  1.0000
  H   H495      1.0  0.44928  0.57900  0.18808  1.0000
  H   H496      1.0  0.35813  0.70201  0.94142  1.0000
  C   C502      1.0  0.36448  0.69138  0.90128  1.0000
  H   H497      1.0  0.43107  0.52696  0.89034  1.0000
  H   H498      1.0  0.38552  0.68690  0.19664  1.0000
  H   H499      1.0  0.42429  0.56206  0.24727  1.0000
  C   C503      1.0  0.42420  0.49863  0.96033  1.0000
  H   H500      1.0  0.37821  0.66718  0.92455  1.0000
  Fe  Fe89      1.0  0.34417  0.65152  0.08837  1.0000
  H   H501      1.0  0.43685  0.60178  0.28834  1.0000
  H   H502      1.0  0.48295  0.62065  0.32105  1.0000
  H   H503      1.0  0.33749  0.67069  0.94528  1.0000
  C   C504      1.0  0.36316  0.60945  0.37260  1.0000
  H   H504      1.0  0.35044  0.60295  0.17899  1.0000
  H   H505      1.0  0.34620  0.57418  0.31404  1.0000
  H   H506      1.0  0.34632  0.66527  0.48536  1.0000
  C   C505      1.0  0.41114  0.50958  0.43576  1.0000
  C   C506      1.0  0.48352  0.63867  0.21358  1.0000
  H   H507      1.0  0.45143  0.50317  0.68706  1.0000
  H   H508      1.0  0.35800  0.58867  0.30419  1.0000
  H   H509      1.0  0.37440  0.67268  0.98867  1.0000
  C   C507      1.0  0.33220  0.60129  0.50063  1.0000
  C   C508      1.0  0.42276  0.61527  0.08011  1.0000
  H   H510      1.0  0.40869  0.73954  0.97374  1.0000
  H   H511      1.0  0.36641  0.70708  0.45283  1.0000
  C   C509      1.0  0.43967  0.59680  0.26637  1.0000
  C   C510      1.0  0.46459  0.70460  0.81333  1.0000
  H   H512      1.0  0.34846  0.59398  0.93955  1.0000
  C   C511      1.0  0.33493  0.67528  0.51704  1.0000
  C   C512      1.0  0.32968  0.68573  0.51385  1.0000
  H   H513      1.0  0.32961  0.56204  0.90880  1.0000
  C   C513      1.0  0.47550  0.58530  0.52149  1.0000
  H   H514      1.0  0.48641  0.69061  0.96895  1.0000
  S   S178      1.0  0.48566  0.64529  0.42816  1.0000
  H   H515      1.0  0.33793  0.65667  0.30763  1.0000
  Fe  Fe90      1.0  0.45239  0.73795  0.54777  1.0000
  H   H516      1.0  0.33754  0.63334  0.46876  1.0000
  C   C514      1.0  0.34469  0.68202  0.44528  1.0000
  S   S179      1.0  0.33329  0.66643  0.08748  1.0000
  H   H517      1.0  0.45679  0.51580  0.45448  1.0000
  H   H518      1.0  0.47027  0.51547  0.75013  1.0000
  C   C515      1.0  0.44909  0.52971  0.47797  1.0000
  C   C516      1.0  0.45084  0.73534  0.71643  1.0000
  C   C517      1.0  0.36393  0.69081  0.00717  1.0000
  H   H519      1.0  0.48301  0.66773  0.13419  1.0000
  C   C518      1.0  0.33246  0.62348  0.47938  1.0000
  C   C519      1.0  0.42494  0.57134  0.22653  1.0000
  S   S180      1.0  0.32783  0.72763  0.86774  1.0000
  C   C520      1.0  0.47586  0.57608  0.50070  1.0000
  C   C521      1.0  0.34722  0.66089  0.28716  1.0000
  H   H520      1.0  0.45154  0.50842  0.80177  1.0000
  N   N42       1.0  0.45282  0.50642  0.74283  1.0000
  H   H521      1.0  0.36296  0.72514  0.40558  1.0000
  H   H522      1.0  0.47939  0.66831  0.01186  1.0000
  H   H523      1.0  0.42883  0.71271  0.38765  1.0000
  H   H524      1.0  0.48182  0.51109  0.89491  1.0000
  H   H525      1.0  0.42115  0.58519  0.27807  1.0000
  C   C522      1.0  0.36198  0.66486  0.22259  1.0000
  C   C523      1.0  0.46951  0.56438  0.99186  1.0000
  H   H526      1.0  0.42735  0.57064  0.19521  1.0000
  H   H527      1.0  0.40410  0.51656  0.17589  1.0000
  N   N43       1.0  0.37121  0.67107  0.23549  1.0000
  C   C524      1.0  0.33564  0.66872  0.00793  1.0000
  C   C525      1.0  0.36863  0.67251  0.27340  1.0000
  C   C526      1.0  0.46232  0.70138  0.77936  1.0000
  C   C527      1.0  0.37385  0.51672  0.18215  1.0000
  C   C528      1.0  0.45409  0.74201  0.74343  1.0000
  C   C529      1.0  0.48071  0.51794  0.53926  1.0000
  Fe  Fe91      1.0  0.47721  0.62239  0.13115  1.0000
  H   H528      1.0  0.46078  0.69759  0.84229  1.0000
  C   C530      1.0  0.38390  0.67649  0.20847  1.0000
  S   S181      1.0  0.48532  0.64721  0.31747  1.0000
  C   C531      1.0  0.34288  0.58580  0.96396  1.0000
  Fe  Fe92      1.0  0.48069  0.62106  0.04507  1.0000
  C   C532      1.0  0.33172  0.68634  0.96320  1.0000
  H   H529      1.0  0.44893  0.69201  0.10421  1.0000
  H   H530      1.0  0.48391  0.72191  0.84287  1.0000
  C   C533      1.0  0.45853  0.69126  0.09659  1.0000
  H   H531      1.0  0.46800  0.65900  0.13369  1.0000
  C   C534      1.0  0.32688  0.54424  0.48757  1.0000
  C   C535      1.0  0.48152  0.59553  0.57082  1.0000
  H   H532      1.0  0.48383  0.64372  0.18357  1.0000
  C   C536      1.0  0.33034  0.58112  0.96619  1.0000
  H   H533      1.0  0.45400  0.67179  0.13090  1.0000
  H   H534      1.0  0.48310  0.60942  0.26841  1.0000
  S   S182      1.0  0.44295  0.49769  0.54690  1.0000
  N   N44       1.0  0.47349  0.67867  0.10049  1.0000
  S   S183      1.0  0.46979  0.49703  0.83439  1.0000
  N   N45       1.0  0.48211  0.58587  0.54909  1.0000
  H   H535      1.0  0.48349  0.56022  0.49241  1.0000
  H   H536      1.0  0.41809  0.50618  0.52493  1.0000
  C   C537      1.0  0.32308  0.57061  0.99759  1.0000
  H   H537      1.0  0.48296  0.55332  0.98292  1.0000
  H   H538      1.0  0.32503  0.53468  0.50647  1.0000
  C   C538      1.0  0.48314  0.61936  0.26141  1.0000
  H   H539      1.0  0.38271  0.50825  0.09659  1.0000
  H   H540      1.0  0.48076  0.73495  0.77149  1.0000
  H   H541      1.0  0.48070  0.60447  0.55147  1.0000
  H   H542      1.0  0.47711  0.72965  0.71048  1.0000
  H   H543      1.0  0.48744  0.70797  0.03715  1.0000
  C   C539      1.0  0.48820  0.52313  0.60495  1.0000
  C   C540      1.0  0.47910  0.96013  0.59679  1.0000
  H   H544      1.0  0.44927  0.95025  0.59327  1.0000
  H   H545      1.0  0.37536  0.85870  0.45027  1.0000
  Fe  Fe93      1.0  0.47822  0.84162  0.45205  1.0000
  C   C541      1.0  0.47796  0.77084  0.52632  1.0000
  S   S184      1.0  0.45772  0.84097  0.46695  1.0000
  H   H546      1.0  0.47848  0.80333  0.45758  1.0000
  H   H547      1.0  0.46388  0.93415  0.01061  1.0000
  C   C542      1.0  0.35528  0.77077  0.97935  1.0000
  C   C543      1.0  0.48542  0.83072  0.27758  1.0000
  H   H548      1.0  0.44846  0.80096  0.90148  1.0000
  H   H549      1.0  0.45979  0.75166  0.73192  1.0000
  Fe  Fe94      1.0  0.40601  0.81338  0.39411  1.0000
  S   S185      1.0  0.39345  0.81776  0.44491  1.0000
  S   S186      1.0  0.42372  0.80701  0.39290  1.0000
  Fe  Fe95      1.0  0.39231  0.82255  0.33360  1.0000
  S   S187      1.0  0.37870  0.82819  0.37949  1.0000
  S   S188      1.0  0.39721  0.82607  0.26546  1.0000
  Fe  Fe96      1.0  0.39534  0.83617  0.40007  1.0000
  S   S189      1.0  0.40039  0.85633  0.40740  1.0000
  Fe  Fe97      1.0  0.37786  0.80926  0.42134  1.0000
  S   S190      1.0  0.40875  0.83212  0.35089  1.0000
  S   S191      1.0  0.39049  0.80336  0.37433  1.0000
  Fe  Fe98      1.0  0.43817  0.90121  0.52507  1.0000
  S   S192      1.0  0.45210  0.89684  0.55899  1.0000
  S   S193      1.0  0.42684  0.88241  0.51991  1.0000
  Fe  Fe99      1.0  0.44682  0.92968  0.51964  1.0000
  S   S194      1.0  0.46082  0.92674  0.55377  1.0000
  Fe  Fe100     1.0  0.46553  0.91410  0.51522  1.0000
  S   S195      1.0  0.48571  0.91427  0.49310  1.0000
  Fe  Fe101     1.0  0.44629  0.90985  0.59524  1.0000
  S   S196      1.0  0.44682  0.90366  0.66020  1.0000
  S   S197      1.0  0.45240  0.91783  0.47807  1.0000
  S   S198      1.0  0.43137  0.91338  0.56458  1.0000
  H   H550      1.0  0.44380  0.96769  0.55240  1.0000
  C   C544      1.0  0.46960  0.96414  0.07946  1.0000
  C   C545      1.0  0.48715  0.78181  0.52257  1.0000
  N   N46       1.0  0.38302  0.86389  0.49591  1.0000
  H   H551      1.0  0.46897  0.95970  0.11122  1.0000
  H   H552      1.0  0.44945  0.86685  0.02251  1.0000
  Fe  Fe102     1.0  0.47104  0.83792  0.08414  1.0000
  S   S199      1.0  0.45283  0.84223  0.07882  1.0000
  C   C546      1.0  0.45730  0.86854  0.99532  1.0000
  S   S200      1.0  0.47317  0.81955  0.11894  1.0000
  C   C547      1.0  0.48027  0.98330  0.97925  1.0000
  Fe  Fe103     1.0  0.37803  0.80505  0.08902  1.0000
  H   H553      1.0  0.46079  0.84138  0.31790  1.0000
  N   N47       1.0  0.33596  0.77199  0.07670  1.0000
  Fe  Fe104     1.0  0.40157  0.80461  0.02866  1.0000
  S   S201      1.0  0.39394  0.80939  0.97598  1.0000
  S   S202      1.0  0.42062  0.80079  0.02295  1.0000
  Fe  Fe105     1.0  0.38709  0.82366  0.00568  1.0000
  S   S203      1.0  0.38920  0.84447  0.97448  1.0000
  H   H554      1.0  0.47105  0.95228  0.50480  1.0000
  S   S204      1.0  0.39589  0.81962  0.05586  1.0000
  S   S205      1.0  0.38443  0.78955  0.06624  1.0000
  Fe  Fe106     1.0  0.44962  0.92876  0.84852  1.0000
  S   S206      1.0  0.43624  0.92573  0.90951  1.0000
  S   S207      1.0  0.44391  0.93425  0.79087  1.0000
  Fe  Fe107     1.0  0.47036  0.92363  0.88451  1.0000
  S   S208      1.0  0.45875  0.92003  0.94736  1.0000
  H   H555      1.0  0.36935  0.87048  0.47065  1.0000
  Fe  Fe108     1.0  0.44367  0.90864  0.92857  1.0000
  S   S209      1.0  0.43512  0.88833  0.96861  1.0000
  Fe  Fe109     1.0  0.45265  0.93745  0.92305  1.0000
  S   S210      1.0  0.45598  0.91106  0.86712  1.0000
  S   S211      1.0  0.46526  0.94169  0.86064  1.0000
  S   S212      1.0  0.45652  0.75859  0.51093  1.0000
  S   S213      1.0  0.45269  0.76458  0.98786  1.0000
  H   H556      1.0  0.33048  0.78849  0.08694  1.0000
  C   C548      1.0  0.42372  0.90257  0.84182  1.0000
  C   C549      1.0  0.42863  0.89192  0.84426  1.0000
  C   C550      1.0  0.48839  0.89510  0.00161  1.0000
  H   H557      1.0  0.46730  0.99556  0.44630  1.0000
  H   H558      1.0  0.42662  0.78143  0.52905  1.0000
  Fe  Fe110     1.0  0.48762  0.83188  0.13787  1.0000
  C   C551      1.0  0.39330  0.87077  0.54224  1.0000
  C   C552      1.0  0.40262  0.85656  0.96918  1.0000
  C   C553      1.0  0.40320  0.86929  0.95106  1.0000
  C   C554      1.0  0.41338  0.87915  0.94878  1.0000
  C   C555      1.0  0.42311  0.87635  0.96462  1.0000
  C   C556      1.0  0.42264  0.86360  0.98186  1.0000
  C   C557      1.0  0.41248  0.85379  0.98413  1.0000
  H   H559      1.0  0.39559  0.87155  0.93953  1.0000
  H   H560      1.0  0.41345  0.88892  0.93625  1.0000
  H   H561      1.0  0.43001  0.86130  0.99451  1.0000
  H   H562      1.0  0.41219  0.84408  0.99804  1.0000
  C   C558      1.0  0.47998  0.79302  0.02576  1.0000
  C   C559      1.0  0.46713  0.79222  0.03547  1.0000
  C   C560      1.0  0.45896  0.78327  0.02456  1.0000
  C   C561      1.0  0.46343  0.77490  0.00386  1.0000
  C   C562      1.0  0.47626  0.77555  0.99475  1.0000
  C   C563      1.0  0.46605  0.94782  0.04429  1.0000
  H   H563      1.0  0.46353  0.79862  0.05093  1.0000
  H   H564      1.0  0.44911  0.78293  0.03203  1.0000
  H   H565      1.0  0.43062  0.77728  0.01269  1.0000
  C   C564      1.0  0.38262  0.85156  0.51359  1.0000
  C   C565      1.0  0.44426  0.83074  0.06226  1.0000
  C   C566      1.0  0.43488  0.83362  0.04485  1.0000
  C   C567      1.0  0.42792  0.82453  0.03160  1.0000
  C   C568      1.0  0.42993  0.81238  0.03720  1.0000
  C   C569      1.0  0.43949  0.80957  0.05384  1.0000
  C   C570      1.0  0.44674  0.81880  0.06598  1.0000
  H   H566      1.0  0.43307  0.84291  0.04119  1.0000
  H   H567      1.0  0.42113  0.82697  0.01642  1.0000
  H   H568      1.0  0.44116  0.80022  0.05794  1.0000
  H   H569      1.0  0.45403  0.81652  0.07907  1.0000
  C   C571      1.0  0.44750  0.91331  0.69319  1.0000
  C   C572      1.0  0.45159  0.90922  0.72716  1.0000
  C   C573      1.0  0.45109  0.91587  0.75644  1.0000
  C   C574      1.0  0.44638  0.92664  0.75218  1.0000
  C   C575      1.0  0.44267  0.93099  0.71750  1.0000
  C   C576      1.0  0.44327  0.92439  0.68800  1.0000
  H   H570      1.0  0.45488  0.90066  0.73140  1.0000
  H   H571      1.0  0.45402  0.91245  0.78283  1.0000
  S   S214      1.0  0.44576  0.95013  0.49678  1.0000
  C   C577      1.0  0.37784  0.86702  0.46181  1.0000
  H   H572      1.0  0.45958  0.85935  0.99426  1.0000
  N   N48       1.0  0.41460  0.76376  0.01478  1.0000
  C   C578      1.0  0.44236  0.85521  0.37490  1.0000
  C   C579      1.0  0.47849  0.79436  0.47655  1.0000
  C   C580      1.0  0.38901  0.81857  0.23657  1.0000
  C   C581      1.0  0.39534  0.81977  0.19662  1.0000
  C   C582      1.0  0.38918  0.81439  0.17191  1.0000
  C   C583      1.0  0.37649  0.80814  0.18631  1.0000
  H   H573      1.0  0.43260  0.85533  0.38503  1.0000
  H   H574      1.0  0.46648  0.82847  0.98233  1.0000
  H   H575      1.0  0.40506  0.82490  0.18465  1.0000
  H   H576      1.0  0.39426  0.81510  0.14166  1.0000
  C   C584      1.0  0.40963  0.86348  0.43492  1.0000
  C   C585      1.0  0.41264  0.87678  0.42721  1.0000
  C   C586      1.0  0.41862  0.88284  0.45124  1.0000
  C   C587      1.0  0.42156  0.87564  0.48381  1.0000
  C   C588      1.0  0.41896  0.86238  0.49058  1.0000
  C   C589      1.0  0.41317  0.85634  0.46612  1.0000
  H   H577      1.0  0.41004  0.88245  0.40302  1.0000
  H   H578      1.0  0.42048  0.89302  0.44559  1.0000
  H   H579      1.0  0.42118  0.85668  0.51562  1.0000
  H   H580      1.0  0.41097  0.84612  0.47257  1.0000
  C   C590      1.0  0.40567  0.76978  0.00616  1.0000
  H   H581      1.0  0.34507  0.79250  0.12793  1.0000
  C   C591      1.0  0.48685  0.95749  0.04162  1.0000
  C   C592      1.0  0.46903  0.77163  0.50501  1.0000
  C   C593      1.0  0.46948  0.78341  0.47968  1.0000
  H   H582      1.0  0.43953  0.79712  0.95340  1.0000
  H   H583      1.0  0.46617  0.94175  0.61404  1.0000
  H   H584      1.0  0.41839  0.77274  0.05914  1.0000
  H   H585      1.0  0.46263  0.78413  0.46305  1.0000
  H   H586      1.0  0.46024  0.96533  0.07719  1.0000
  S   S215      1.0  0.32463  0.74652  0.45497  1.0000
  C   C594      1.0  0.45772  0.81412  0.95858  1.0000
  H   H587      1.0  0.35845  0.75204  0.99276  1.0000
  C   C595      1.0  0.47048  0.89022  0.97660  1.0000
  S   S216      1.0  0.48540  0.83901  0.02842  1.0000
  C   C596      1.0  0.48444  0.78453  0.00563  1.0000
  C   C597      1.0  0.47915  0.98456  0.46903  1.0000
  C   C598      1.0  0.38759  0.84855  0.54608  1.0000
  C   C599      1.0  0.48081  0.97312  0.58093  1.0000
  H   H588      1.0  0.38493  0.87441  0.43644  1.0000
  H   H589      1.0  0.34335  0.75611  0.07035  1.0000
  C   C600      1.0  0.44830  0.83092  0.44798  1.0000
  C   C601      1.0  0.43585  0.83142  0.45241  1.0000
  C   C602      1.0  0.42830  0.82410  0.43545  1.0000
  C   C603      1.0  0.43304  0.81595  0.41504  1.0000
  C   C604      1.0  0.44539  0.81514  0.41161  1.0000
  C   C605      1.0  0.45303  0.82268  0.42785  1.0000
  H   H590      1.0  0.43210  0.83771  0.46818  1.0000
  H   H591      1.0  0.41884  0.82486  0.43807  1.0000
  H   H592      1.0  0.44910  0.80880  0.39599  1.0000
  H   H593      1.0  0.46252  0.82204  0.42482  1.0000
  H   H594      1.0  0.41675  0.92358  0.82849  1.0000
  C   C606      1.0  0.35292  0.75787  0.98009  1.0000
  C   C607      1.0  0.33709  0.76046  0.49653  1.0000
  H   H595      1.0  0.48752  0.79329  0.33044  1.0000
  C   C608      1.0  0.34458  0.78441  0.11570  1.0000
  C   C609      1.0  0.47556  0.87375  0.02004  1.0000
  C   C610      1.0  0.46340  0.86115  0.37704  1.0000
  C   C611      1.0  0.48141  0.89078  0.59653  1.0000
  H   H596      1.0  0.47069  0.90461  0.60017  1.0000
  C   C612      1.0  0.47077  0.80231  0.92973  1.0000
  C   C613      1.0  0.48324  0.94160  0.00671  1.0000
  H   H597      1.0  0.47546  0.88554  0.58260  1.0000
  C   C614      1.0  0.44961  0.97446  0.56373  1.0000
  H   H598      1.0  0.47365  0.86386  0.03643  1.0000
  C   C615      1.0  0.47532  0.96634  0.94726  1.0000
  C   C616      1.0  0.46763  0.95187  0.60176  1.0000
  C   C617      1.0  0.34532  0.77127  0.49877  1.0000
  H   H599      1.0  0.34647  0.77200  0.52754  1.0000
  N   N49       1.0  0.42866  0.81257  0.26508  1.0000
  C   C618      1.0  0.42918  0.81861  0.22660  1.0000
  C   C619      1.0  0.43938  0.81282  0.27681  1.0000
  C   C620      1.0  0.44072  0.82468  0.19817  1.0000
  C   C621      1.0  0.45106  0.81881  0.24919  1.0000
  C   C622      1.0  0.45171  0.82474  0.20964  1.0000
  C   C623      1.0  0.41651  0.80656  0.29460  1.0000
  H   H600      1.0  0.42062  0.81878  0.21787  1.0000
  H   H601      1.0  0.43891  0.80839  0.30772  1.0000
  H   H602      1.0  0.44114  0.82933  0.16748  1.0000
  H   H603      1.0  0.45957  0.81884  0.25828  1.0000
  H   H604      1.0  0.46074  0.82941  0.18800  1.0000
  H   H605      1.0  0.40942  0.80268  0.28049  1.0000
  H   H606      1.0  0.41710  0.79868  0.31890  1.0000
  H   H607      1.0  0.41319  0.81372  0.30822  1.0000
  H   H608      1.0  0.44003  0.92759  0.66209  1.0000
  H   H609      1.0  0.45608  0.94711  0.05339  1.0000
  H   H610      1.0  0.39734  0.85616  0.58444  1.0000
  H   H611      1.0  0.47082  0.80886  0.56145  1.0000
  N   N50       1.0  0.47427  0.95638  0.05418  1.0000
  C   C624      1.0  0.44742  0.86868  0.41760  1.0000
  H   H612      1.0  0.47194  0.79465  0.91630  1.0000
  C   C625      1.0  0.45837  0.97544  0.46460  1.0000
  H   H613      1.0  0.47681  0.82336  0.29024  1.0000
  N   N51       1.0  0.44411  0.78609  0.54218  1.0000
  C   C626      1.0  0.44688  0.79882  0.52400  1.0000
  C   C627      1.0  0.45065  0.78138  0.56749  1.0000
  C   C628      1.0  0.45637  0.80721  0.53117  1.0000
  C   C629      1.0  0.46024  0.78951  0.57519  1.0000
  C   C630      1.0  0.46314  0.80250  0.55674  1.0000
  C   C631      1.0  0.43472  0.77739  0.53207  1.0000
  H   H614      1.0  0.44185  0.80254  0.50336  1.0000
  H   H615      1.0  0.44884  0.77123  0.58053  1.0000
  H   H616      1.0  0.45864  0.81729  0.51643  1.0000
  H   H617      1.0  0.46570  0.78570  0.59411  1.0000
  C   C632      1.0  0.34344  0.75237  0.96468  1.0000
  H   H618      1.0  0.38883  0.88323  0.49526  1.0000
  C   C633      1.0  0.48015  0.97222  0.48486  1.0000
  C   C634      1.0  0.33846  0.77260  0.94760  1.0000
  N   N52       1.0  0.45120  0.86176  0.38840  1.0000
  H   H619      1.0  0.38759  0.83882  0.55927  1.0000
  H   H620      1.0  0.43904  0.93934  0.71393  1.0000
  C   C635      1.0  0.46247  0.96468  0.96358  1.0000
  N   N53       1.0  0.41941  0.90710  0.80990  1.0000
  H   H621      1.0  0.45414  0.87198  0.96840  1.0000
  H   H622      1.0  0.44456  0.86216  0.44845  1.0000
  H   H623      1.0  0.47992  0.76927  0.97882  1.0000
  H   H624      1.0  0.41753  0.92473  0.77741  1.0000
  C   C636      1.0  0.35069  0.78001  0.42697  1.0000
  H   H625      1.0  0.47028  0.86594  0.38904  1.0000
  C   C637      1.0  0.37642  0.81191  0.25156  1.0000
  C   C638      1.0  0.34348  0.76396  0.08358  1.0000
  H   H626      1.0  0.48678  0.93616  0.98705  1.0000
  C   C639      1.0  0.34801  0.77813  0.96272  1.0000
  C   C640      1.0  0.41977  0.90122  0.78002  1.0000
  H   H627      1.0  0.44873  0.97156  0.99955  1.0000
  H   H628      1.0  0.42803  0.76218  0.04828  1.0000
  H   H629      1.0  0.45328  0.98345  0.53914  1.0000
  C   C641      1.0  0.48412  0.97550  0.95527  1.0000
  C   C642      1.0  0.45919  0.96313  0.48216  1.0000
  C   C643      1.0  0.45806  0.95674  0.59028  1.0000
  H   H630      1.0  0.38495  0.86446  0.04898  1.0000
  H   H631      1.0  0.35574  0.78757  0.40006  1.0000
  H   H632      1.0  0.42357  0.90731  0.86529  1.0000
  H   H633      1.0  0.41659  0.90495  0.75432  1.0000
  C   C644      1.0  0.46742  0.98195  0.99442  1.0000
  C   C645      1.0  0.45811  0.84722  0.33727  1.0000
  H   H634      1.0  0.42524  0.88616  0.75705  1.0000
  H   H635      1.0  0.43949  0.87272  0.41241  1.0000
  H   H636      1.0  0.47771  0.76182  0.54593  1.0000
  C   C646      1.0  0.46832  0.98611  0.45796  1.0000
  C   C647      1.0  0.47098  0.97769  0.57034  1.0000
  C   C648      1.0  0.46706  0.85394  0.35118  1.0000
  C   C649      1.0  0.46783  0.82129  0.96685  1.0000
  H   H637      1.0  0.45520  0.87669  0.41569  1.0000
  S   S217      1.0  0.36700  0.77690  0.00130  1.0000
  H   H638      1.0  0.40424  0.88131  0.03555  1.0000
  C   C650      1.0  0.45862  0.97266  0.98688  1.0000
  S   S218      1.0  0.36825  0.80229  0.15458  1.0000
  C   C651      1.0  0.41398  0.91807  0.80807  1.0000
  C   C652      1.0  0.47029  0.96160  0.49120  1.0000
  S   S219      1.0  0.36091  0.79533  0.46926  1.0000
  C   C653      1.0  0.37016  0.80682  0.22638  1.0000
  C   C654      1.0  0.44567  0.84784  0.34915  1.0000
  H   H639      1.0  0.37141  0.81094  0.28221  1.0000
  C   C655      1.0  0.40331  0.87182  0.05375  1.0000
  H   H640      1.0  0.43901  0.77553  0.50335  1.0000
  C   C656      1.0  0.39299  0.85825  0.56034  1.0000
  H   H641      1.0  0.43111  0.76812  0.55543  1.0000
  S   S220      1.0  0.48719  0.82938  0.41894  1.0000
  H   H642      1.0  0.33190  0.75299  0.52352  1.0000
  H   H643      1.0  0.47585  0.91710  0.66050  1.0000
  C   C657      1.0  0.48575  0.88238  0.02286  1.0000
  H   H644      1.0  0.42182  0.87620  0.06124  1.0000
  C   C658      1.0  0.38822  0.87343  0.50991  1.0000
  C   C659      1.0  0.33608  0.75969  0.94837  1.0000
  H   H645      1.0  0.34969  0.78806  0.96165  1.0000
  H   H646      1.0  0.47591  0.97386  0.06955  1.0000
  C   C660      1.0  0.41321  0.86893  0.06815  1.0000
  C   C661      1.0  0.39245  0.86226  0.06142  1.0000
  H   H647      1.0  0.43218  0.88845  0.86940  1.0000
  H   H648      1.0  0.39796  0.87842  0.55206  1.0000
  H   H649      1.0  0.44861  0.81606  0.96695  1.0000
  H   H650      1.0  0.40041  0.83771  0.11424  1.0000
  C   C662      1.0  0.32707  0.76963  0.05336  1.0000
  S   S221      1.0  0.45094  0.95208  0.95926  1.0000
  H   H651      1.0  0.46452  0.89341  0.95859  1.0000
  C   C663      1.0  0.42907  0.88589  0.81387  1.0000
  C   C664      1.0  0.35202  0.78119  0.46414  1.0000
  H   H652      1.0  0.36035  0.80194  0.23795  1.0000
  H   H653      1.0  0.40363  0.91492  0.81636  1.0000
  H   H654      1.0  0.47672  0.85336  0.34273  1.0000
  S   S222      1.0  0.48733  0.83821  0.50164  1.0000
  C   C665      1.0  0.35182  0.76605  0.10638  1.0000
  H   H655      1.0  0.37882  0.84401  0.50183  1.0000
  N   N54       1.0  0.39138  0.85022  0.08356  1.0000
  H   H656      1.0  0.44899  0.78702  0.93779  1.0000
  C   C666      1.0  0.41215  0.85656  0.08996  1.0000
  H   H657      1.0  0.33288  0.77839  0.93502  1.0000
  C   C667      1.0  0.42462  0.89055  0.78148  1.0000
  H   H658      1.0  0.43297  0.87770  0.81517  1.0000
  S   S223      1.0  0.36840  0.80986  0.04081  1.0000
  C   C668      1.0  0.40110  0.84728  0.09746  1.0000
  C   C669      1.0  0.37982  0.84046  0.09139  1.0000
  H   H659      1.0  0.41989  0.85413  0.10064  1.0000
  H   H660      1.0  0.47847  0.96032  0.92931  1.0000
  H   H661      1.0  0.37893  0.83837  0.06294  1.0000
  N   N55       1.0  0.45923  0.80459  0.94104  1.0000
  C   C670      1.0  0.33543  0.75951  0.45950  1.0000
  N   N56       1.0  0.46816  0.87770  0.99678  1.0000
  H   H662      1.0  0.48467  0.93955  0.49743  1.0000
  H   H663      1.0  0.37157  0.84374  0.10442  1.0000
  Fe  Fe111     1.0  0.37603  0.79514  0.01518  1.0000
  C   C671      1.0  0.34242  0.76924  0.42474  1.0000
  H   H664      1.0  0.44984  0.97678  0.45741  1.0000
  H   H665      1.0  0.37957  0.83147  0.11307  1.0000
  H   H666      1.0  0.43856  0.84237  0.33951  1.0000
  C   C672      1.0  0.48113  0.80944  0.93697  1.0000
  H   H667      1.0  0.46425  0.98789  0.01263  1.0000
  H   H668      1.0  0.48253  0.90896  0.96227  1.0000
  C   C673      1.0  0.39745  0.76498  0.98602  1.0000
  C   C674      1.0  0.35232  0.77631  0.12265  1.0000
  Fe  Fe112     1.0  0.48847  0.82119  0.06424  1.0000
  C   C675      1.0  0.47959  0.81889  0.95603  1.0000
  S   S224      1.0  0.48410  0.85019  0.10679  1.0000
  C   C676      1.0  0.39849  0.75401  0.97443  1.0000
  Fe  Fe113     1.0  0.45298  0.74752  0.96101  1.0000
  C   C677      1.0  0.44852  0.79708  0.93294  1.0000
  H   H669      1.0  0.32963  0.78173  0.56480  1.0000
  N   N57       1.0  0.45986  0.96950  0.57453  1.0000
  H   H670      1.0  0.32883  0.76230  0.03767  1.0000
  H   H671      1.0  0.35880  0.77811  0.14021  1.0000
  C   C678      1.0  0.47881  0.90165  0.60617  1.0000
  H   H672      1.0  0.35805  0.75991  0.11066  1.0000
  N   N58       1.0  0.48651  0.90859  0.62231  1.0000
  H   H673      1.0  0.34126  0.76858  0.39588  1.0000
  H   H674      1.0  0.42310  0.74850  0.00889  1.0000
  C   C679      1.0  0.47041  0.94038  0.02017  1.0000
  H   H675      1.0  0.39036  0.76978  0.97929  1.0000
  C   C680      1.0  0.48065  0.89908  0.97863  1.0000
  S   S225      1.0  0.48437  0.82601  0.20592  1.0000
  C   C681      1.0  0.48735  0.79366  0.49810  1.0000
  H   H676      1.0  0.48745  0.82405  0.96349  1.0000
  H   H677      1.0  0.48655  0.83326  0.33510  1.0000
  H   H678      1.0  0.47248  0.98780  0.55736  1.0000
  C   C682      1.0  0.41581  0.75311  0.00298  1.0000
  H   H679      1.0  0.40488  0.77838  0.01473  1.0000
  C   C683      1.0  0.42332  0.76922  0.03481  1.0000
  C   C684      1.0  0.40773  0.74803  0.98289  1.0000
  H   H680      1.0  0.48671  0.95647  0.60476  1.0000
  S   S226      1.0  0.32350  0.75317  0.93023  1.0000
  C   C685      1.0  0.33641  0.78210  0.09247  1.0000
  H   H681      1.0  0.39219  0.75021  0.95868  1.0000
  C   C686      1.0  0.48350  0.91992  0.63211  1.0000
  H   H682      1.0  0.32795  0.77841  0.02978  1.0000
  H   H683      1.0  0.48043  0.92544  0.60772  1.0000
  H   H684      1.0  0.44362  0.97619  0.59020  1.0000
  H   H685      1.0  0.48842  0.97090  0.49383  1.0000
  Fe  Fe114     1.0  0.58044  0.12667  0.54128  1.0000
  S   S227      1.0  0.56539  0.10946  0.57902  1.0000
  S   S228      1.0  0.60068  0.12607  0.52804  1.0000
  Fe  Fe115     1.0  0.56221  0.14213  0.52414  1.0000
  S   S229      1.0  0.54534  0.12594  0.56041  1.0000
  S   S230      1.0  0.56196  0.16187  0.48973  1.0000
  Fe  Fe116     1.0  0.55649  0.12313  0.60568  1.0000
  S   S231      1.0  0.54866  0.11868  0.67344  1.0000
  Fe  Fe117     1.0  0.55546  0.11327  0.53092  1.0000
  S   S232      1.0  0.55017  0.09590  0.50712  1.0000
  S   S233      1.0  0.57231  0.14002  0.57142  1.0000
  S   S234      1.0  0.57143  0.12978  0.49136  1.0000
  Fe  Fe118     1.0  0.51004  0.04563  0.41970  1.0000
  S   S235      1.0  0.52342  0.04825  0.35993  1.0000
  S   S236      1.0  0.50978  0.06304  0.44441  1.0000
  Fe  Fe119     1.0  0.49987  0.01697  0.42808  1.0000
  S   S237      1.0  0.51304  0.01794  0.36919  1.0000
  C   C687      1.0  0.61286  0.04710  0.24643  1.0000
  Fe  Fe120     1.0  0.52729  0.03008  0.38815  1.0000
  S   S238      1.0  0.54725  0.02884  0.37394  1.0000
  Fe  Fe121     1.0  0.50799  0.03603  0.34493  1.0000
  S   S239      1.0  0.50946  0.04314  0.27837  1.0000
  S   S240      1.0  0.51482  0.02789  0.44894  1.0000
  Fe  Fe122     1.0  0.49708  0.00961  0.02188  1.0000
  Fe  Fe123     1.0  0.62022  0.07008  0.47373  1.0000
  S   S241      1.0  0.61393  0.07581  0.41809  1.0000
  Fe  Fe124     1.0  0.62093  0.05989  0.39928  1.0000
  S   S242      1.0  0.63137  0.06270  0.33416  1.0000
  Fe  Fe125     1.0  0.59641  0.06067  0.45065  1.0000
  S   S243      1.0  0.57750  0.06426  0.45338  1.0000
  S   S244      1.0  0.60190  0.05579  0.50739  1.0000
  Fe  Fe126     1.0  0.60353  0.23763  0.11297  1.0000
  C   C688      1.0  0.63732  0.09533  0.51570  1.0000
  H   H686      1.0  0.59629  0.15540  0.72987  1.0000
  Fe  Fe127     1.0  0.52082  0.01971  0.04517  1.0000
  S   S245      1.0  0.51547  0.02388  0.98789  1.0000
  S   S246      1.0  0.53987  0.01652  0.04359  1.0000
  Fe  Fe128     1.0  0.50732  0.03850  0.01126  1.0000
  S   S247      1.0  0.51162  0.05865  0.97088  1.0000
  H   H687      1.0  0.63881  0.04062  0.38762  1.0000
  H   H688      1.0  0.63536  0.05666  0.96823  1.0000
  S   S248      1.0  0.51400  0.03527  0.06603  1.0000
  S   S249      1.0  0.50333  0.00450  0.07796  1.0000
  Fe  Fe129     1.0  0.62048  0.06093  0.06168  1.0000
  S   S250      1.0  0.60722  0.06342  0.11509  1.0000
  Fe  Fe130     1.0  0.59245  0.05189  0.09623  1.0000
  S   S251      1.0  0.57367  0.05595  0.10113  1.0000
  Fe  Fe131     1.0  0.60911  0.04456  0.14839  1.0000
  S   S252      1.0  0.60529  0.05082  0.04003  1.0000
  Fe  Fe132     1.0  0.58960  0.13743  0.89221  1.0000
  S   S253      1.0  0.58616  0.15568  0.86187  1.0000
  S   S254      1.0  0.60936  0.13545  0.87822  1.0000
  Fe  Fe133     1.0  0.56207  0.12512  0.93293  1.0000
  S   S255      1.0  0.55649  0.14282  0.90577  1.0000
  S   S256      1.0  0.55058  0.10655  0.97983  1.0000
  Fe  Fe134     1.0  0.57042  0.14334  0.84844  1.0000
  S   S257      1.0  0.57030  0.14977  0.78293  1.0000
  Fe  Fe135     1.0  0.57286  0.15387  0.92127  1.0000
  S   S258      1.0  0.57218  0.17192  0.94240  1.0000
  S   S259      1.0  0.57499  0.12514  0.87473  1.0000
  S   S260      1.0  0.57731  0.13614  0.95257  1.0000
  Fe  Fe136     1.0  0.60490  0.22553  0.04148  1.0000
  S   S261      1.0  0.60371  0.20621  0.02703  1.0000
  S   S262      1.0  0.61818  0.23011  0.07812  1.0000
  Fe  Fe137     1.0  0.60153  0.23364  0.45727  1.0000
  H   H689      1.0  0.57394  0.09218  0.96708  1.0000
  S   S263      1.0  0.59588  0.21326  0.49746  1.0000
  H   H690      1.0  0.60112  0.19536  0.40030  1.0000
  C   C689      1.0  0.59436  0.19651  0.00532  1.0000
  C   C690      1.0  0.58458  0.20005  0.99127  1.0000
  C   C691      1.0  0.57774  0.19223  0.97323  1.0000
  C   C692      1.0  0.58061  0.18082  0.96838  1.0000
  C   C693      1.0  0.59033  0.17723  0.98274  1.0000
  C   C694      1.0  0.59708  0.18498  0.00124  1.0000
  H   H691      1.0  0.58233  0.20886  0.99400  1.0000
  H   H692      1.0  0.57026  0.19515  0.96228  1.0000
  H   H693      1.0  0.59272  0.16853  0.97928  1.0000
  H   H694      1.0  0.60462  0.18208  0.01188  1.0000
  C   C695      1.0  0.52285  0.07175  0.97288  1.0000
  C   C696      1.0  0.52813  0.07116  0.00496  1.0000
  C   C697      1.0  0.53647  0.08195  0.00665  1.0000
  C   C698      1.0  0.53986  0.09340  0.97602  1.0000
  C   C699      1.0  0.53477  0.09394  0.94355  1.0000
  C   C700      1.0  0.52621  0.08320  0.94225  1.0000
  H   H695      1.0  0.52567  0.06247  0.02878  1.0000
  H   H696      1.0  0.54047  0.08139  0.03166  1.0000
  H   H697      1.0  0.53726  0.10268  0.91978  1.0000
  H   H698      1.0  0.52214  0.08379  0.91738  1.0000
  C   C701      1.0  0.54891  0.02643  0.06389  1.0000
  C   C702      1.0  0.54358  0.03380  0.08654  1.0000
  C   C703      1.0  0.55120  0.04283  0.09822  1.0000
  C   C704      1.0  0.56413  0.04420  0.08842  1.0000
  C   C705      1.0  0.56938  0.03630  0.06795  1.0000
  C   C706      1.0  0.56179  0.02750  0.05540  1.0000
  H   H699      1.0  0.53362  0.03254  0.09521  1.0000
  H   H700      1.0  0.54708  0.04876  0.11477  1.0000
  H   H701      1.0  0.57932  0.03712  0.06092  1.0000
  H   H702      1.0  0.56595  0.02168  0.03845  1.0000
  S   S264      1.0  0.62340  0.04254  0.09595  1.0000
  S   S265      1.0  0.62882  0.05516  0.45241  1.0000
  H   H703      1.0  0.54985  0.07269  0.91100  1.0000
  H   H704      1.0  0.60308  0.14861  0.93816  1.0000
  C   C707      1.0  0.62370  0.05749  0.30016  1.0000
  C   C708      1.0  0.60616  0.04455  0.28684  1.0000
  C   C709      1.0  0.61148  0.04980  0.31344  1.0000
  H   H705      1.0  0.59683  0.03833  0.29781  1.0000
  H   H706      1.0  0.60621  0.04761  0.34444  1.0000
  C   C710      1.0  0.50326  0.03494  0.24702  1.0000
  C   C711      1.0  0.50908  0.03911  0.20551  1.0000
  C   C712      1.0  0.50415  0.03343  0.17900  1.0000
  C   C713      1.0  0.64132  0.11237  0.42377  1.0000
  C   C714      1.0  0.49563  0.06066  0.13129  1.0000
  H   H707      1.0  0.64163  0.15775  0.66940  1.0000
  H   H708      1.0  0.51741  0.04685  0.19377  1.0000
  H   H709      1.0  0.50869  0.03687  0.14723  1.0000
  C   C715      1.0  0.63919  0.15637  0.89831  1.0000
  H   H710      1.0  0.56731  0.08713  0.44157  1.0000
  C   C716      1.0  0.55576  0.03855  0.39612  1.0000
  C   C717      1.0  0.54951  0.04278  0.42714  1.0000
  C   C718      1.0  0.55629  0.05038  0.44529  1.0000
  C   C719      1.0  0.56932  0.05406  0.43186  1.0000
  C   C720      1.0  0.57561  0.05006  0.40026  1.0000
  C   C721      1.0  0.56884  0.04215  0.38277  1.0000
  H   H711      1.0  0.53946  0.04013  0.43756  1.0000
  H   H712      1.0  0.55144  0.05334  0.46993  1.0000
  H   H713      1.0  0.58565  0.05331  0.38855  1.0000
  H   H714      1.0  0.57373  0.03902  0.35846  1.0000
  C   C722      1.0  0.57130  0.17614  0.49242  1.0000
  C   C723      1.0  0.57817  0.17618  0.52048  1.0000
  C   C724      1.0  0.58539  0.18767  0.52205  1.0000
  C   C725      1.0  0.58599  0.19926  0.49527  1.0000
  C   C726      1.0  0.57917  0.19925  0.46709  1.0000
  C   C727      1.0  0.57181  0.18775  0.46587  1.0000
  H   H715      1.0  0.57793  0.16738  0.54107  1.0000
  H   H716      1.0  0.59067  0.18757  0.54386  1.0000
  H   H717      1.0  0.57953  0.20810  0.44633  1.0000
  H   H718      1.0  0.56649  0.18784  0.44415  1.0000
  C   C728      1.0  0.56546  0.14005  0.75331  1.0000
  C   C729      1.0  0.55676  0.12830  0.77026  1.0000
  C   C730      1.0  0.55197  0.12166  0.74538  1.0000
  C   C731      1.0  0.55604  0.12654  0.70338  1.0000
  C   C732      1.0  0.56511  0.13806  0.68648  1.0000
  C   C733      1.0  0.56966  0.14484  0.71131  1.0000
  H   H719      1.0  0.55334  0.12455  0.80253  1.0000
  H   H720      1.0  0.54492  0.11279  0.75878  1.0000
  H   H721      1.0  0.56826  0.14201  0.65432  1.0000
  H   H722      1.0  0.57628  0.15398  0.69787  1.0000
  C   C734      1.0  0.53804  0.08637  0.49383  1.0000
  C   C735      1.0  0.53978  0.07496  0.48560  1.0000
  C   C736      1.0  0.53112  0.06759  0.47147  1.0000
  C   C737      1.0  0.52048  0.07147  0.46543  1.0000
  C   C738      1.0  0.51856  0.08272  0.47460  1.0000
  C   C739      1.0  0.52726  0.09013  0.48860  1.0000
  H   H723      1.0  0.54802  0.07188  0.48957  1.0000
  H   H724      1.0  0.53268  0.05898  0.46475  1.0000
  H   H725      1.0  0.51036  0.08583  0.47027  1.0000
  H   H726      1.0  0.52570  0.09884  0.49474  1.0000
  C   C740      1.0  0.60990  0.13640  0.54685  1.0000
  C   C741      1.0  0.59480  0.20127  0.17031  1.0000
  H   H727      1.0  0.62440  0.12643  0.54326  1.0000
  S   S266      1.0  0.60282  0.04513  0.42827  1.0000
  H   H728      1.0  0.56362  0.09247  0.91261  1.0000
  N   N59       1.0  0.61221  0.14817  0.73182  1.0000
  C   C742      1.0  0.62165  0.15234  0.69675  1.0000
  C   C743      1.0  0.61490  0.14633  0.76794  1.0000
  C   C744      1.0  0.63418  0.15446  0.69730  1.0000
  C   C745      1.0  0.62731  0.14832  0.76958  1.0000
  C   C746      1.0  0.63700  0.15239  0.73400  1.0000
  C   C747      1.0  0.59917  0.14640  0.73065  1.0000
  H   H729      1.0  0.61955  0.15408  0.66805  1.0000
  H   H730      1.0  0.60742  0.14331  0.79579  1.0000
  C   C748      1.0  0.49770  0.06609  0.06136  1.0000
  H   H731      1.0  0.62937  0.14675  0.79833  1.0000
  H   H732      1.0  0.59782  0.14334  0.70397  1.0000
  C   C749      1.0  0.59231  0.99668  0.55167  1.0000
  H   H733      1.0  0.65460  0.14928  0.43902  1.0000
  H   H734      1.0  0.61761  0.02237  0.30810  1.0000
  H   H735      1.0  0.56004  0.06234  0.53581  1.0000
  H   H736      1.0  0.61431  0.03563  0.98550  1.0000
  H   H737      1.0  0.56913  0.08397  0.51403  1.0000
  H   H738      1.0  0.59672  0.17219  0.43188  1.0000
  H   H739      1.0  0.58544  0.06007  0.58619  1.0000
  C   C750      1.0  0.59510  0.09184  0.54417  1.0000
  C   C751      1.0  0.64720  0.09206  0.04949  1.0000
  C   C752      1.0  0.59498  0.07981  0.56622  1.0000
  C   C753      1.0  0.56639  0.05989  0.55438  1.0000
  N   N60       1.0  0.61823  0.19594  0.46671  1.0000
  C   C754      1.0  0.61591  0.18321  0.48415  1.0000
  C   C755      1.0  0.61315  0.20030  0.43653  1.0000
  C   C756      1.0  0.60835  0.17447  0.47135  1.0000
  C   C757      1.0  0.60553  0.19183  0.42308  1.0000
  C   C758      1.0  0.60305  0.17884  0.44086  1.0000
  C   C759      1.0  0.62539  0.20494  0.48259  1.0000
  H   H740      1.0  0.61975  0.17976  0.50858  1.0000
  H   H741      1.0  0.61451  0.21040  0.42396  1.0000
  H   H742      1.0  0.60633  0.16439  0.48564  1.0000
  C   C760      1.0  0.63193  0.03178  0.39319  1.0000
  C   C761      1.0  0.49310  0.02375  0.19349  1.0000
  C   C762      1.0  0.64548  0.02957  0.03075  1.0000
  C   C763      1.0  0.62304  0.03384  0.96889  1.0000
  H   H743      1.0  0.63797  0.21066  0.91575  1.0000
  S   S267      1.0  0.63428  0.07725  0.01103  1.0000
  C   C764      1.0  0.56532  0.20760  0.14878  1.0000
  C   C765      1.0  0.61865  0.14557  0.89723  1.0000
  H   H744      1.0  0.63981  0.06610  0.24895  1.0000
  C   C766      1.0  0.57586  0.04107  0.22021  1.0000
  H   H745      1.0  0.57409  0.19237  0.07864  1.0000
  C   C767      1.0  0.60324  0.23866  0.21557  1.0000
  C   C768      1.0  0.61892  0.01178  0.43751  1.0000
  H   H746      1.0  0.60642  0.00118  0.41266  1.0000
  S   S268      1.0  0.60630  0.03876  0.21606  1.0000
  H   H747      1.0  0.63663  0.14452  0.01479  1.0000
  C   C769      1.0  0.63033  0.06022  0.25955  1.0000
  S   S269      1.0  0.62098  0.24100  0.41502  1.0000
  C   C770      1.0  0.62151  0.13452  0.55031  1.0000
  C   C771      1.0  0.61377  0.00970  0.40664  1.0000
  C   C772      1.0  0.58268  0.99739  0.48606  1.0000
  C   C773      1.0  0.65123  0.04213  0.02682  1.0000
  H   H748      1.0  0.57060  0.05263  0.54361  1.0000
  C   C774      1.0  0.63994  0.13581  0.02338  1.0000
  Fe  Fe138     1.0  0.49600  0.02045  0.09522  1.0000
  H   H749      1.0  0.59004  0.22507  0.26792  1.0000
  H   H750      1.0  0.63006  0.03614  0.33350  1.0000
  C   C775      1.0  0.64912  0.12176  0.43350  1.0000
  C   C776      1.0  0.63007  0.20294  0.93688  1.0000
  H   H751      1.0  0.58031  0.04792  0.19007  1.0000
  S   S270      1.0  0.64292  0.17022  0.95103  1.0000
  N   N61       1.0  0.50118  0.06870  0.09363  1.0000
  H   H752      1.0  0.57890  0.04556  0.24246  1.0000
  N   N62       1.0  0.63290  0.03664  0.98846  1.0000
  H   H753      1.0  0.54294  0.01285  0.45243  1.0000
  H   H754      1.0  0.64180  0.10035  0.67639  1.0000
  C   C777      1.0  0.59779  0.23340  0.25717  1.0000
  H   H755      1.0  0.63382  0.19501  0.95052  1.0000
  H   H756      1.0  0.61095  0.21253  0.92452  1.0000
  C   C778      1.0  0.49247  0.02495  0.26179  1.0000
  H   H757      1.0  0.51368  0.08652  0.05744  1.0000
  H   H758      1.0  0.55741  0.20273  0.10284  1.0000
  H   H759      1.0  0.61048  0.00628  0.33746  1.0000
  C   C779      1.0  0.60360  0.18988  0.87836  1.0000
  H   H760      1.0  0.62992  0.18442  0.90123  1.0000
  C   C780      1.0  0.55861  0.07921  0.38054  1.0000
  H   H761      1.0  0.59133  0.19185  0.11022  1.0000
  H   H762      1.0  0.55767  0.00858  0.49254  1.0000
  C   C781      1.0  0.62784  0.12596  0.98465  1.0000
  H   H763      1.0  0.50839  0.08517  0.10995  1.0000
  H   H764      1.0  0.60254  0.09994  0.54135  1.0000
  C   C782      1.0  0.56257  0.08358  0.93456  1.0000
  C   C783      1.0  0.56836  0.08342  0.96525  1.0000
  C   C784      1.0  0.57632  0.08275  0.52895  1.0000
  H   H765      1.0  0.54001  0.04331  0.99336  1.0000
  H   H766      1.0  0.59734  0.14850  0.55332  1.0000
  C   C785      1.0  0.55473  0.07239  0.93399  1.0000
  S   S271      1.0  0.59726  0.23133  0.18175  1.0000
  H   H767      1.0  0.64353  0.08410  0.07610  1.0000
  S   S272      1.0  0.59318  0.03323  0.13294  1.0000
  C   C786      1.0  0.60610  0.14677  0.55669  1.0000
  H   H768      1.0  0.58561  0.10272  0.50874  1.0000
  Fe  Fe139     1.0  0.60984  0.04138  0.48244  1.0000
  N   N63       1.0  0.55280  0.06134  0.96310  1.0000
  C   C787      1.0  0.56665  0.07203  0.99409  1.0000
  H   H769      1.0  0.57109  0.07174  0.01821  1.0000
  Fe  Fe140     1.0  0.60704  0.03265  0.07799  1.0000
  C   C788      1.0  0.55892  0.06099  0.99215  1.0000
  N   N64       1.0  0.57627  0.07098  0.55065  1.0000
  C   C789      1.0  0.58539  0.06942  0.56938  1.0000
  H   H770      1.0  0.60244  0.07851  0.58000  1.0000
  H   H771      1.0  0.56068  0.05583  0.58607  1.0000
  H   H772      1.0  0.57947  0.03245  0.22137  1.0000
  C   C790      1.0  0.54446  0.04970  0.96250  1.0000
  H   H773      1.0  0.55770  0.05218  0.01436  1.0000
  H   H774      1.0  0.54980  0.04456  0.94443  1.0000
  H   H775      1.0  0.53670  0.05183  0.94988  1.0000
  C   C791      1.0  0.58569  0.09337  0.52554  1.0000
  H   H776      1.0  0.54018  0.02781  0.18385  1.0000
  N   N65       1.0  0.64431  0.13028  0.45046  1.0000
  H   H777      1.0  0.57566  0.21165  0.18999  1.0000
  C   C792      1.0  0.64903  0.10161  0.97988  1.0000
  H   H778      1.0  0.62489  0.10373  0.55065  1.0000
  S   S273      1.0  0.58976  0.23181  0.07917  1.0000
  C   C793      1.0  0.61313  0.15069  0.92705  1.0000
  H   H779      1.0  0.61907  0.20645  0.50897  1.0000
  H   H780      1.0  0.57794  0.09443  0.39219  1.0000
  H   H781      1.0  0.56868  0.10339  0.41702  1.0000
  C   C794      1.0  0.60226  0.23883  0.28509  1.0000
  C   C795      1.0  0.62491  0.05515  0.23268  1.0000
  H   H782      1.0  0.55028  0.15839  0.73750  1.0000
  H   H783      1.0  0.53218  0.13688  0.69535  1.0000
  H   H784      1.0  0.63604  0.14455  0.85966  1.0000
  H   H785      1.0  0.60287  0.20923  0.15133  1.0000
  H   H786      1.0  0.64793  0.02186  0.04939  1.0000
  S   S274      1.0  0.62472  0.08511  0.50698  1.0000
  C   C796      1.0  0.56866  0.09392  0.41205  1.0000
  S   S275      1.0  0.61265  0.24469  0.99627  1.0000
  H   H787      1.0  0.53069  0.07595  0.35856  1.0000
  C   C797      1.0  0.57419  0.19638  0.10367  1.0000
  H   H788      1.0  0.57915  0.99767  0.46015  1.0000
  C   C798      1.0  0.54996  0.00098  0.49367  1.0000
  C   C799      1.0  0.63455  0.10384  0.53816  1.0000
  C   C800      1.0  0.54418  0.03059  0.20650  1.0000
  C   C801      1.0  0.54166  0.00331  0.47083  1.0000
  C   C802      1.0  0.63169  0.14843  0.88282  1.0000
  C   C803      1.0  0.61387  0.15524  0.56982  1.0000
  H   H789      1.0  0.53102  0.09494  0.38349  1.0000
  N   N66       1.0  0.55863  0.08960  0.39479  1.0000
  C   C804      1.0  0.65248  0.13994  0.46138  1.0000
  S   S276      1.0  0.60628  0.01382  0.06127  1.0000
  C   C805      1.0  0.62225  0.18883  0.89945  1.0000
  H   H790      1.0  0.61828  0.09367  0.06445  1.0000
  C   C806      1.0  0.59520  0.00818  0.52158  1.0000
  H   H791      1.0  0.64182  0.11902  0.56183  1.0000
  H   H792      1.0  0.49854  0.06254  0.15688  1.0000
  H   H793      1.0  0.56319  0.03386  0.17161  1.0000
  C   C807      1.0  0.60295  0.20041  0.89289  1.0000
  H   H794      1.0  0.61086  0.16323  0.57752  1.0000
  H   H795      1.0  0.57970  0.01069  0.96880  1.0000
  H   H796      1.0  0.59116  0.02205  0.00745  1.0000
  H   H797      1.0  0.54869  0.10327  0.40822  1.0000
  C   C808      1.0  0.54897  0.09537  0.39532  1.0000
  C   C809      1.0  0.63368  0.16104  0.92933  1.0000
  H   H798      1.0  0.53953  0.14347  0.74776  1.0000
  C   C810      1.0  0.54190  0.15359  0.73024  1.0000
  C   C811      1.0  0.63834  0.04898  0.98503  1.0000
  H   H799      1.0  0.62590  0.03981  0.93736  1.0000
  H   H800      1.0  0.53565  0.03450  0.29976  1.0000
  H   H801      1.0  0.59524  0.20481  0.89139  1.0000
  C   C812      1.0  0.62064  0.15831  0.94339  1.0000
  H   H802      1.0  0.59794  0.23468  0.31691  1.0000
  H   H803      1.0  0.53400  0.15775  0.74031  1.0000
  C   C813      1.0  0.53837  0.14552  0.67407  1.0000
  C   C814      1.0  0.63629  0.02698  0.01121  1.0000
  C   C815      1.0  0.55716  0.03406  0.19972  1.0000
  N   N67       1.0  0.54443  0.15485  0.68713  1.0000
  H   H804      1.0  0.53586  0.13907  0.62304  1.0000
  C   C816      1.0  0.54044  0.14668  0.63307  1.0000
  H   H805      1.0  0.63844  0.14170  0.56462  1.0000
  H   H806      1.0  0.55716  0.17305  0.67045  1.0000
  C   C817      1.0  0.55241  0.16561  0.66013  1.0000
  H   H807      1.0  0.65221  0.08906  0.48287  1.0000
  H   H808      1.0  0.59243  0.20257  0.20093  1.0000
  H   H809      1.0  0.63024  0.05708  0.20176  1.0000
  C   C818      1.0  0.59071  0.01212  0.01060  1.0000
  C   C819      1.0  0.54864  0.15756  0.60533  1.0000
  C   C820      1.0  0.55467  0.16711  0.61885  1.0000
  H   H810      1.0  0.61632  0.16201  0.96715  1.0000
  H   H811      1.0  0.56105  0.17561  0.59741  1.0000
  C   C821      1.0  0.58392  0.19607  0.12180  1.0000
  H   H812      1.0  0.55033  0.15856  0.57342  1.0000
  H   H813      1.0  0.52630  0.02808  0.24847  1.0000
  C   C822      1.0  0.62788  0.02299  0.43091  1.0000
  C   C823      1.0  0.57517  0.20711  0.16627  1.0000
  C   C824      1.0  0.64989  0.09556  0.50004  1.0000
  C   C825      1.0  0.64411  0.09117  0.01417  1.0000
  S   S277      1.0  0.63548  0.16445  0.58694  1.0000
  S   S278      1.0  0.60624  0.02148  0.52335  1.0000
  C   C826      1.0  0.61672  0.10391  0.00761  1.0000
  H   H814      1.0  0.59219  0.01729  0.46584  1.0000
  C   C827      1.0  0.61340  0.18413  0.88117  1.0000
  C   C828      1.0  0.62940  0.14311  0.56267  1.0000
  C   C829      1.0  0.62559  0.15349  0.57238  1.0000
  C   C830      1.0  0.53639  0.03076  0.24269  1.0000
  N   N68       1.0  0.61779  0.01838  0.36972  1.0000
  H   H815      1.0  0.59764  0.19222  0.17247  1.0000
  H   H816      1.0  0.62550  0.20640  0.96198  1.0000
  C   C831      1.0  0.54164  0.03435  0.27156  1.0000
  H   H817      1.0  0.62810  0.13693  0.46926  1.0000
  S   S279      1.0  0.65465  0.14046  0.61792  1.0000
  C   C832      1.0  0.62682  0.02925  0.36269  1.0000
  C   C833      1.0  0.55466  0.03771  0.26386  1.0000
  H   H818      1.0  0.61113  0.09566  0.00297  1.0000
  H   H819      1.0  0.55863  0.04032  0.28678  1.0000
  C   C834      1.0  0.59006  0.00854  0.48924  1.0000
  N   N69       1.0  0.58424  0.20129  0.15292  1.0000
  H   H820      1.0  0.54847  0.06569  0.35702  1.0000
  H   H821      1.0  0.59636  0.18604  0.86575  1.0000
  C   C835      1.0  0.64766  0.05191  0.00380  1.0000
  H   H822      1.0  0.62960  0.21430  0.45991  1.0000
  H   H823      1.0  0.63167  0.01717  0.01514  1.0000
  H   H824      1.0  0.63170  0.11234  0.07362  1.0000
  C   C836      1.0  0.62067  0.10281  0.04232  1.0000
  C   C837      1.0  0.62826  0.11341  0.04732  1.0000
  C   C838      1.0  0.63189  0.13002  0.45666  1.0000
  N   N70       1.0  0.62110  0.19865  0.91581  1.0000
  N   N71       1.0  0.63164  0.12483  0.01878  1.0000
  C   C839      1.0  0.56486  0.20220  0.11725  1.0000
  C   C840      1.0  0.54865  0.07420  0.36690  1.0000
  C   C841      1.0  0.59682  0.00582  0.03582  1.0000
  H   H825      1.0  0.55828  0.21243  0.15897  1.0000
  H   H826      1.0  0.64502  0.10526  0.41200  1.0000
  C   C842      1.0  0.53894  0.09072  0.38139  1.0000
  C   C843      1.0  0.53874  0.07999  0.36750  1.0000
  H   H827      1.0  0.63078  0.13491  0.96175  1.0000
  H   H828      1.0  0.59276  0.13899  0.75755  1.0000
  H   H829      1.0  0.56619  0.07458  0.38055  1.0000
  H   H830      1.0  0.63313  0.20139  0.49182  1.0000
  H   H831      1.0  0.61732  0.11661  0.95130  1.0000
  H   H832      1.0  0.61400  0.17592  0.87003  1.0000
  C   C844      1.0  0.64414  0.11258  0.54443  1.0000
  C   C845      1.0  0.58416  0.00561  0.98869  1.0000
  C   C846      1.0  0.62027  0.11558  0.97858  1.0000
  C   C847      1.0  0.61185  0.01630  0.33838  1.0000
  C   C848      1.0  0.61183  0.20469  0.91170  1.0000
  H   H833      1.0  0.61387  0.12018  0.45449  1.0000
  N   N72       1.0  0.56223  0.03767  0.22807  1.0000
  C   C849      1.0  0.62380  0.12065  0.44787  1.0000
  H   H834      1.0  0.51979  0.07686  0.09206  1.0000
  H   H835      1.0  0.63151  0.02491  0.45527  1.0000
  H   H836      1.0  0.64951  0.13732  0.00381  1.0000
  H   H837      1.0  0.60262  0.01866  0.34432  1.0000
  H   H838      1.0  0.64669  0.15401  0.73484  1.0000
  H   H839      1.0  0.62082  0.02374  0.96869  1.0000
  C   C850      1.0  0.62856  0.11173  0.43153  1.0000
  H   H840      1.0  0.64055  0.13446  0.05467  1.0000
  H   H841      1.0  0.62234  0.10413  0.42584  1.0000
  H   H842      1.0  0.64672  0.10104  0.95238  1.0000
  H   H843      1.0  0.64923  0.15890  0.88607  1.0000
  H   H844      1.0  0.64769  0.10705  0.73329  1.0000
  Fe  Fe141     1.0  0.65392  0.15954  0.58365  1.0000
  H   H845      1.0  0.51641  0.00078  0.46456  1.0000
  C   C851      1.0  0.51124  0.07986  0.08798  1.0000
  H   H846      1.0  0.50209  0.07239  0.03141  1.0000
  H   H847      1.0  0.64794  0.14071  0.49151  1.0000
  C   C852      1.0  0.65465  0.10897  0.70482  1.0000
  H   H848      1.0  0.65186  0.06173  0.00130  1.0000
  S   S280      1.0  0.59263  0.24450  0.41479  1.0000
  C   C853      1.0  0.65135  0.10527  0.67295  1.0000
  H   H849      1.0  0.61568  0.00493  0.46688  1.0000
  H   H850      1.0  0.55798  0.99947  0.01740  1.0000
  S   S281      1.0  0.49386  0.03466  0.40306  1.0000
  S   S282      1.0  0.49022  0.99748  0.47276  1.0000
  H   H851      1.0  0.52835  0.00321  0.41840  1.0000
  C   C854      1.0  0.52329  0.99649  0.44835  1.0000
  C   C855      1.0  0.48853  0.05514  0.06630  1.0000
  H   H852      1.0  0.59626  0.99627  0.57674  1.0000
  Fe  Fe142     1.0  0.60547  0.36260  0.51981  1.0000
  S   S283      1.0  0.59917  0.35202  0.47879  1.0000
  S   S284      1.0  0.62498  0.37497  0.50119  1.0000
  Fe  Fe143     1.0  0.58145  0.35051  0.58650  1.0000
  S   S285      1.0  0.57304  0.33853  0.55103  1.0000
  S   S286      1.0  0.57228  0.35282  0.64699  1.0000
  Fe  Fe144     1.0  0.59234  0.33505  0.53248  1.0000
  S   S287      1.0  0.60069  0.31814  0.52878  1.0000
  Fe  Fe145     1.0  0.58062  0.35651  0.49976  1.0000
  S   S288      1.0  0.57296  0.36586  0.45007  1.0000
  S   S289      1.0  0.59989  0.34557  0.57255  1.0000
  S   S290      1.0  0.58771  0.36857  0.53642  1.0000
  S   S291      1.0  0.56814  0.46039  0.47784  1.0000
  Fe  Fe146     1.0  0.52122  0.40021  0.42151  1.0000
  S   S292      1.0  0.53073  0.40654  0.35502  1.0000
  S   S293      1.0  0.52144  0.38197  0.46457  1.0000
  Fe  Fe147     1.0  0.51495  0.42577  0.42290  1.0000
  S   S294      1.0  0.52431  0.43396  0.35717  1.0000
  S   S295      1.0  0.50949  0.44004  0.45539  1.0000
  Fe  Fe148     1.0  0.51467  0.41546  0.35052  1.0000
  S   S296      1.0  0.50533  0.41915  0.30076  1.0000
  Fe  Fe149     1.0  0.53929  0.42442  0.36761  1.0000
  S   S297      1.0  0.55947  0.43495  0.34249  1.0000
  S   S298      1.0  0.50419  0.40771  0.41623  1.0000
  S   S299      1.0  0.53088  0.41759  0.43396  1.0000
  S   S300      1.0  0.56392  0.46343  0.17142  1.0000
  Fe  Fe150     1.0  0.51939  0.40879  0.09089  1.0000
  S   S301      1.0  0.51959  0.40138  0.03686  1.0000
  S   S302      1.0  0.51657  0.39606  0.15290  1.0000
  Fe  Fe151     1.0  0.53041  0.43590  0.04045  1.0000
  S   S303      1.0  0.53229  0.43087  0.98246  1.0000
  S   S304      1.0  0.53463  0.45589  0.04465  1.0000
  Fe  Fe152     1.0  0.51281  0.41855  0.01265  1.0000
  H   H853      1.0  0.54005  0.38445  0.11719  1.0000
  Fe  Fe153     1.0  0.53888  0.41422  0.01086  1.0000
  S   S305      1.0  0.55648  0.40859  0.98359  1.0000
  S   S306      1.0  0.51061  0.42454  0.06948  1.0000
  S   S307      1.0  0.53902  0.42075  0.06604  1.0000
  Fe  Fe154     1.0  0.59031  0.34193  0.84819  1.0000
  S   S308      1.0  0.57651  0.33303  0.90900  1.0000
  S   S309      1.0  0.59087  0.33263  0.79792  1.0000
  Fe  Fe155     1.0  0.60459  0.36238  0.87623  1.0000
  S   S310      1.0  0.59195  0.35530  0.93912  1.0000
  S   S311      1.0  0.62167  0.37880  0.85258  1.0000
  Fe  Fe156     1.0  0.59322  0.33590  0.93301  1.0000
  S   S312      1.0  0.59864  0.32261  0.98055  1.0000
  Fe  Fe157     1.0  0.57647  0.35319  0.90959  1.0000
  S   S313      1.0  0.55795  0.35805  0.93058  1.0000
  S   S314      1.0  0.60702  0.34329  0.87220  1.0000
  S   S315      1.0  0.58903  0.36178  0.84662  1.0000
  Fe  Fe158     1.0  0.61226  0.25268  0.37403  1.0000
  C   C856      1.0  0.63145  0.42384  0.96817  1.0000
  S   S316      1.0  0.61085  0.25760  0.07287  1.0000
  H   H854      1.0  0.52495  0.44744  0.21399  1.0000
  C   C857      1.0  0.56054  0.48898  0.05505  1.0000
  S   S317      1.0  0.58721  0.26307  0.00574  1.0000
  H   H855      1.0  0.49197  0.46865  0.91606  1.0000
  C   C858      1.0  0.54687  0.38693  0.54284  1.0000
  Fe  Fe159     1.0  0.59720  0.26034  0.44310  1.0000
  S   S318      1.0  0.61612  0.26937  0.39953  1.0000
  S   S319      1.0  0.58364  0.27205  0.46043  1.0000
  H   H856      1.0  0.50762  0.45744  0.89173  1.0000
  C   C859      1.0  0.56160  0.36976  0.03827  1.0000
  S   S320      1.0  0.58817  0.49435  0.11432  1.0000
  H   H857      1.0  0.55817  0.35233  0.02154  1.0000
  C   C860      1.0  0.50102  0.46059  0.99957  1.0000
  H   H858      1.0  0.60181  0.30389  0.34289  1.0000
  C   C861      1.0  0.60933  0.26780  0.56158  1.0000
  H   H859      1.0  0.56196  0.38705  0.05529  1.0000
  H   H860      1.0  0.63051  0.28515  0.46645  1.0000
  H   H861      1.0  0.57922  0.47167  0.32548  1.0000
  H   H862      1.0  0.54160  0.41831  0.15854  1.0000
  S   S321      1.0  0.59133  0.48685  0.49898  1.0000
  C   C862      1.0  0.55403  0.35869  0.03623  1.0000
  C   C863      1.0  0.54224  0.42165  0.18454  1.0000
  C   C864      1.0  0.59480  0.30601  0.98866  1.0000
  C   C865      1.0  0.60013  0.29860  0.01414  1.0000
  C   C866      1.0  0.59774  0.28541  0.02005  1.0000
  C   C867      1.0  0.58987  0.27950  0.00088  1.0000
  C   C868      1.0  0.58439  0.28689  0.97587  1.0000
  C   C869      1.0  0.58692  0.30012  0.96947  1.0000
  H   H863      1.0  0.60620  0.30309  0.02919  1.0000
  H   H864      1.0  0.60198  0.27985  0.03947  1.0000
  H   H865      1.0  0.57829  0.28238  0.96094  1.0000
  H   H866      1.0  0.58276  0.30574  0.94982  1.0000
  C   C870      1.0  0.62803  0.38310  0.88967  1.0000
  C   C871      1.0  0.63781  0.39403  0.87914  1.0000
  C   C872      1.0  0.63807  0.39046  0.94867  1.0000
  C   C873      1.0  0.62845  0.37944  0.95905  1.0000
  C   C874      1.0  0.62352  0.37571  0.92955  1.0000
  H   H867      1.0  0.64140  0.39974  0.84824  1.0000
  H   H868      1.0  0.62477  0.37377  0.98997  1.0000
  H   H869      1.0  0.61623  0.36710  0.93781  1.0000
  C   C875      1.0  0.55661  0.39503  0.96577  1.0000
  C   C876      1.0  0.56817  0.39252  0.95034  1.0000
  C   C877      1.0  0.56871  0.38139  0.93847  1.0000
  C   C878      1.0  0.55767  0.37266  0.94186  1.0000
  C   C879      1.0  0.54611  0.37529  0.95652  1.0000
  C   C880      1.0  0.54557  0.38640  0.96856  1.0000
  H   H870      1.0  0.57675  0.39916  0.94800  1.0000
  H   H871      1.0  0.57767  0.37951  0.92719  1.0000
  H   H872      1.0  0.53752  0.36860  0.95917  1.0000
  H   H873      1.0  0.53662  0.38824  0.98025  1.0000
  C   C881      1.0  0.65044  0.46739  0.98682  1.0000
  C   C882      1.0  0.54202  0.45689  0.08236  1.0000
  C   C883      1.0  0.55207  0.45142  0.08442  1.0000
  C   C884      1.0  0.55871  0.45327  0.11229  1.0000
  C   C885      1.0  0.55505  0.46026  0.13888  1.0000
  C   C886      1.0  0.54471  0.46534  0.13780  1.0000
  C   C887      1.0  0.53828  0.46378  0.10920  1.0000
  H   H874      1.0  0.55507  0.44621  0.06340  1.0000
  H   H875      1.0  0.56670  0.44933  0.11309  1.0000
  H   H876      1.0  0.54196  0.47090  0.15795  1.0000
  H   H877      1.0  0.53055  0.46807  0.10746  1.0000
  H   H878      1.0  0.60213  0.29341  0.38917  1.0000
  C   C888      1.0  0.55783  0.32842  0.82472  1.0000
  S   S322      1.0  0.60425  0.24881  0.48902  1.0000
  H   H879      1.0  0.63750  0.48200  0.22193  1.0000
  C   C889      1.0  0.50884  0.41276  0.25976  1.0000
  C   C890      1.0  0.50610  0.41818  0.22423  1.0000
  C   C891      1.0  0.50868  0.41329  0.19101  1.0000
  C   C892      1.0  0.51367  0.40270  0.19357  1.0000
  C   C893      1.0  0.51635  0.39724  0.22920  1.0000
  C   C894      1.0  0.51413  0.40237  0.26201  1.0000
  H   H880      1.0  0.57687  0.46071  0.23619  1.0000
  N   N73       1.0  0.64051  0.49137  0.12237  1.0000
  H   H881      1.0  0.52016  0.38901  0.23144  1.0000
  H   H882      1.0  0.51620  0.39808  0.28936  1.0000
  C   C895      1.0  0.56616  0.45457  0.43737  1.0000
  C   C896      1.0  0.57642  0.45325  0.40952  1.0000
  C   C897      1.0  0.57450  0.44763  0.37911  1.0000
  C   C898      1.0  0.56237  0.44371  0.37598  1.0000
  C   C899      1.0  0.55230  0.44584  0.40218  1.0000
  C   C900      1.0  0.55414  0.45098  0.43335  1.0000
  H   H883      1.0  0.58575  0.45607  0.41242  1.0000
  H   H884      1.0  0.58234  0.44600  0.35895  1.0000
  H   H885      1.0  0.54297  0.44336  0.39902  1.0000
  H   H886      1.0  0.54621  0.45218  0.45437  1.0000
  C   C901      1.0  0.59623  0.30672  0.50398  1.0000
  C   C902      1.0  0.60486  0.30001  0.49052  1.0000
  C   C903      1.0  0.60119  0.28957  0.47615  1.0000
  C   C904      1.0  0.58881  0.28571  0.47533  1.0000
  C   C905      1.0  0.58028  0.29269  0.48744  1.0000
  C   C906      1.0  0.58396  0.30318  0.50167  1.0000
  H   H887      1.0  0.61435  0.30265  0.49232  1.0000
  H   H888      1.0  0.60786  0.28429  0.46684  1.0000
  H   H889      1.0  0.57068  0.28979  0.48676  1.0000
  H   H890      1.0  0.57721  0.30821  0.51222  1.0000
  C   C907      1.0  0.57917  0.34840  0.68587  1.0000
  C   C908      1.0  0.57834  0.35463  0.71614  1.0000
  C   C909      1.0  0.58235  0.35021  0.75009  1.0000
  C   C910      1.0  0.58701  0.33940  0.75413  1.0000
  C   C911      1.0  0.58821  0.33343  0.72327  1.0000
  C   C912      1.0  0.58441  0.33799  0.68906  1.0000
  H   H891      1.0  0.57430  0.36271  0.71372  1.0000
  H   H892      1.0  0.58148  0.35491  0.77360  1.0000
  H   H893      1.0  0.59184  0.32508  0.72621  1.0000
  H   H894      1.0  0.58501  0.33309  0.66600  1.0000
  C   C913      1.0  0.55833  0.36970  0.45457  1.0000
  C   C914      1.0  0.55705  0.37905  0.42315  1.0000
  C   C915      1.0  0.54585  0.38295  0.42609  1.0000
  C   C916      1.0  0.53564  0.37721  0.45995  1.0000
  C   C917      1.0  0.53679  0.36761  0.49100  1.0000
  C   C918      1.0  0.54816  0.36400  0.48866  1.0000
  H   H895      1.0  0.56485  0.38347  0.39663  1.0000
  H   H896      1.0  0.54508  0.39030  0.40193  1.0000
  H   H897      1.0  0.52889  0.36305  0.51715  1.0000
  H   H898      1.0  0.54901  0.35671  0.51288  1.0000
  C   C919      1.0  0.62828  0.38172  0.53866  1.0000
  C   C920      1.0  0.61865  0.38194  0.57070  1.0000
  C   C921      1.0  0.62148  0.38768  0.59989  1.0000
  C   C922      1.0  0.64356  0.39230  0.56625  1.0000
  C   C923      1.0  0.64073  0.38690  0.53647  1.0000
  H   H899      1.0  0.60902  0.37790  0.57258  1.0000
  H   H900      1.0  0.53711  0.38536  0.54033  1.0000
  C   C924      1.0  0.65092  0.33768  0.49551  1.0000
  N   N74       1.0  0.61091  0.28690  0.58249  1.0000
  N   N75       1.0  0.53708  0.43536  0.22548  1.0000
  N   N76       1.0  0.54336  0.37564  0.07012  1.0000
  H   H901      1.0  0.56154  0.32492  0.84941  1.0000
  N   N77       1.0  0.55310  0.33888  0.82263  1.0000
  C   C925      1.0  0.64085  0.47372  0.48064  1.0000
  C   C926      1.0  0.49436  0.44238  0.47033  1.0000
  H   H902      1.0  0.61326  0.30112  0.61323  1.0000
  C   C927      1.0  0.61774  0.25487  0.23014  1.0000
  C   C928      1.0  0.62115  0.35479  0.75648  1.0000
  C   C929      1.0  0.58042  0.47891  0.29801  1.0000
  C   C930      1.0  0.64479  0.45754  0.54653  1.0000
  C   C931      1.0  0.65326  0.46029  0.50869  1.0000
  C   C932      1.0  0.63466  0.46318  0.55165  1.0000
  H   H903      1.0  0.54495  0.34974  0.85890  1.0000
  S   S323      1.0  0.65311  0.30850  0.54130  1.0000
  H   H904      1.0  0.63273  0.27849  0.03090  1.0000
  Fe  Fe160     1.0  0.59842  0.25131  0.03623  1.0000
  N   N78       1.0  0.62200  0.37703  0.74116  1.0000
  H   H905      1.0  0.64820  0.38665  0.51188  1.0000
  Fe  Fe161     1.0  0.62454  0.24973  0.03569  1.0000
  H   H906      1.0  0.63209  0.46085  0.20979  1.0000
  H   H907      1.0  0.62169  0.30590  0.56070  1.0000
  H   H908      1.0  0.64175  0.42054  0.55388  1.0000
  H   H909      1.0  0.61031  0.47143  0.28072  1.0000
  C   C933      1.0  0.62970  0.34100  0.50731  1.0000
  N   N79       1.0  0.57847  0.47564  0.26471  1.0000
  H   H910      1.0  0.64208  0.43829  0.89441  1.0000
  H   H911      1.0  0.63282  0.39005  0.76353  1.0000
  H   H912      1.0  0.64624  0.45142  0.57218  1.0000
  C   C934      1.0  0.57758  0.26466  0.34062  1.0000
  C   C935      1.0  0.59679  0.26719  0.56333  1.0000
  H   H913      1.0  0.65035  0.40614  0.90021  1.0000
  H   H914      1.0  0.59357  0.26176  0.30112  1.0000
  H   H915      1.0  0.57100  0.25684  0.33728  1.0000
  H   H916      1.0  0.52755  0.38238  0.09420  1.0000
  H   H917      1.0  0.60976  0.29421  0.93406  1.0000
  H   H918      1.0  0.50651  0.41752  0.16380  1.0000
  S   S324      1.0  0.61925  0.48396  0.33443  1.0000
  N   N80       1.0  0.63085  0.43059  0.52335  1.0000
  C   C936      1.0  0.62139  0.42842  0.55751  1.0000
  C   C937      1.0  0.63114  0.43903  0.48860  1.0000
  C   C938      1.0  0.61210  0.43512  0.55774  1.0000
  C   C939      1.0  0.62196  0.44582  0.48770  1.0000
  C   C940      1.0  0.61245  0.44392  0.52260  1.0000
  C   C941      1.0  0.64682  0.35499  0.51998  1.0000
  H   H919      1.0  0.62710  0.29589  0.59676  1.0000
  H   H920      1.0  0.63865  0.44076  0.46155  1.0000
  S   S325      1.0  0.61823  0.25707  0.30537  1.0000
  H   H921      1.0  0.58613  0.49420  0.32299  1.0000
  H   H922      1.0  0.61346  0.27291  0.94001  1.0000
  H   H923      1.0  0.64089  0.30149  0.02093  1.0000
  H   H924      1.0  0.65296  0.28933  0.91271  1.0000
  H   H925      1.0  0.56040  0.47191  0.99126  1.0000
  H   H926      1.0  0.62379  0.33600  0.53832  1.0000
  C   C942      1.0  0.63747  0.47978  0.11545  1.0000
  C   C943      1.0  0.55307  0.34546  0.85390  1.0000
  H   H927      1.0  0.57164  0.37203  0.02521  1.0000
  H   H928      1.0  0.61509  0.38442  0.69231  1.0000
  H   H929      1.0  0.60855  0.47965  0.21215  1.0000
  S   S326      1.0  0.59061  0.47159  0.07036  1.0000
  C   C944      1.0  0.61862  0.29797  0.58872  1.0000
  Fe  Fe162     1.0  0.58329  0.47320  0.13226  1.0000
  S   S327      1.0  0.60476  0.47044  0.44439  1.0000
  H   H930      1.0  0.60547  0.44940  0.52250  1.0000
  H   H931      1.0  0.54169  0.39435  0.06771  1.0000
  N   N81       1.0  0.62896  0.30349  0.92218  1.0000
  H   H932      1.0  0.64946  0.44816  0.92066  1.0000
  C   C945      1.0  0.61924  0.29317  0.92972  1.0000
  H   H933      1.0  0.51904  0.44784  0.93749  1.0000
  H   H934      1.0  0.61752  0.25365  0.17041  1.0000
  C   C946      1.0  0.50605  0.45853  0.92180  1.0000
  C   C947      1.0  0.62640  0.31582  0.92295  1.0000
  H   H935      1.0  0.62346  0.40657  0.01630  1.0000
  C   C948      1.0  0.61111  0.48618  0.22876  1.0000
  S   S328      1.0  0.64509  0.25944  0.00797  1.0000
  C   C949      1.0  0.65030  0.27594  0.99965  1.0000
  C   C950      1.0  0.61325  0.24946  0.20223  1.0000
  H   H936      1.0  0.48961  0.42964  0.90946  1.0000
  H   H937      1.0  0.62742  0.36707  0.79029  1.0000
  H   H938      1.0  0.62477  0.31676  0.95402  1.0000
  C   C951      1.0  0.54319  0.43015  0.25142  1.0000
  C   C952      1.0  0.54879  0.42038  0.24491  1.0000
  C   C953      1.0  0.54822  0.41607  0.21136  1.0000
  H   H939      1.0  0.54368  0.43347  0.27753  1.0000
  H   H940      1.0  0.55345  0.41616  0.26598  1.0000
  H   H941      1.0  0.55234  0.40836  0.20626  1.0000
  C   C954      1.0  0.64093  0.29561  0.49800  1.0000
  H   H942      1.0  0.63582  0.47593  0.01055  1.0000
  H   H943      1.0  0.61787  0.31684  0.91327  1.0000
  C   C955      1.0  0.61554  0.42190  0.02850  1.0000
  C   C956      1.0  0.62386  0.36648  0.76478  1.0000
  Fe  Fe163     1.0  0.62304  0.25698  0.44412  1.0000
  C   C957      1.0  0.64039  0.44405  0.91586  1.0000
  N   N82       1.0  0.55898  0.48643  0.02046  1.0000
  C   C958      1.0  0.57447  0.46225  0.26646  1.0000
  C   C959      1.0  0.53113  0.44543  0.23354  1.0000
  S   S329      1.0  0.64387  0.39503  0.98635  1.0000
  H   H944      1.0  0.57421  0.48510  0.97607  1.0000
  C   C960      1.0  0.64287  0.39768  0.90858  1.0000
  C   C961      1.0  0.65019  0.29607  0.51851  1.0000
  C   C962      1.0  0.64703  0.29607  0.00901  1.0000
  C   C963      1.0  0.63395  0.39293  0.59756  1.0000
  H   H945      1.0  0.61397  0.38820  0.62377  1.0000
  H   H946      1.0  0.50195  0.42618  0.22231  1.0000
  H   H947      1.0  0.53842  0.45423  0.22841  1.0000
  H   H948      1.0  0.60939  0.41633  0.05768  1.0000
  H   H949      1.0  0.61430  0.34489  0.71732  1.0000
  C   C964      1.0  0.63769  0.28541  0.48197  1.0000
  H   H950      1.0  0.53511  0.34773  0.04896  1.0000
  C   C965      1.0  0.62132  0.28110  0.93258  1.0000
  C   C966      1.0  0.53672  0.43137  0.19204  1.0000
  H   H951      1.0  0.62243  0.34638  0.77558  1.0000
  H   H952      1.0  0.52520  0.44253  0.26504  1.0000
  C   C967      1.0  0.51000  0.45424  0.98656  1.0000
  C   C968      1.0  0.59134  0.27643  0.57525  1.0000
  H   H953      1.0  0.63278  0.43759  0.07499  1.0000
  H   H954      1.0  0.60854  0.27915  0.31047  1.0000
  H   H955      1.0  0.53198  0.43556  0.17118  1.0000
  C   C969      1.0  0.64239  0.28303  0.01470  1.0000
  C   C970      1.0  0.57977  0.48480  0.23034  1.0000
  C   C971      1.0  0.55269  0.40461  0.48208  1.0000
  C   C972      1.0  0.59867  0.27729  0.32579  1.0000
  C   C973      1.0  0.64095  0.30218  0.91641  1.0000
  H   H956      1.0  0.58415  0.39668  0.44406  1.0000
  H   H957      1.0  0.57869  0.41490  0.40266  1.0000
  C   C974      1.0  0.59024  0.26739  0.32040  1.0000
  C   C975      1.0  0.65120  0.46834  0.47573  1.0000
  H   H958      1.0  0.62452  0.45184  0.96697  1.0000
  H   H959      1.0  0.54766  0.39179  0.56643  1.0000
  H   H960      1.0  0.49898  0.46111  0.03027  1.0000
  H   H961      1.0  0.50136  0.46058  0.47884  1.0000
  C   C976      1.0  0.49715  0.46481  0.93578  1.0000
  C   C977      1.0  0.57548  0.39923  0.45488  1.0000
  C   C978      1.0  0.57237  0.40932  0.43158  1.0000
  N   N83       1.0  0.59456  0.28431  0.35054  1.0000
  C   C979      1.0  0.60341  0.29459  0.35656  1.0000
  H   H962      1.0  0.61329  0.29465  0.34322  1.0000
  C   C980      1.0  0.56095  0.41210  0.44537  1.0000
  H   H963      1.0  0.55843  0.41988  0.42745  1.0000
  C   C981      1.0  0.58211  0.28191  0.36968  1.0000
  C   C982      1.0  0.57345  0.27197  0.36542  1.0000
  S   S330      1.0  0.62017  0.47865  0.52701  1.0000
  C   C983      1.0  0.63264  0.47129  0.51878  1.0000
  H   H964      1.0  0.62835  0.46125  0.58125  1.0000
  C   C984      1.0  0.56704  0.39201  0.49167  1.0000
  H   H965      1.0  0.56940  0.38397  0.50901  1.0000
  H   H966      1.0  0.57888  0.28740  0.38963  1.0000
  N   N84       1.0  0.55571  0.39460  0.50442  1.0000
  H   H967      1.0  0.54374  0.40670  0.49231  1.0000
  H   H968      1.0  0.54864  0.37740  0.55205  1.0000
  C   C985      1.0  0.63352  0.27969  0.92643  1.0000
  C   C986      1.0  0.63940  0.46755  0.01429  1.0000
  H   H969      1.0  0.59137  0.25977  0.55448  1.0000
  C   C987      1.0  0.54918  0.34374  0.79015  1.0000
  C   C988      1.0  0.64042  0.42343  0.52348  1.0000
  H   H970      1.0  0.56259  0.31434  0.79541  1.0000
  N   N85       1.0  0.64284  0.34474  0.50697  1.0000
  S   S331      1.0  0.61876  0.45608  0.08061  1.0000
  S   S332      1.0  0.60074  0.47155  0.14983  1.0000
  H   H971      1.0  0.56179  0.35311  0.84528  1.0000
  C   C989      1.0  0.58423  0.49165  0.29692  1.0000
  H   H972      1.0  0.55241  0.33888  0.88321  1.0000
  H   H973      1.0  0.63759  0.41950  0.95061  1.0000
  Fe  Fe164     1.0  0.60881  0.47174  0.08579  1.0000
  H   H974      1.0  0.65319  0.39586  0.56508  1.0000
  C   C990      1.0  0.49311  0.45368  0.47994  1.0000
  S   S333      1.0  0.50019  0.41947  0.97130  1.0000
  H   H975      1.0  0.61651  0.38998  0.77260  1.0000
  C   C991      1.0  0.63765  0.48126  0.19195  1.0000
  C   C992      1.0  0.61578  0.43465  0.01423  1.0000
  N   N86       1.0  0.49477  0.46583  0.97411  1.0000
  S   S334      1.0  0.63736  0.40064  0.63309  1.0000
  C   C993      1.0  0.63297  0.45679  0.04615  1.0000
  C   C994      1.0  0.55102  0.49154  0.00184  1.0000
  C   C995      1.0  0.62343  0.41644  0.00540  1.0000
  C   C996      1.0  0.61427  0.36464  0.70068  1.0000
  C   C997      1.0  0.56637  0.47878  0.00174  1.0000
  C   C998      1.0  0.53789  0.38460  0.08822  1.0000
  C   C999      1.0  0.51247  0.45317  0.94748  1.0000
  H   H976      1.0  0.55529  0.32294  0.73643  1.0000
  H   H977      1.0  0.64844  0.26487  0.13326  1.0000
  C   C1000     1.0  0.55607  0.37820  0.05529  1.0000
  C   C1001     1.0  0.61696  0.37615  0.71014  1.0000
  C   C1002     1.0  0.55842  0.32236  0.79425  1.0000
  C   C1003     1.0  0.63768  0.44595  0.05037  1.0000
  Fe  Fe165     1.0  0.60642  0.49267  0.12671  1.0000
  C   C1004     1.0  0.55436  0.32719  0.76117  1.0000
  H   H978      1.0  0.54702  0.34206  0.73255  1.0000
  C   C1005     1.0  0.54107  0.35615  0.05140  1.0000
  C   C1006     1.0  0.64855  0.44572  0.02257  1.0000
  H   H979      1.0  0.54588  0.35231  0.78773  1.0000
  H   H980      1.0  0.62827  0.33462  0.48800  1.0000
  H   H981      1.0  0.50448  0.45445  0.37213  1.0000
  H   H982      1.0  0.52577  0.36279  0.07988  1.0000
  C   C1007     1.0  0.54970  0.33795  0.75902  1.0000
  H   H983      1.0  0.62107  0.42156  0.58488  1.0000
  H   H984      1.0  0.63614  0.30313  0.49480  1.0000
  C   C1008     1.0  0.53586  0.36476  0.06853  1.0000
  C   C1009     1.0  0.59860  0.28632  0.58461  1.0000
  H   H985      1.0  0.61377  0.26082  0.55155  1.0000
  C   C1010     1.0  0.61626  0.27773  0.57160  1.0000
  C   C1011     1.0  0.62477  0.38919  0.75047  1.0000
  C   C1012     1.0  0.64379  0.27560  0.48596  1.0000
  H   H986      1.0  0.56418  0.45878  0.27980  1.0000
  S   S335      1.0  0.64000  0.26242  0.46694  1.0000
  H   H987      1.0  0.60475  0.43359  0.58502  1.0000
  C   C1013     1.0  0.61651  0.35394  0.72385  1.0000
  H   H988      1.0  0.61034  0.36400  0.67588  1.0000
  H   H989      1.0  0.57800  0.48219  0.20422  1.0000
  H   H990      1.0  0.58174  0.27630  0.57531  1.0000
  H   H991      1.0  0.62241  0.45276  0.46036  1.0000
  H   H992      1.0  0.63427  0.32374  0.90262  1.0000
  C   C1014     1.0  0.64048  0.49221  0.16010  1.0000
  Fe  Fe166     1.0  0.61060  0.48391  0.47844  1.0000
  H   H993      1.0  0.60994  0.43909  0.03244  1.0000
  Fe  Fe167     1.0  0.58621  0.47494  0.45962  1.0000
  H   H994      1.0  0.62546  0.26323  0.21943  1.0000
  C   C1015     1.0  0.61206  0.48153  0.26771  1.0000
  H   H995      1.0  0.62604  0.27821  0.56965  1.0000
  S   S336      1.0  0.61586  0.49297  0.06344  1.0000
  H   H996      1.0  0.57040  0.47321  0.02321  1.0000
  C   C1016     1.0  0.63444  0.46864  0.14672  1.0000
  H   H997      1.0  0.64867  0.31026  0.91150  1.0000
  N   N87       1.0  0.63160  0.43633  0.95430  1.0000
  H   H998      1.0  0.63941  0.47999  0.45509  1.0000
  C   C1017     1.0  0.62404  0.44181  0.97706  1.0000
  H   H999      1.0  0.62634  0.34945  0.49579  1.0000
  H   H1000     1.0  0.59447  0.29382  0.59185  1.0000
  H   H1001     1.0  0.62736  0.39727  0.72298  1.0000
  H   H1002     1.0  0.49893  0.43402  0.35643  1.0000
  H   H1003     1.0  0.64908  0.47485  0.62491  1.0000
  H   H1004     1.0  0.64034  0.36038  0.53005  1.0000
  C   C1018     1.0  0.61230  0.24960  0.27173  1.0000
  Fe  Fe168     1.0  0.60957  0.48769  0.39188  1.0000
  H   H1005     1.0  0.63729  0.47903  0.08574  1.0000
  H   H1006     1.0  0.56366  0.26983  0.38186  1.0000
  C   C1019     1.0  0.63455  0.46941  0.18518  1.0000
  H   H1007     1.0  0.57914  0.45641  0.28499  1.0000
  S   S337      1.0  0.59042  0.49115  0.40492  1.0000
  H   H1008     1.0  0.51482  0.44995  0.00691  1.0000
  H   H1009     1.0  0.63193  0.45948  0.14107  1.0000
  C   C1020     1.0  0.64891  0.26867  0.10123  1.0000
  H   H1010     1.0  0.63530  0.27036  0.92919  1.0000
  C   C1021     1.0  0.49482  0.45024  0.37425  1.0000
  Fe  Fe169     1.0  0.59687  0.49287  0.05317  1.0000
  C   C1022     1.0  0.64344  0.29033  0.91747  1.0000
  H   H1011     1.0  0.64964  0.42929  0.50307  1.0000
  H   H1012     1.0  0.63764  0.41476  0.51396  1.0000
  H   H1013     1.0  0.65209  0.35651  0.00052  1.0000
  C   C1023     1.0  0.61566  0.48990  0.28944  1.0000
  H   H1014     1.0  0.64771  0.32930  0.48644  1.0000
  H   H1015     1.0  0.54994  0.48964  0.97412  1.0000
  H   H1016     1.0  0.64540  0.27739  0.09746  1.0000
  H   H1017     1.0  0.56711  0.48524  0.06918  1.0000
  C   C1024     1.0  0.65322  0.27620  0.50577  1.0000
  C   C1025     1.0  0.48849  0.42805  0.97161  1.0000
  H   H1018     1.0  0.64244  0.26168  0.09256  1.0000
  H   H1019     1.0  0.63676  0.45194  0.90164  1.0000
  H   H1020     1.0  0.65199  0.43727  0.02606  1.0000
  C   C1026     1.0  0.49162  0.43857  0.36613  1.0000
  H   H1021     1.0  0.60521  0.49343  0.57373  1.0000
  H   H1022     1.0  0.65353  0.37629  0.89387  1.0000
  S   S338      1.0  0.49907  0.49564  0.87930  1.0000
  C   C1027     1.0  0.65503  0.45645  0.99074  1.0000
  H   H1023     1.0  0.65492  0.48529  0.55161  1.0000
  Fe  Fe170     1.0  0.52769  0.56321  0.55326  1.0000
  S   S339      1.0  0.51348  0.56001  0.61161  1.0000
  S   S340      1.0  0.52426  0.57395  0.49630  1.0000
  Fe  Fe171     1.0  0.54122  0.54424  0.58972  1.0000
  S   S341      1.0  0.52776  0.53965  0.65124  1.0000
  S   S342      1.0  0.55447  0.53121  0.58742  1.0000
  Fe  Fe172     1.0  0.51286  0.53957  0.61966  1.0000
  H   H1024     1.0  0.58514  0.50486  0.20031  1.0000
  Fe  Fe173     1.0  0.52958  0.56053  0.63890  1.0000
  S   S343      1.0  0.52693  0.56978  0.68967  1.0000
  S   S344      1.0  0.52597  0.54240  0.55940  1.0000
  S   S345      1.0  0.54422  0.56549  0.57919  1.0000
  C   C1028     1.0  0.59617  0.50820  0.58480  1.0000
  C   C1029     1.0  0.52130  0.63123  0.39105  1.0000
  H   H1025     1.0  0.52915  0.54312  0.80535  1.0000
  C   C1030     1.0  0.55197  0.59694  0.82116  1.0000
  N   N88       1.0  0.48873  0.56763  0.01044  1.0000
  H   H1026     1.0  0.57224  0.61162  0.89702  1.0000
  C   C1031     1.0  0.50056  0.56421  0.01130  1.0000
  H   H1027     1.0  0.50980  0.55056  0.76020  1.0000
  S   S346      1.0  0.59194  0.52181  0.44171  1.0000
  H   H1028     1.0  0.56141  0.59809  0.93504  1.0000
  C   C1032     1.0  0.50611  0.60259  0.95928  1.0000
  N   N89       1.0  0.55797  0.60163  0.87783  1.0000
  H   H1029     1.0  0.52323  0.61334  0.38033  1.0000
  C   C1033     1.0  0.54802  0.60685  0.88624  1.0000
  H   H1030     1.0  0.51375  0.65897  0.39268  1.0000
  H   H1031     1.0  0.51509  0.64728  0.43383  1.0000
  H   H1032     1.0  0.57317  0.59569  0.89667  1.0000
  C   C1034     1.0  0.50882  0.54047  0.76446  1.0000
  H   H1033     1.0  0.59055  0.50275  0.61481  1.0000
  H   H1034     1.0  0.53165  0.61094  0.87008  1.0000
  H   H1035     1.0  0.52504  0.62969  0.41676  1.0000
  H   H1036     1.0  0.53525  0.60200  0.81150  1.0000
  Fe  Fe174     1.0  0.54637  0.56311  0.88626  1.0000
  S   S347      1.0  0.55541  0.56894  0.93190  1.0000
  S   S348      1.0  0.55686  0.56718  0.82092  1.0000
  Fe  Fe175     1.0  0.52191  0.54971  0.94794  1.0000
  S   S349      1.0  0.52873  0.55405  0.99857  1.0000
  H   H1037     1.0  0.57818  0.50560  0.52197  1.0000
  Fe  Fe176     1.0  0.53717  0.57348  0.95676  1.0000
  S   S350      1.0  0.53574  0.58990  0.98343  1.0000
  Fe  Fe177     1.0  0.54629  0.54899  0.97038  1.0000
  S   S351      1.0  0.55448  0.53817  0.01588  1.0000
  S   S352      1.0  0.52910  0.56956  0.90764  1.0000
  S   S353      1.0  0.53860  0.54282  0.92295  1.0000
  C   C1035     1.0  0.49925  0.50759  0.90346  1.0000
  C   C1036     1.0  0.56666  0.60179  0.90271  1.0000
  C   C1037     1.0  0.53967  0.60703  0.86269  1.0000
  C   C1038     1.0  0.48992  0.52891  0.53377  1.0000
  C   C1039     1.0  0.50972  0.50862  0.55408  1.0000
  N   N90       1.0  0.51299  0.53365  0.79343  1.0000
  C   C1040     1.0  0.48960  0.51380  0.90674  1.0000
  C   C1041     1.0  0.56002  0.59671  0.84572  1.0000
  S   S354      1.0  0.49442  0.52509  0.64456  1.0000
  H   H1038     1.0  0.54638  0.61072  0.91175  1.0000
  C   C1042     1.0  0.56623  0.52986  0.00742  1.0000
  C   C1043     1.0  0.57165  0.52608  0.03845  1.0000
  C   C1044     1.0  0.58010  0.51838  0.03506  1.0000
  C   C1045     1.0  0.58316  0.51427  0.00069  1.0000
  C   C1046     1.0  0.57803  0.51833  0.96908  1.0000
  C   C1047     1.0  0.56958  0.52611  0.97238  1.0000
  H   H1039     1.0  0.56915  0.52899  0.06555  1.0000
  C   C1048     1.0  0.61754  0.50761  0.23279  1.0000
  H   H1040     1.0  0.58041  0.51527  0.94223  1.0000
  H   H1041     1.0  0.56545  0.52895  0.94831  1.0000
  H   H1042     1.0  0.60827  0.54707  0.51910  1.0000
  C   C1049     1.0  0.48942  0.56781  0.53746  1.0000
  C   C1050     1.0  0.64360  0.50305  0.08965  1.0000
  H   H1043     1.0  0.50079  0.53995  0.56215  1.0000
  C   C1051     1.0  0.50925  0.51108  0.91884  1.0000
  C   C1052     1.0  0.50970  0.52094  0.93709  1.0000
  H   H1044     1.0  0.50382  0.50238  0.63152  1.0000
  C   C1053     1.0  0.60090  0.54010  0.51389  1.0000
  H   H1045     1.0  0.51517  0.54822  0.82305  1.0000
  H   H1046     1.0  0.51722  0.52335  0.95007  1.0000
  C   C1054     1.0  0.50032  0.52750  0.93910  1.0000
  C   C1055     1.0  0.50951  0.60852  0.01796  1.0000
  C   C1056     1.0  0.51949  0.60261  0.01607  1.0000
  C   C1057     1.0  0.52266  0.59649  0.98627  1.0000
  C   C1058     1.0  0.51580  0.59631  0.95825  1.0000
  H   H1047     1.0  0.49781  0.51689  0.72587  1.0000
  H   H1048     1.0  0.50715  0.61321  0.04107  1.0000
  H   H1049     1.0  0.52479  0.60283  0.03776  1.0000
  H   H1050     1.0  0.51814  0.59160  0.93523  1.0000
  H   H1051     1.0  0.62120  0.50948  0.28844  1.0000
  S   S355      1.0  0.61457  0.50545  0.16029  1.0000
  C   C1059     1.0  0.61417  0.49925  0.21077  1.0000
  C   C1060     1.0  0.50292  0.60870  0.98918  1.0000
  C   C1061     1.0  0.50333  0.53457  0.73967  1.0000
  H   H1052     1.0  0.51436  0.61659  0.32188  1.0000
  C   C1062     1.0  0.53081  0.51196  0.55653  1.0000
  H   H1053     1.0  0.50948  0.65240  0.33784  1.0000
  N   N91       1.0  0.60190  0.52719  0.53023  1.0000
  H   H1054     1.0  0.50099  0.60265  0.93703  1.0000
  S   S356      1.0  0.50166  0.54075  0.95768  1.0000
  C   C1063     1.0  0.54168  0.60202  0.82994  1.0000
  Fe  Fe178     1.0  0.59705  0.50298  0.44313  1.0000
  H   H1055     1.0  0.49883  0.55388  0.02531  1.0000
  C   C1064     1.0  0.59514  0.52045  0.56858  1.0000
  C   C1065     1.0  0.53520  0.56837  0.72627  1.0000
  C   C1066     1.0  0.53054  0.57157  0.76167  1.0000
  C   C1067     1.0  0.53685  0.57074  0.79151  1.0000
  C   C1068     1.0  0.54814  0.56712  0.78558  1.0000
  C   C1069     1.0  0.55285  0.56397  0.75010  1.0000
  C   C1070     1.0  0.54629  0.56438  0.72079  1.0000
  H   H1056     1.0  0.52198  0.57471  0.76603  1.0000
  H   H1057     1.0  0.53313  0.57320  0.81863  1.0000
  H   H1058     1.0  0.56161  0.56121  0.74523  1.0000
  H   H1059     1.0  0.55000  0.56195  0.69353  1.0000
  C   C1071     1.0  0.56333  0.52810  0.54461  1.0000
  C   C1072     1.0  0.56743  0.53694  0.50684  1.0000
  C   C1073     1.0  0.57575  0.53464  0.47487  1.0000
  C   C1074     1.0  0.57985  0.52341  0.48021  1.0000
  C   C1075     1.0  0.57515  0.51428  0.51739  1.0000
  C   C1076     1.0  0.56707  0.51669  0.54950  1.0000
  H   H1060     1.0  0.56464  0.54579  0.50269  1.0000
  H   H1061     1.0  0.57932  0.54177  0.44620  1.0000
  S   S357      1.0  0.49067  0.61642  0.98946  1.0000
  C   C1077     1.0  0.54437  0.49945  0.01787  1.0000
  C   C1078     1.0  0.51806  0.58737  0.49477  1.0000
  C   C1079     1.0  0.51161  0.59074  0.46626  1.0000
  C   C1080     1.0  0.50639  0.60126  0.46464  1.0000
  C   C1081     1.0  0.50807  0.60880  0.49039  1.0000
  C   C1082     1.0  0.51465  0.60551  0.51854  1.0000
  C   C1083     1.0  0.51944  0.59471  0.52125  1.0000
  H   H1062     1.0  0.51049  0.58507  0.44578  1.0000
  C   C1084     1.0  0.51226  0.52106  0.79752  1.0000
  H   H1063     1.0  0.51604  0.61134  0.53846  1.0000
  H   H1064     1.0  0.52446  0.59223  0.54315  1.0000
  S   S358      1.0  0.59283  0.50356  0.99729  1.0000
  C   C1085     1.0  0.51887  0.53993  0.81895  1.0000
  N   N92       1.0  0.51741  0.64200  0.37942  1.0000
  H   H1065     1.0  0.58416  0.51557  0.05923  1.0000
  C   C1086     1.0  0.60438  0.50298  0.56185  1.0000
  C   C1087     1.0  0.60999  0.52215  0.50757  1.0000
  H   H1066     1.0  0.56780  0.59242  0.83906  1.0000
  N   N93       1.0  0.51829  0.50851  0.57569  1.0000
  C   C1088     1.0  0.50658  0.51479  0.77391  1.0000
  H   H1067     1.0  0.50760  0.63635  0.30064  1.0000
  H   H1068     1.0  0.64462  0.50112  0.05995  1.0000
  C   C1089     1.0  0.51262  0.64390  0.34719  1.0000
  H   H1069     1.0  0.50126  0.60363  0.44305  1.0000
  H   H1070     1.0  0.61519  0.52740  0.47692  1.0000
  H   H1071     1.0  0.55365  0.59301  0.79579  1.0000
  C   C1090     1.0  0.52029  0.62194  0.37057  1.0000
  H   H1072     1.0  0.61994  0.51773  0.21908  1.0000
  H   H1073     1.0  0.58866  0.52442  0.58645  1.0000
  C   C1091     1.0  0.51151  0.63482  0.32596  1.0000
  H   H1074     1.0  0.56391  0.50977  0.57857  1.0000
  H   H1075     1.0  0.51689  0.53341  0.84941  1.0000
  H   H1076     1.0  0.59157  0.54137  0.52796  1.0000
  C   C1092     1.0  0.61140  0.51002  0.52311  1.0000
  H   H1077     1.0  0.49022  0.59806  0.57990  1.0000
  H   H1078     1.0  0.52894  0.65647  0.39409  1.0000
  C   C1093     1.0  0.51889  0.65169  0.40092  1.0000
  C   C1094     1.0  0.51532  0.62375  0.33788  1.0000
  H   H1079     1.0  0.61774  0.50597  0.50505  1.0000
  H   H1080     1.0  0.51663  0.50615  0.91682  1.0000
  H   H1081     1.0  0.51601  0.51579  0.81944  1.0000
  H   H1082     1.0  0.49416  0.57763  0.57936  1.0000
  H   H1083     1.0  0.53837  0.50382  0.00243  1.0000
  H   H1084     1.0  0.60189  0.54213  0.48114  1.0000
  S   S359      1.0  0.61696  0.50109  0.42493  1.0000
  H   H1085     1.0  0.58919  0.51096  0.26007  1.0000
  C   C1095     1.0  0.50209  0.52161  0.74477  1.0000
  H   H1086     1.0  0.53758  0.51175  0.57371  1.0000
  C   C1096     1.0  0.52640  0.51636  0.49238  1.0000
  H   H1087     1.0  0.63607  0.50812  0.09448  1.0000
  H   H1088     1.0  0.49519  0.56125  0.54324  1.0000
  H   H1089     1.0  0.54109  0.50853  0.06520  1.0000
  H   H1090     1.0  0.51796  0.51287  0.63071  1.0000
  H   H1091     1.0  0.49979  0.50573  0.56913  1.0000
  C   C1097     1.0  0.49359  0.53154  0.56666  1.0000
  C   C1098     1.0  0.54583  0.50202  0.05331  1.0000
  C   C1099     1.0  0.58589  0.50105  0.26167  1.0000
  H   H1092     1.0  0.51758  0.49652  0.63197  1.0000
  H   H1093     1.0  0.50666  0.56653  0.98021  1.0000
  H   H1094     1.0  0.50019  0.54005  0.71635  1.0000
  S   S360      1.0  0.50240  0.62256  0.48761  1.0000
  H   H1095     1.0  0.49226  0.68767  0.06527  1.0000
  H   H1096     1.0  0.50574  0.56937  0.02833  1.0000
  C   C1100     1.0  0.49015  0.52380  0.92455  1.0000
  C   C1101     1.0  0.61815  0.50296  0.27219  1.0000
  C   C1102     1.0  0.51418  0.50484  0.61963  1.0000
  C   C1103     1.0  0.48885  0.57717  0.55766  1.0000
  H   H1097     1.0  0.50566  0.50469  0.77839  1.0000
  H   H1098     1.0  0.49449  0.53518  0.50395  1.0000
  H   H1099     1.0  0.49236  0.58280  0.03685  1.0000
  C   C1104     1.0  0.55386  0.49666  0.07229  1.0000
  H   H1100     1.0  0.55532  0.49886  0.09927  1.0000
  C   C1105     1.0  0.53507  0.51596  0.51464  1.0000
  C   C1106     1.0  0.51363  0.51262  0.51216  1.0000
  C   C1107     1.0  0.58360  0.49763  0.22816  1.0000
  H   H1101     1.0  0.50675  0.51290  0.49526  1.0000
  H   H1102     1.0  0.54504  0.51884  0.49965  1.0000
  H   H1103     1.0  0.52957  0.51957  0.45988  1.0000
  H   H1104     1.0  0.64239  0.50141  0.16591  1.0000
  H   H1105     1.0  0.65255  0.50938  0.08854  1.0000
  Fe  Fe179     1.0  0.53057  0.94418  0.58445  1.0000
  S   S361      1.0  0.53105  0.92526  0.62097  1.0000
  S   S362      1.0  0.51335  0.95031  0.57577  1.0000
  Fe  Fe180     1.0  0.55872  0.95409  0.55553  1.0000
  S   S363      1.0  0.56173  0.93567  0.58926  1.0000
  S   S364      1.0  0.57151  0.97192  0.50839  1.0000
  Fe  Fe181     1.0  0.54631  0.92556  0.56784  1.0000
  S   S365      1.0  0.54785  0.90835  0.54311  1.0000
  Fe  Fe182     1.0  0.54617  0.93653  0.64029  1.0000
  S   S366      1.0  0.54321  0.93065  0.70807  1.0000
  S   S367      1.0  0.54473  0.94385  0.53007  1.0000
  S   S368      1.0  0.54421  0.95547  0.60787  1.0000
  C   C1108     1.0  0.50292  0.95305  0.90574  1.0000
  H   H1106     1.0  0.54883  0.88622  0.51399  1.0000
  H   H1107     1.0  0.52600  0.98784  0.06547  1.0000
  H   H1108     1.0  0.50801  0.91911  0.92223  1.0000
  H   H1109     1.0  0.52168  0.90662  0.54743  1.0000
  Fe  Fe183     1.0  0.54003  0.95674  0.93766  1.0000
  S   S369      1.0  0.54683  0.95326  0.99239  1.0000
  S   S370      1.0  0.52178  0.96158  0.93638  1.0000
  Fe  Fe184     1.0  0.56342  0.95402  0.88296  1.0000
  S   S371      1.0  0.57240  0.95024  0.93360  1.0000
  S   S372      1.0  0.57200  0.95558  0.81729  1.0000
  Fe  Fe185     1.0  0.55317  0.93757  0.96946  1.0000
  S   S373      1.0  0.54907  0.91759  0.01094  1.0000
  Fe  Fe186     1.0  0.56535  0.96627  0.95282  1.0000
  S   S374      1.0  0.57466  0.98492  0.96420  1.0000
  S   S375      1.0  0.54513  0.94037  0.91726  1.0000
  S   S376      1.0  0.55773  0.97074  0.89933  1.0000
  H   H1110     1.0  0.57907  0.93448  0.86801  1.0000
  H   H1111     1.0  0.50147  0.81346  0.28303  1.0000
  C   C1109     1.0  0.52843  0.98804  0.03409  1.0000
  C   C1110     1.0  0.51339  0.93748  0.93182  1.0000
  H   H1112     1.0  0.57381  0.92232  0.94001  1.0000
  H   H1113     1.0  0.50832  0.89528  0.40897  1.0000
  C   C1111     1.0  0.58918  0.98627  0.01824  1.0000
  H   H1114     1.0  0.53089  0.93465  0.45767  1.0000
  C   C1112     1.0  0.52495  0.95060  0.81262  1.0000
  C   C1113     1.0  0.50240  0.84543  0.28757  1.0000
  Fe  Fe187     1.0  0.50262  0.85555  0.46366  1.0000
  H   H1115     1.0  0.58865  0.97631  0.02154  1.0000
  H   H1116     1.0  0.51773  0.89443  0.95890  1.0000
  C   C1114     1.0  0.52111  0.82216  0.37738  1.0000
  H   H1117     1.0  0.54894  0.92479  0.45269  1.0000
  C   C1115     1.0  0.51195  0.94987  0.92439  1.0000
  C   C1116     1.0  0.50800  0.84918  0.24594  1.0000
  H   H1118     1.0  0.51685  0.85622  0.23353  1.0000
  C   C1117     1.0  0.51870  0.88120  0.50801  1.0000
  C   C1118     1.0  0.52233  0.89400  0.98253  1.0000
  C   C1119     1.0  0.53073  0.90497  0.98290  1.0000
  C   C1120     1.0  0.53717  0.90446  0.01225  1.0000
  C   C1121     1.0  0.53475  0.89293  0.04186  1.0000
  C   C1122     1.0  0.52619  0.88198  0.04185  1.0000
  C   C1123     1.0  0.54069  0.92061  0.44492  1.0000
  H   H1119     1.0  0.53249  0.91371  0.95979  1.0000
  H   H1120     1.0  0.53969  0.89239  0.06465  1.0000
  S   S377      1.0  0.51075  0.86856  0.00635  1.0000
  H   H1121     1.0  0.51678  0.82685  0.30576  1.0000
  H   H1122     1.0  0.50153  0.95122  0.00723  1.0000
  H   H1123     1.0  0.52250  0.97411  0.49718  1.0000
  H   H1124     1.0  0.52468  0.87312  0.06431  1.0000
  C   C1124     1.0  0.52010  0.88240  0.01171  1.0000
  C   C1125     1.0  0.55152  0.93773  0.73747  1.0000
  C   C1126     1.0  0.54661  0.93373  0.77943  1.0000
  C   C1127     1.0  0.55259  0.93934  0.80412  1.0000
  C   C1128     1.0  0.56377  0.94878  0.78716  1.0000
  C   C1129     1.0  0.56874  0.95272  0.74522  1.0000
  C   C1130     1.0  0.56259  0.94733  0.72042  1.0000
  H   H1125     1.0  0.53802  0.92634  0.79289  1.0000
  H   H1126     1.0  0.54864  0.93617  0.83627  1.0000
  H   H1127     1.0  0.57743  0.95998  0.73178  1.0000
  H   H1128     1.0  0.56649  0.95047  0.68818  1.0000
  C   C1131     1.0  0.57995  0.98584  0.51583  1.0000
  C   C1132     1.0  0.58457  0.98559  0.54915  1.0000
  C   C1133     1.0  0.51084  0.81798  0.32645  1.0000
  H   H1129     1.0  0.55188  0.96961  0.80838  1.0000
  C   C1134     1.0  0.51909  0.94460  0.78880  1.0000
  C   C1135     1.0  0.54827  0.98878  0.51788  1.0000
  H   H1130     1.0  0.58264  0.97675  0.57213  1.0000
  C   C1136     1.0  0.52204  0.98756  0.97417  1.0000
  C   C1137     1.0  0.49778  0.93187  0.89790  1.0000
  C   C1138     1.0  0.58326  0.99261  0.99246  1.0000
  Fe  Fe188     1.0  0.49902  0.85007  0.05330  1.0000
  H   H1131     1.0  0.49644  0.90183  0.00292  1.0000
  H   H1132     1.0  0.51703  0.92704  0.55961  1.0000
  C   C1139     1.0  0.52895  0.90365  0.42625  1.0000
  C   C1140     1.0  0.57273  0.92508  0.87904  1.0000
  C   C1141     1.0  0.53075  0.87941  0.50515  1.0000
  C   C1142     1.0  0.53948  0.88755  0.51700  1.0000
  C   C1143     1.0  0.53629  0.89752  0.53201  1.0000
  C   C1144     1.0  0.52418  0.89904  0.53582  1.0000
  C   C1145     1.0  0.51552  0.89104  0.52355  1.0000
  H   H1133     1.0  0.53343  0.87194  0.49316  1.0000
  H   H1134     1.0  0.48974  0.97964  0.57617  1.0000
  H   H1135     1.0  0.54925  0.97155  0.74155  1.0000
  N   N94       1.0  0.51897  0.90899  0.42991  1.0000
  H   H1136     1.0  0.51479  0.98666  0.95885  1.0000
  H   H1137     1.0  0.54768  0.90490  0.43215  1.0000
  H   H1138     1.0  0.49402  0.78113  0.53917  1.0000
  H   H1139     1.0  0.51843  0.82044  0.41054  1.0000
  C   C1146     1.0  0.53025  0.98172  0.49569  1.0000
  C   C1147     1.0  0.50368  0.92181  0.52810  1.0000
  Fe  Fe189     1.0  0.50231  0.84696  0.38669  1.0000
  S   S378      1.0  0.50345  0.83223  0.08538  1.0000
  C   C1148     1.0  0.53053  0.92608  0.44800  1.0000
  C   C1149     1.0  0.50659  0.94108  0.54882  1.0000
  H   H1140     1.0  0.53767  0.97452  0.82535  1.0000
  C   C1150     1.0  0.51973  0.92016  0.44001  1.0000
  H   H1141     1.0  0.55460  0.98681  0.53586  1.0000
  S   S379      1.0  0.49888  0.80734  0.49456  1.0000
  C   C1151     1.0  0.53448  0.98930  0.95328  1.0000
  C   C1152     1.0  0.50703  0.90224  0.42650  1.0000
  H   H1142     1.0  0.50633  0.89262  0.52510  1.0000
  C   C1153     1.0  0.50994  0.92982  0.54632  1.0000
  N   N95       1.0  0.53566  0.96012  0.79570  1.0000
  H   H1143     1.0  0.51977  0.93474  0.94846  1.0000
  H   H1144     1.0  0.52820  0.89456  0.41973  1.0000
  H   H1145     1.0  0.50080  0.89695  0.45698  1.0000
  C   C1154     1.0  0.50218  0.81045  0.31345  1.0000
  Fe  Fe190     1.0  0.49740  0.82712  0.46582  1.0000
  H   H1146     1.0  0.52105  0.94742  0.84477  1.0000
  C   C1155     1.0  0.49749  0.94464  0.53111  1.0000
  H   H1147     1.0  0.50522  0.80003  0.42088  1.0000
  H   H1148     1.0  0.51179  0.92434  0.44304  1.0000
  C   C1156     1.0  0.54154  0.96633  0.82136  1.0000
  C   C1157     1.0  0.55048  0.99072  0.03376  1.0000
  C   C1158     1.0  0.50652  0.92855  0.91776  1.0000
  H   H1149     1.0  0.50577  0.91285  0.52774  1.0000
  H   H1150     1.0  0.53982  0.95967  0.85142  1.0000
  C   C1159     1.0  0.53998  0.90943  0.43338  1.0000
  H   H1151     1.0  0.51075  0.93684  0.80259  1.0000
  C   C1160     1.0  0.50431  0.80309  0.39076  1.0000
  N   N96       1.0  0.54062  0.98974  0.01334  1.0000
  N   N97       1.0  0.55615  0.90121  0.90738  1.0000
  C   C1161     1.0  0.56159  0.90623  0.93289  1.0000
  C   C1162     1.0  0.55897  0.90780  0.86785  1.0000
  C   C1163     1.0  0.56984  0.91827  0.91924  1.0000
  C   C1164     1.0  0.56738  0.91977  0.85304  1.0000
  C   C1165     1.0  0.54749  0.88858  0.92190  1.0000
  H   H1152     1.0  0.55941  0.90105  0.96425  1.0000
  H   H1153     1.0  0.55472  0.90382  0.84750  1.0000
  H   H1154     1.0  0.53865  0.88890  0.91357  1.0000
  H   H1155     1.0  0.55183  0.88177  0.90885  1.0000
  H   H1156     1.0  0.54489  0.88490  0.95515  1.0000
  C   C1166     1.0  0.54371  0.99040  0.97341  1.0000
  C   C1167     1.0  0.53840  0.97907  0.51882  1.0000
  H   H1157     1.0  0.56966  0.92499  0.82166  1.0000
  H   H1158     1.0  0.53707  0.96954  0.53731  1.0000
  H   H1159     1.0  0.49511  0.95351  0.53198  1.0000
  H   H1160     1.0  0.53931  0.96113  0.69803  1.0000
  S   S380      1.0  0.50747  0.87231  0.49004  1.0000
  H   H1161     1.0  0.54699  0.99137  0.06478  1.0000
  H   H1162     1.0  0.50174  0.96261  0.90009  1.0000
  H   H1163     1.0  0.53693  0.98959  0.92180  1.0000
  H   H1164     1.0  0.50788  0.89117  0.62646  1.0000
  N   N98       1.0  0.51171  0.81432  0.36482  1.0000
  C   C1168     1.0  0.53503  0.95837  0.73016  1.0000
  H   H1165     1.0  0.53030  0.81998  0.36787  1.0000
  C   C1169     1.0  0.52423  0.94848  0.74730  1.0000
  H   H1166     1.0  0.49337  0.96433  0.04916  1.0000
  S   S381      1.0  0.51363  0.84412  0.43132  1.0000
  C   C1170     1.0  0.54065  0.96414  0.75497  1.0000
  H   H1167     1.0  0.51804  0.98782  0.44332  1.0000
  H   H1168     1.0  0.49400  0.97641  0.94321  1.0000
  C   C1171     1.0  0.51898  0.98697  0.01480  1.0000
  S   S382      1.0  0.51040  0.85166  0.31919  1.0000
  H   H1169     1.0  0.50287  0.91033  0.64296  1.0000
  H   H1170     1.0  0.52010  0.94359  0.72849  1.0000
  H   H1171     1.0  0.55455  0.98238  0.03492  1.0000
  C   C1172     1.0  0.49147  0.93671  0.51205  1.0000
  H   H1172     1.0  0.52208  0.83241  0.36384  1.0000
  H   H1173     1.0  0.49435  0.78502  0.99790  1.0000
  C   C1173     1.0  0.49674  0.90483  0.63021  1.0000
  C   C1174     1.0  0.49574  0.94401  0.89289  1.0000
  H   H1174     1.0  0.60074  0.98787  0.05846  1.0000
  H   H1175     1.0  0.50691  0.84653  0.18832  1.0000
  H   H1176     1.0  0.50937  0.98585  0.03110  1.0000
  C   C1175     1.0  0.50237  0.84372  0.22020  1.0000
  C   C1176     1.0  0.59604  0.99287  0.03924  1.0000
  H   H1177     1.0  0.55336  0.99185  0.95684  1.0000
  N   N99       1.0  0.53205  0.99370  0.47170  1.0000
  H   H1178     1.0  0.50224  0.90894  0.41187  1.0000
  S   S383      1.0  0.49188  0.99379  0.99163  1.0000
  C   C1177     1.0  0.49958  0.89396  0.62116  1.0000
  H   H1179     1.0  0.48902  0.94664  0.87751  1.0000
  C   C1178     1.0  0.49436  0.79915  0.34005  1.0000
  C   C1179     1.0  0.49544  0.79540  0.37896  1.0000
  C   C1180     1.0  0.49429  0.92509  0.51172  1.0000
  S   S384      1.0  0.49092  0.80493  0.03547  1.0000
  H   H1180     1.0  0.49403  0.87856  0.59650  1.0000
  H   H1181     1.0  0.49017  0.80725  0.92966  1.0000
  H   H1182     1.0  0.49165  0.87918  0.04111  1.0000
  S   S385      1.0  0.49254  0.85959  0.41607  1.0000
  H   H1183     1.0  0.49179  0.92632  0.63520  1.0000
  C   C1181     1.0  0.49153  0.95012  0.01778  1.0000
  C   C1182     1.0  0.49182  0.88689  0.60432  1.0000
  S   S386      1.0  0.48964  0.92089  0.87882  1.0000
  C   C1183     1.0  0.49095  0.83631  0.30319  1.0000
  C   C1184     1.0  0.49114  0.83431  0.23600  1.0000
  H   H1184     1.0  0.48946  0.78659  0.39996  1.0000
  N   N100      1.0  0.77277  0.22908  0.37829  1.0000
  S   S387      1.0  0.66681  0.15924  0.52650  1.0000
  C   C1185     1.0  0.78603  0.23563  0.36833  1.0000
  Fe  Fe191     1.0  0.67062  0.15138  0.63435  1.0000
  S   S388      1.0  0.68501  0.15007  0.58076  1.0000
  S   S389      1.0  0.66779  0.14439  0.70180  1.0000
  Fe  Fe192     1.0  0.68214  0.16879  0.54884  1.0000
  S   S390      1.0  0.69610  0.18544  0.49951  1.0000
  Fe  Fe193     1.0  0.66862  0.14072  0.56194  1.0000
  S   S391      1.0  0.66917  0.12402  0.53440  1.0000
  S   S392      1.0  0.66878  0.17055  0.60358  1.0000
  C   C1186     1.0  0.65948  0.10430  0.50636  1.0000
  C   C1187     1.0  0.74422  0.20533  0.12162  1.0000
  Fe  Fe194     1.0  0.68498  0.16384  0.88651  1.0000
  S   S393      1.0  0.69456  0.15967  0.93566  1.0000
  S   S394      1.0  0.69422  0.16715  0.81997  1.0000
  Fe  Fe195     1.0  0.66200  0.16640  0.94331  1.0000
  S   S395      1.0  0.66952  0.16250  0.99647  1.0000
  C   C1188     1.0  0.74782  0.21619  0.39598  1.0000
  Fe  Fe196     1.0  0.68784  0.17560  0.95635  1.0000
  S   S396      1.0  0.69717  0.19331  0.97264  1.0000
  Fe  Fe197     1.0  0.67546  0.14690  0.97244  1.0000
  S   S397      1.0  0.67049  0.12747  0.01799  1.0000
  S   S398      1.0  0.67958  0.18052  0.90453  1.0000
  S   S399      1.0  0.66667  0.15001  0.92186  1.0000
  C   C1189     1.0  0.72678  0.18359  0.87755  1.0000
  H   H1185     1.0  0.77075  0.22214  0.44099  1.0000
  Fe  Fe198     1.0  0.74724  0.23954  0.04782  1.0000
  H   H1186     1.0  0.74226  0.21597  0.18149  1.0000
  S   S400      1.0  0.74214  0.22076  0.03122  1.0000
  C   C1190     1.0  0.66022  0.11367  0.01581  1.0000
  C   C1191     1.0  0.70476  0.21028  0.86473  1.0000
  H   H1187     1.0  0.67950  0.11697  0.60307  1.0000
  H   H1188     1.0  0.72157  0.20958  0.90588  1.0000
  N   N101      1.0  0.73331  0.20926  0.14086  1.0000
  C   C1192     1.0  0.75377  0.21579  0.42633  1.0000
  H   H1189     1.0  0.69444  0.12809  0.62715  1.0000
  S   S401      1.0  0.74100  0.22876  0.50326  1.0000
  H   H1190     1.0  0.70051  0.21024  0.83954  1.0000
  H   H1191     1.0  0.68838  0.13423  0.66774  1.0000
  H   H1192     1.0  0.69709  0.20764  0.89308  1.0000
  C   C1193     1.0  0.76632  0.22234  0.41695  1.0000
  C   C1194     1.0  0.76703  0.22944  0.34830  1.0000
  H   H1193     1.0  0.72454  0.22368  0.21269  1.0000
  H   H1194     1.0  0.73804  0.21126  0.40308  1.0000
  H   H1195     1.0  0.71734  0.17517  0.83996  1.0000
  H   H1196     1.0  0.74992  0.22356  0.33283  1.0000
  H   H1197     1.0  0.73209  0.17652  0.88196  1.0000
  H   H1198     1.0  0.74198  0.19950  0.10141  1.0000
  C   C1195     1.0  0.73387  0.21466  0.17146  1.0000
  H   H1199     1.0  0.73421  0.19394  0.91496  1.0000
  H   H1200     1.0  0.70485  0.19093  0.83187  1.0000
  H   H1201     1.0  0.77213  0.23485  0.31770  1.0000
  H   H1202     1.0  0.75175  0.21386  0.10299  1.0000
  C   C1196     1.0  0.72382  0.21901  0.18936  1.0000
  C   C1197     1.0  0.71146  0.19180  0.84949  1.0000
  H   H1203     1.0  0.66915  0.10440  0.49396  1.0000
  H   H1204     1.0  0.74864  0.21063  0.45713  1.0000
  C   C1198     1.0  0.71319  0.21788  0.17555  1.0000
  C   C1199     1.0  0.72800  0.19336  0.89591  1.0000
  H   H1205     1.0  0.78900  0.23646  0.39551  1.0000
  C   C1200     1.0  0.72087  0.20223  0.89052  1.0000
  H   H1206     1.0  0.70549  0.22154  0.18845  1.0000
  C   C1201     1.0  0.70954  0.20049  0.99043  1.0000
  C   C1202     1.0  0.71010  0.21272  0.99548  1.0000
  C   C1203     1.0  0.71991  0.21905  0.00801  1.0000
  C   C1204     1.0  0.72944  0.21329  0.01532  1.0000
  C   C1205     1.0  0.72887  0.20105  0.01034  1.0000
  C   C1206     1.0  0.71901  0.19468  0.99812  1.0000
  H   H1207     1.0  0.70289  0.21738  0.98958  1.0000
  H   H1208     1.0  0.72014  0.22843  0.01163  1.0000
  H   H1209     1.0  0.73614  0.19643  0.01594  1.0000
  H   H1210     1.0  0.71876  0.18529  0.99453  1.0000
  H   H1211     1.0  0.78779  0.24546  0.34897  1.0000
  C   C1207     1.0  0.71852  0.18283  0.85399  1.0000
  H   H1212     1.0  0.66144  0.13747  0.46329  1.0000
  H   H1213     1.0  0.74775  0.19966  0.14444  1.0000
  C   C1208     1.0  0.75447  0.22306  0.35667  1.0000
  H   H1214     1.0  0.72257  0.20413  0.10215  1.0000
  H   H1215     1.0  0.66067  0.12075  0.95405  1.0000
  N   N102      1.0  0.71270  0.20135  0.86766  1.0000
  S   S402      1.0  0.76494  0.24428  0.06700  1.0000
  C   C1209     1.0  0.72292  0.20811  0.12710  1.0000
  H   H1216     1.0  0.71029  0.22009  0.85985  1.0000
  S   S403      1.0  0.73554  0.24338  0.10142  1.0000
  H   H1217     1.0  0.79192  0.23048  0.35210  1.0000
  C   C1210     1.0  0.71271  0.21239  0.14421  1.0000
  H   H1218     1.0  0.66947  0.11843  0.72433  1.0000
  S   S404      1.0  0.75056  0.24157  0.18562  1.0000
  H   H1219     1.0  0.70463  0.21171  0.13253  1.0000
  C   C1211     1.0  0.70786  0.19785  0.50267  1.0000
  C   C1212     1.0  0.71235  0.19705  0.53639  1.0000
  C   C1213     1.0  0.72234  0.20672  0.53631  1.0000
  C   C1214     1.0  0.72782  0.21737  0.50287  1.0000
  C   C1215     1.0  0.72310  0.21836  0.46959  1.0000
  C   C1216     1.0  0.71326  0.20858  0.46937  1.0000
  H   H1220     1.0  0.70834  0.18884  0.56214  1.0000
  H   H1221     1.0  0.72594  0.20585  0.56220  1.0000
  H   H1222     1.0  0.72718  0.22650  0.44368  1.0000
  H   H1223     1.0  0.70983  0.20929  0.44318  1.0000
  C   C1217     1.0  0.67492  0.15157  0.73360  1.0000
  C   C1218     1.0  0.68606  0.16111  0.71878  1.0000
  C   C1219     1.0  0.69180  0.16586  0.74556  1.0000
  C   C1220     1.0  0.68636  0.16131  0.78730  1.0000
  C   C1221     1.0  0.67506  0.15198  0.80199  1.0000
  C   C1222     1.0  0.66945  0.14706  0.77530  1.0000
  H   H1224     1.0  0.69041  0.16465  0.68681  1.0000
  H   H1225     1.0  0.70055  0.17307  0.73385  1.0000
  H   H1226     1.0  0.67078  0.14834  0.83396  1.0000
  C   C1223     1.0  0.68854  0.12534  0.65871  1.0000
  C   C1224     1.0  0.66700  0.11541  0.69957  1.0000
  H   H1227     1.0  0.66085  0.13965  0.78715  1.0000
  N   N103      1.0  0.67575  0.11834  0.66332  1.0000
  H   H1228     1.0  0.72255  0.24427  0.48565  1.0000
  H   H1229     1.0  0.69300  0.11948  0.67791  1.0000
  C   C1225     1.0  0.67262  0.11466  0.63197  1.0000
  H   H1230     1.0  0.65895  0.12190  0.42867  1.0000
  C   C1226     1.0  0.66040  0.10802  0.63639  1.0000
  C   C1227     1.0  0.65692  0.11284  0.98077  1.0000
  H   H1231     1.0  0.74079  0.24027  0.26860  1.0000
  H   H1232     1.0  0.65784  0.10373  0.07735  1.0000
  H   H1233     1.0  0.71111  0.24180  0.55606  1.0000
  H   H1234     1.0  0.65794  0.10520  0.61136  1.0000
  H   H1235     1.0  0.65824  0.04430  0.04227  1.0000
  C   C1228     1.0  0.65669  0.11295  0.52825  1.0000
  C   C1229     1.0  0.65532  0.10321  0.05012  1.0000
  C   C1230     1.0  0.75023  0.24621  0.25855  1.0000
  C   C1231     1.0  0.81385  0.42407  0.12019  1.0000
  S   S405      1.0  0.66848  0.41996  0.54814  1.0000
  H   H1236     1.0  0.79871  0.40269  0.12174  1.0000
  Fe  Fe199     1.0  0.67394  0.43348  0.63519  1.0000
  S   S406      1.0  0.68730  0.44084  0.57301  1.0000
  S   S407      1.0  0.67426  0.44331  0.68388  1.0000
  Fe  Fe200     1.0  0.66983  0.43983  0.55217  1.0000
  S   S408      1.0  0.66682  0.45439  0.50178  1.0000
  Fe  Fe201     1.0  0.68463  0.42017  0.57509  1.0000
  S   S409      1.0  0.69833  0.40897  0.55365  1.0000
  Fe  Fe202     1.0  0.77344  0.27103  0.44496  1.0000
  S   S410      1.0  0.67236  0.41290  0.63902  1.0000
  Fe  Fe203     1.0  0.68429  0.42412  0.89266  1.0000
  S   S411      1.0  0.69328  0.43578  0.92738  1.0000
  S   S412      1.0  0.69373  0.42194  0.83255  1.0000
  Fe  Fe204     1.0  0.66161  0.41047  0.96372  1.0000
  S   S413      1.0  0.66859  0.42063  0.00496  1.0000
  C   C1232     1.0  0.76929  0.25673  0.20554  1.0000
  Fe  Fe205     1.0  0.67370  0.43785  0.95214  1.0000
  H   H1237     1.0  0.65768  0.47052  0.44628  1.0000
  Fe  Fe206     1.0  0.68739  0.41770  0.97741  1.0000
  S   S414      1.0  0.69846  0.40713  0.01255  1.0000
  S   S415      1.0  0.66539  0.42775  0.91260  1.0000
  S   S416      1.0  0.67972  0.40596  0.94091  1.0000
  H   H1238     1.0  0.66883  0.34481  0.99563  1.0000
  Fe  Fe207     1.0  0.76196  0.41376  0.06046  1.0000
  S   S417      1.0  0.75089  0.39553  0.10671  1.0000
  S   S418      1.0  0.75239  0.42798  0.03170  1.0000
  Fe  Fe208     1.0  0.78705  0.40684  0.05649  1.0000
  S   S419      1.0  0.77733  0.38798  0.10150  1.0000
  S   S420      1.0  0.80792  0.40813  0.03401  1.0000
  Fe  Fe209     1.0  0.76284  0.38659  0.06767  1.0000
  S   S421      1.0  0.75690  0.36895  0.04753  1.0000
  Fe  Fe210     1.0  0.76646  0.39877  0.13628  1.0000
  S   S422      1.0  0.76316  0.39299  0.20443  1.0000
  S   S423      1.0  0.77329  0.40464  0.02019  1.0000
  S   S424      1.0  0.77679  0.41778  0.09279  1.0000
  Fe  Fe211     1.0  0.68517  0.32732  0.94414  1.0000
  S   S425      1.0  0.69041  0.34800  0.91078  1.0000
  S   S426      1.0  0.66517  0.31845  0.98151  1.0000
  Fe  Fe212     1.0  0.71136  0.32467  0.91431  1.0000
  S   S427      1.0  0.71868  0.34504  0.87795  1.0000
  C   C1233     1.0  0.67088  0.38893  0.85478  1.0000
  Fe  Fe213     1.0  0.70774  0.34914  0.93239  1.0000
  S   S428      1.0  0.71428  0.36561  0.95688  1.0000
  Fe  Fe214     1.0  0.70084  0.34199  0.85952  1.0000
  S   S429      1.0  0.70070  0.35017  0.79521  1.0000
  S   S430      1.0  0.70152  0.32893  0.97020  1.0000
  S   S431      1.0  0.69444  0.32127  0.89151  1.0000
  H   H1239     1.0  0.80465  0.34142  0.51007  1.0000
  Fe  Fe215     1.0  0.77104  0.39125  0.46608  1.0000
  S   S432      1.0  0.79071  0.39749  0.42537  1.0000
  S   S433      1.0  0.76135  0.37043  0.49393  1.0000
  Fe  Fe216     1.0  0.76933  0.41797  0.46227  1.0000
  S   S434      1.0  0.78890  0.42647  0.42119  1.0000
  S   S435      1.0  0.75721  0.43063  0.48217  1.0000
  Fe  Fe217     1.0  0.78366  0.41214  0.38807  1.0000
  S   S436      1.0  0.78850  0.41884  0.31948  1.0000
  Fe  Fe218     1.0  0.79452  0.41128  0.46175  1.0000
  S   S437      1.0  0.67354  0.30033  0.61910  1.0000
  S   S438      1.0  0.76378  0.40491  0.42635  1.0000
  S   S439      1.0  0.77519  0.40378  0.50508  1.0000
  Fe  Fe219     1.0  0.69360  0.30693  0.58199  1.0000
  H   H1240     1.0  0.68984  0.27425  0.54714  1.0000
  Fe  Fe220     1.0  0.69260  0.33417  0.55685  1.0000
  S   S440      1.0  0.67238  0.32980  0.59137  1.0000
  S   S441      1.0  0.70245  0.35458  0.52402  1.0000
  Fe  Fe221     1.0  0.67795  0.31773  0.64051  1.0000
  S   S442      1.0  0.67104  0.31679  0.70636  1.0000
  Fe  Fe222     1.0  0.66977  0.31286  0.56664  1.0000
  C   C1234     1.0  0.79195  0.37418  0.51987  1.0000
  S   S443      1.0  0.69832  0.32324  0.60757  1.0000
  S   S444      1.0  0.68964  0.31838  0.52789  1.0000
  C   C1235     1.0  0.74502  0.36608  0.50090  1.0000
  C   C1236     1.0  0.73855  0.35324  0.51597  1.0000
  C   C1237     1.0  0.72550  0.34958  0.52263  1.0000
  C   C1238     1.0  0.71887  0.35876  0.51409  1.0000
  C   C1239     1.0  0.72535  0.37157  0.49893  1.0000
  C   C1240     1.0  0.73837  0.37522  0.49251  1.0000
  H   H1241     1.0  0.74362  0.34612  0.52260  1.0000
  H   H1242     1.0  0.72058  0.33968  0.53431  1.0000
  H   H1243     1.0  0.72027  0.37871  0.49259  1.0000
  H   H1244     1.0  0.74320  0.38512  0.48147  1.0000
  H   H1245     1.0  0.69990  0.36759  0.03785  1.0000
  H   H1246     1.0  0.81046  0.34714  0.99533  1.0000
  C   C1241     1.0  0.71408  0.29169  0.53719  1.0000
  C   C1242     1.0  0.71640  0.30088  0.99206  1.0000
  C   C1243     1.0  0.70943  0.24848  0.53181  1.0000
  C   C1244     1.0  0.80536  0.29793  0.94716  1.0000
  H   H1247     1.0  0.69025  0.46699  0.51198  1.0000
  C   C1245     1.0  0.75707  0.24907  0.21804  1.0000
  H   H1248     1.0  0.80719  0.42605  0.10236  1.0000
  H   H1249     1.0  0.69344  0.37972  0.05359  1.0000
  C   C1246     1.0  0.72384  0.28353  0.02518  1.0000
  C   C1247     1.0  0.80996  0.41299  0.19140  1.0000
  H   H1250     1.0  0.78715  0.35937  0.49272  1.0000
  H   H1251     1.0  0.66957  0.31392  0.78933  1.0000
  C   C1248     1.0  0.68200  0.28557  0.04266  1.0000
  C   C1249     1.0  0.69287  0.34047  0.77064  1.0000
  C   C1250     1.0  0.69575  0.34412  0.72854  1.0000
  C   C1251     1.0  0.68939  0.33677  0.70835  1.0000
  C   C1252     1.0  0.67987  0.32587  0.73019  1.0000
  C   C1253     1.0  0.67692  0.32232  0.77226  1.0000
  C   C1254     1.0  0.68346  0.32949  0.79239  1.0000
  H   H1252     1.0  0.70299  0.35261  0.71149  1.0000
  H   H1253     1.0  0.69167  0.33961  0.67602  1.0000
  C   C1255     1.0  0.81966  0.43375  0.01668  1.0000
  H   H1254     1.0  0.68109  0.32661  0.82475  1.0000
  H   H1255     1.0  0.71160  0.29298  0.05616  1.0000
  C   C1256     1.0  0.80691  0.31402  0.46132  1.0000
  C   C1257     1.0  0.81231  0.37716  0.53152  1.0000
  H   H1256     1.0  0.71121  0.30797  0.99391  1.0000
  H   H1257     1.0  0.67572  0.38547  0.03067  1.0000
  C   C1258     1.0  0.76978  0.40074  0.23612  1.0000
  C   C1259     1.0  0.77788  0.41288  0.22169  1.0000
  C   C1260     1.0  0.78342  0.41832  0.24769  1.0000
  C   C1261     1.0  0.78096  0.41170  0.28832  1.0000
  C   C1262     1.0  0.77265  0.39970  0.30294  1.0000
  C   C1263     1.0  0.76712  0.39426  0.27696  1.0000
  H   H1258     1.0  0.77994  0.41802  0.19045  1.0000
  H   H1259     1.0  0.78972  0.42768  0.23615  1.0000
  H   H1260     1.0  0.77060  0.39451  0.33415  1.0000
  H   H1261     1.0  0.76084  0.38488  0.28848  1.0000
  C   C1264     1.0  0.74484  0.36782  0.02326  1.0000
  C   C1265     1.0  0.73762  0.37667  0.02129  1.0000
  C   C1266     1.0  0.72819  0.37571  0.00154  1.0000
  C   C1267     1.0  0.72588  0.36594  0.98323  1.0000
  C   C1268     1.0  0.73301  0.35697  0.98550  1.0000
  C   C1269     1.0  0.74244  0.35791  0.00548  1.0000
  H   H1262     1.0  0.73926  0.38420  0.03533  1.0000
  H   H1263     1.0  0.72273  0.38265  0.00038  1.0000
  H   H1264     1.0  0.73136  0.34943  0.97143  1.0000
  H   H1265     1.0  0.74800  0.35103  0.00684  1.0000
  H   H1266     1.0  0.72084  0.30410  0.43617  1.0000
  H   H1267     1.0  0.78795  0.38405  0.18017  1.0000
  Fe  Fe223     1.0  0.76664  0.26310  0.37253  1.0000
  H   H1268     1.0  0.65907  0.35709  0.87811  1.0000
  C   C1270     1.0  0.66245  0.37710  0.87299  1.0000
  S   S445      1.0  0.65685  0.43399  0.61381  1.0000
  C   C1271     1.0  0.66740  0.29506  0.97243  1.0000
  H   H1269     1.0  0.81244  0.39254  0.98136  1.0000
  C   C1272     1.0  0.81565  0.30740  0.94645  1.0000
  S   S446      1.0  0.73662  0.28759  0.41953  1.0000
  C   C1273     1.0  0.67704  0.36759  0.83682  1.0000
  H   H1270     1.0  0.67707  0.29959  0.95628  1.0000
  S   S447      1.0  0.70539  0.29279  0.58298  1.0000
  C   C1274     1.0  0.81267  0.26959  0.01092  1.0000
  H   H1271     1.0  0.66352  0.46378  0.65365  1.0000
  C   C1275     1.0  0.71321  0.41343  0.01861  1.0000
  C   C1276     1.0  0.71896  0.42642  0.00574  1.0000
  C   C1277     1.0  0.73089  0.43085  0.01050  1.0000
  C   C1278     1.0  0.73711  0.42234  0.02816  1.0000
  C   C1279     1.0  0.73125  0.40940  0.04124  1.0000
  C   C1280     1.0  0.71938  0.40498  0.03659  1.0000
  H   H1272     1.0  0.71424  0.43303  0.99222  1.0000
  H   H1273     1.0  0.73533  0.44090  0.00049  1.0000
  H   H1274     1.0  0.73587  0.40278  0.05500  1.0000
  H   H1275     1.0  0.71495  0.39495  0.04718  1.0000
  H   H1276     1.0  0.70217  0.39028  0.77414  1.0000
  S   S448      1.0  0.72455  0.31196  0.91072  1.0000
  S   S449      1.0  0.77195  0.25290  0.42616  1.0000
  H   H1277     1.0  0.80948  0.30411  0.04649  1.0000
  H   H1278     1.0  0.75902  0.28758  0.00015  1.0000
  H   H1279     1.0  0.68139  0.25639  0.02890  1.0000
  C   C1281     1.0  0.66341  0.34102  0.49600  1.0000
  H   H1280     1.0  0.79119  0.38751  0.01667  1.0000
  C   C1282     1.0  0.71463  0.41539  0.53302  1.0000
  C   C1283     1.0  0.72196  0.40783  0.51747  1.0000
  C   C1284     1.0  0.73503  0.41229  0.50275  1.0000
  C   C1285     1.0  0.74088  0.42447  0.50265  1.0000
  C   C1286     1.0  0.73354  0.43213  0.51746  1.0000
  C   C1287     1.0  0.72046  0.42758  0.53284  1.0000
  H   H1281     1.0  0.71750  0.39844  0.51706  1.0000
  H   H1282     1.0  0.74057  0.40634  0.49117  1.0000
  H   H1283     1.0  0.73800  0.44159  0.51729  1.0000
  H   H1284     1.0  0.71491  0.43348  0.54475  1.0000
  C   C1288     1.0  0.67917  0.43666  0.72562  1.0000
  C   C1289     1.0  0.68691  0.42830  0.72369  1.0000
  C   C1290     1.0  0.69139  0.42388  0.75660  1.0000
  C   C1291     1.0  0.68786  0.42751  0.79194  1.0000
  C   C1292     1.0  0.67989  0.43562  0.79416  1.0000
  C   C1293     1.0  0.67569  0.44031  0.76090  1.0000
  H   H1285     1.0  0.68975  0.42556  0.69643  1.0000
  H   H1286     1.0  0.69772  0.41778  0.75437  1.0000
  H   H1287     1.0  0.67723  0.43859  0.82105  1.0000
  C   C1294     1.0  0.81435  0.36719  0.51523  1.0000
  S   S450      1.0  0.81214  0.41148  0.48457  1.0000
  C   C1295     1.0  0.73643  0.40955  0.37404  1.0000
  H   H1288     1.0  0.70372  0.27253  0.44589  1.0000
  H   H1289     1.0  0.73298  0.30447  0.57351  1.0000
  C   C1296     1.0  0.72333  0.30048  0.95478  1.0000
  H   H1290     1.0  0.68814  0.29501  0.03416  1.0000
  C   C1297     1.0  0.79431  0.36431  0.50352  1.0000
  H   H1291     1.0  0.81041  0.43542  0.02386  1.0000
  N   N104      1.0  0.70709  0.37190  0.60484  1.0000
  C   C1298     1.0  0.71384  0.38390  0.60008  1.0000
  C   C1299     1.0  0.71287  0.36218  0.60523  1.0000
  C   C1300     1.0  0.72684  0.38656  0.59323  1.0000
  C   C1301     1.0  0.72583  0.36448  0.59896  1.0000
  C   C1302     1.0  0.73286  0.37679  0.59228  1.0000
  C   C1303     1.0  0.69353  0.36930  0.61094  1.0000
  H   H1292     1.0  0.70924  0.39157  0.60056  1.0000
  H   H1293     1.0  0.70751  0.35266  0.60907  1.0000
  H   H1294     1.0  0.73221  0.39620  0.58793  1.0000
  H   H1295     1.0  0.73041  0.35682  0.59799  1.0000
  H   H1296     1.0  0.74297  0.37876  0.58590  1.0000
  H   H1297     1.0  0.69050  0.36238  0.59477  1.0000
  H   H1298     1.0  0.68861  0.36535  0.64342  1.0000
  H   H1299     1.0  0.69066  0.37804  0.59884  1.0000
  S   S451      1.0  0.75693  0.26996  0.08418  1.0000
  H   H1300     1.0  0.80439  0.29606  0.91937  1.0000
  C   C1304     1.0  0.75161  0.31437  0.96104  1.0000
  Fe  Fe224     1.0  0.76750  0.26459  0.03159  1.0000
  C   C1305     1.0  0.72813  0.28145  0.50162  1.0000
  H   H1301     1.0  0.66352  0.28656  0.53783  1.0000
  N   N105      1.0  0.66178  0.27124  0.07606  1.0000
  H   H1302     1.0  0.77142  0.29409  0.45521  1.0000
  C   C1306     1.0  0.72095  0.29813  0.46450  1.0000
  C   C1307     1.0  0.66605  0.46860  0.62183  1.0000
  H   H1303     1.0  0.78361  0.37711  0.99246  1.0000
  N   N106      1.0  0.68518  0.37925  0.81882  1.0000
  C   C1308     1.0  0.81733  0.30955  0.98230  1.0000
  C   C1309     1.0  0.75553  0.25091  0.28625  1.0000
  C   C1310     1.0  0.65927  0.35866  0.52059  1.0000
  N   N107      1.0  0.68319  0.36983  0.02162  1.0000
  C   C1311     1.0  0.67417  0.37646  0.02345  1.0000
  C   C1312     1.0  0.68145  0.35872  0.01111  1.0000
  C   C1313     1.0  0.65640  0.28635  0.52206  1.0000
  C   C1314     1.0  0.67024  0.35372  0.00348  1.0000
  N   N108      1.0  0.80783  0.41304  0.15506  1.0000
  C   C1315     1.0  0.80829  0.30253  0.01855  1.0000
  H   H1304     1.0  0.80387  0.26265  0.02701  1.0000
  H   H1305     1.0  0.66971  0.33525  0.48753  1.0000
  H   H1306     1.0  0.77473  0.25890  0.17465  1.0000
  H   H1307     1.0  0.66238  0.36686  0.53067  1.0000
  C   C1316     1.0  0.66554  0.36634  0.86409  1.0000
  H   H1308     1.0  0.69252  0.28119  0.49487  1.0000
  H   H1309     1.0  0.65801  0.26868  0.50890  1.0000
  C   C1317     1.0  0.71584  0.24984  0.49219  1.0000
  N   N109      1.0  0.73704  0.41186  0.92907  1.0000
  C   C1318     1.0  0.73055  0.40136  0.92215  1.0000
  C   C1319     1.0  0.73350  0.42301  0.92126  1.0000
  C   C1320     1.0  0.71991  0.40167  0.90864  1.0000
  C   C1321     1.0  0.72297  0.42370  0.90734  1.0000
  C   C1322     1.0  0.71611  0.41294  0.90121  1.0000
  C   C1323     1.0  0.74800  0.41114  0.94404  1.0000
  H   H1310     1.0  0.73353  0.39261  0.92725  1.0000
  H   H1311     1.0  0.73865  0.43137  0.92659  1.0000
  H   H1312     1.0  0.71464  0.39320  0.90420  1.0000
  H   H1313     1.0  0.72006  0.43249  0.90189  1.0000
  H   H1314     1.0  0.70788  0.41337  0.89069  1.0000
  H   H1315     1.0  0.75572  0.41008  0.92060  1.0000
  H   H1316     1.0  0.75143  0.41971  0.95333  1.0000
  H   H1317     1.0  0.74556  0.40293  0.97106  1.0000
  H   H1318     1.0  0.79117  0.35416  0.01801  1.0000
  C   C1324     1.0  0.71368  0.25846  0.46116  1.0000
  N   N110      1.0  0.69904  0.26444  0.50923  1.0000
  H   H1319     1.0  0.78342  0.37144  0.04421  1.0000
  C   C1325     1.0  0.65798  0.47482  0.60573  1.0000
  C   C1326     1.0  0.73040  0.28284  0.98786  1.0000
  C   C1327     1.0  0.67821  0.26390  0.03964  1.0000
  H   H1320     1.0  0.68353  0.46345  0.60943  1.0000
  H   H1321     1.0  0.80780  0.32331  0.44207  1.0000
  H   H1322     1.0  0.69576  0.27781  0.01027  1.0000
  C   C1328     1.0  0.66594  0.26169  0.06342  1.0000
  S   S452      1.0  0.77569  0.26256  0.30895  1.0000
  H   H1323     1.0  0.69876  0.47058  0.54678  1.0000
  C   C1329     1.0  0.70513  0.26567  0.47024  1.0000
  H   H1324     1.0  0.78318  0.37688  0.52138  1.0000
  H   H1325     1.0  0.67944  0.35919  0.83003  1.0000
  H   H1326     1.0  0.67728  0.35425  0.50909  1.0000
  H   H1327     1.0  0.73219  0.31557  0.53026  1.0000
  H   H1328     1.0  0.66865  0.39741  0.86140  1.0000
  S   S453      1.0  0.66873  0.45643  0.95523  1.0000
  C   C1330     1.0  0.67262  0.48023  0.54018  1.0000
  H   H1329     1.0  0.65566  0.37693  0.01812  1.0000
  H   H1330     1.0  0.66977  0.44684  0.76245  1.0000
  C   C1331     1.0  0.66761  0.35162  0.50842  1.0000
  C   C1332     1.0  0.81270  0.30070  0.51382  1.0000
  C   C1333     1.0  0.71666  0.29241  0.02725  1.0000
  N   N111      1.0  0.80545  0.36100  0.50108  1.0000
  H   H1331     1.0  0.74450  0.43205  0.41996  1.0000
  H   H1332     1.0  0.70861  0.30644  0.50001  1.0000
  C   C1334     1.0  0.73940  0.32126  0.01306  1.0000
  C   C1335     1.0  0.67738  0.46841  0.59654  1.0000
  C   C1336     1.0  0.73882  0.31203  0.54604  1.0000
  C   C1337     1.0  0.71401  0.29946  0.50060  1.0000
  C   C1338     1.0  0.66285  0.37173  0.01608  1.0000
  H   H1333     1.0  0.79140  0.38396  0.24660  1.0000
  H   H1334     1.0  0.76530  0.42590  0.31389  1.0000
  H   H1335     1.0  0.77568  0.43821  0.35087  1.0000
  C   C1339     1.0  0.75697  0.42321  0.33896  1.0000
  H   H1336     1.0  0.76683  0.44115  0.39452  1.0000
  Fe  Fe225     1.0  0.74939  0.27441  0.42357  1.0000
  C   C1340     1.0  0.76658  0.44007  0.36439  1.0000
  H   H1337     1.0  0.76822  0.28868  0.52854  1.0000
  N   N112      1.0  0.75610  0.42963  0.36752  1.0000
  H   H1338     1.0  0.76572  0.44907  0.34570  1.0000
  C   C1341     1.0  0.74168  0.31189  0.04175  1.0000
  C   C1342     1.0  0.74535  0.42666  0.39812  1.0000
  C   C1343     1.0  0.73540  0.41650  0.40210  1.0000
  C   C1344     1.0  0.74723  0.41299  0.34198  1.0000
  C   C1345     1.0  0.76296  0.29473  0.51490  1.0000
  C   C1346     1.0  0.68228  0.38981  0.82772  1.0000
  Fe  Fe226     1.0  0.74011  0.26341  0.06380  1.0000
  H   H1339     1.0  0.72701  0.41401  0.42700  1.0000
  C   C1347     1.0  0.76482  0.29781  0.47354  1.0000
  H   H1340     1.0  0.75282  0.29695  0.57051  1.0000
  S   S454      1.0  0.74599  0.25680  0.40296  1.0000
  C   C1348     1.0  0.74439  0.32253  0.97243  1.0000
  C   C1349     1.0  0.78921  0.37765  0.01421  1.0000
  C   C1350     1.0  0.75427  0.29943  0.53832  1.0000
  H   H1341     1.0  0.74812  0.40773  0.31970  1.0000
  H   H1342     1.0  0.72126  0.27670  0.56589  1.0000
  C   C1351     1.0  0.74956  0.31019  0.48022  1.0000
  C   C1352     1.0  0.70097  0.25588  0.53985  1.0000
  C   C1353     1.0  0.72120  0.28274  0.53762  1.0000
  C   C1354     1.0  0.75808  0.30555  0.45600  1.0000
  H   H1343     1.0  0.72885  0.40155  0.37703  1.0000
  C   C1355     1.0  0.66087  0.36027  0.00615  1.0000
  H   H1344     1.0  0.75922  0.30770  0.42392  1.0000
  C   C1356     1.0  0.69228  0.47374  0.52971  1.0000
  H   H1345     1.0  0.70332  0.37598  0.80717  1.0000
  H   H1346     1.0  0.74397  0.31993  0.55478  1.0000
  S   S455      1.0  0.75072  0.25938  0.00871  1.0000
  N   N113      1.0  0.74765  0.30699  0.52090  1.0000
  N   N114      1.0  0.68056  0.47425  0.55629  1.0000
  H   H1347     1.0  0.81152  0.26757  0.95310  1.0000
  C   C1357     1.0  0.74892  0.30389  0.02931  1.0000
  H   H1348     1.0  0.79391  0.30447  0.43483  1.0000
  H   H1349     1.0  0.75036  0.29643  0.05185  1.0000
  H   H1350     1.0  0.73762  0.31062  0.07344  1.0000
  C   C1358     1.0  0.76137  0.29676  0.97678  1.0000
  H   H1351     1.0  0.75514  0.31521  0.92938  1.0000
  C   C1359     1.0  0.72805  0.28913  0.46497  1.0000
  H   H1352     1.0  0.73330  0.27432  0.50244  1.0000
  C   C1360     1.0  0.79658  0.29058  0.98357  1.0000
  S   S456      1.0  0.75319  0.26496  0.48044  1.0000
  H   H1353     1.0  0.78432  0.26664  0.22379  1.0000
  H   H1354     1.0  0.73359  0.32736  0.02229  1.0000
  H   H1355     1.0  0.80550  0.40267  0.25396  1.0000
  C   C1361     1.0  0.73017  0.29132  0.95270  1.0000
  C   C1362     1.0  0.80010  0.36113  0.00515  1.0000
  H   H1356     1.0  0.79936  0.38839  0.54627  1.0000
  C   C1363     1.0  0.79635  0.39195  0.22065  1.0000
  H   H1357     1.0  0.68048  0.26667  0.51987  1.0000
  C   C1364     1.0  0.81094  0.35711  0.99240  1.0000
  S   S457      1.0  0.72501  0.27396  0.06967  1.0000
  H   H1358     1.0  0.74426  0.31609  0.46629  1.0000
  H   H1359     1.0  0.80387  0.28070  0.52893  1.0000
  C   C1365     1.0  0.80466  0.29000  0.50992  1.0000
  C   C1366     1.0  0.76792  0.25815  0.27406  1.0000
  H   H1360     1.0  0.77145  0.30129  0.97091  1.0000
  N   N115      1.0  0.75368  0.30513  0.98937  1.0000
  C   C1367     1.0  0.79894  0.30331  0.45725  1.0000
  N   N116      1.0  0.80073  0.37370  0.00147  1.0000
  C   C1368     1.0  0.68627  0.27593  0.02916  1.0000
  H   H1361     1.0  0.68876  0.39902  0.81381  1.0000
  H   H1362     1.0  0.69576  0.37512  0.76813  1.0000
  S   S458      1.0  0.76969  0.28159  0.38894  1.0000
  C   C1369     1.0  0.79772  0.29118  0.48162  1.0000
  H   H1363     1.0  0.79130  0.28758  0.04748  1.0000
  H   H1364     1.0  0.69611  0.25488  0.57075  1.0000
  H   H1365     1.0  0.68875  0.35365  0.00859  1.0000
  C   C1370     1.0  0.68999  0.27196  0.51821  1.0000
  H   H1366     1.0  0.75974  0.29446  0.94930  1.0000
  H   H1367     1.0  0.73548  0.29094  0.92384  1.0000
  C   C1371     1.0  0.81390  0.31283  0.48949  1.0000
  S   S459      1.0  0.78491  0.27758  0.98298  1.0000
  C   C1372     1.0  0.81193  0.38255  0.98479  1.0000
  C   C1373     1.0  0.79794  0.29314  0.01923  1.0000
  H   H1368     1.0  0.74233  0.32948  0.94982  1.0000
  C   C1374     1.0  0.80032  0.40266  0.15061  1.0000
  H   H1369     1.0  0.70124  0.38224  0.00141  1.0000
  H   H1370     1.0  0.73578  0.27588  0.98600  1.0000
  C   C1375     1.0  0.79440  0.39201  0.18334  1.0000
  S   S460      1.0  0.78770  0.27718  0.47847  1.0000
  C   C1376     1.0  0.69502  0.37506  0.02904  1.0000
  H   H1371     1.0  0.81795  0.29955  0.53565  1.0000
  H   H1372     1.0  0.66895  0.27660  0.96655  1.0000
  H   H1373     1.0  0.81539  0.43841  0.48378  1.0000
  C   C1377     1.0  0.69720  0.38027  0.79069  1.0000
  C   C1378     1.0  0.66279  0.28201  0.97839  1.0000
  C   C1379     1.0  0.80101  0.38061  0.53394  1.0000
  C   C1380     1.0  0.77472  0.26108  0.23353  1.0000
  C   C1381     1.0  0.80424  0.40247  0.22476  1.0000
  H   H1374     1.0  0.67487  0.48433  0.50803  1.0000
  H   H1375     1.0  0.71880  0.25981  0.43024  1.0000
  Fe  Fe227     1.0  0.65649  0.41414  0.61160  1.0000
  C   C1382     1.0  0.65955  0.30212  0.98790  1.0000
  H   H1376     1.0  0.65964  0.25239  0.07062  1.0000
  C   C1383     1.0  0.66967  0.28303  0.06637  1.0000
  H   H1377     1.0  0.69719  0.48324  0.50871  1.0000
  C   C1384     1.0  0.66130  0.48076  0.56467  1.0000
  H   H1378     1.0  0.65540  0.47573  0.96220  1.0000
  Fe  Fe228     1.0  0.75132  0.24776  0.45750  1.0000
  C   C1385     1.0  0.80762  0.35034  0.48523  1.0000
  C   C1386     1.0  0.82098  0.42145  0.01858  1.0000
  H   H1379     1.0  0.66637  0.29065  0.07606  1.0000
  H   H1380     1.0  0.80245  0.34917  0.46274  1.0000
  H   H1381     1.0  0.81587  0.42122  0.19509  1.0000
  C   C1387     1.0  0.81698  0.27236  0.96931  1.0000
  C   C1388     1.0  0.82158  0.43450  0.49933  1.0000
  Fe  Fe229     1.0  0.75325  0.24949  0.11836  1.0000
  H   H1382     1.0  0.75015  0.24864  0.31724  1.0000
  H   H1383     1.0  0.81701  0.43277  0.12907  1.0000
  H   H1384     1.0  0.81590  0.27441  0.06361  1.0000
  C   C1389     1.0  0.81939  0.27623  0.03140  1.0000
  H   H1385     1.0  0.81772  0.35177  0.47008  1.0000
  H   H1386     1.0  0.81946  0.38223  0.54200  1.0000
  C   C1390     1.0  0.82132  0.42163  0.50553  1.0000
  Fe  Fe230     1.0  0.87786  0.44716  0.64127  1.0000
  S   S461      1.0  0.89562  0.44266  0.61170  1.0000
  S   S462      1.0  0.87198  0.44660  0.70761  1.0000
  Fe  Fe231     1.0  0.86673  0.44637  0.56938  1.0000
  S   S463      1.0  0.88395  0.44227  0.53495  1.0000
  S   S464      1.0  0.85046  0.44863  0.54146  1.0000
  Fe  Fe232     1.0  0.88292  0.42874  0.59274  1.0000
  S   S465      1.0  0.88624  0.40972  0.59061  1.0000
  Fe  Fe233     1.0  0.89543  0.45681  0.55596  1.0000
  S   S466      1.0  0.91329  0.46834  0.50661  1.0000
  S   S467      1.0  0.86512  0.43190  0.62650  1.0000
  S   S468      1.0  0.87819  0.46224  0.58633  1.0000
  Fe  Fe234     1.0  0.83830  0.33298  0.52583  1.0000
  S   S469      1.0  0.83255  0.34042  0.57923  1.0000
  C   C1391     1.0  0.82797  0.28182  0.94867  1.0000
  Fe  Fe235     1.0  0.86651  0.34404  0.51698  1.0000
  S   S470      1.0  0.86255  0.35196  0.56964  1.0000
  S   S471      1.0  0.88629  0.34735  0.47718  1.0000
  Fe  Fe236     1.0  0.84812  0.33369  0.60030  1.0000
  S   S472      1.0  0.84481  0.32454  0.66702  1.0000
  Fe  Fe237     1.0  0.84750  0.35804  0.54455  1.0000
  S   S473      1.0  0.84357  0.37706  0.54256  1.0000
  S   S474      1.0  0.85301  0.32486  0.54921  1.0000
  S   S475      1.0  0.85234  0.35146  0.48980  1.0000
  C   C1392     1.0  0.95287  0.38586  0.23378  1.0000
  C   C1393     1.0  0.98174  0.48212  0.26526  1.0000
  H   H1387     1.0  0.84971  0.45873  0.89635  1.0000
  H   H1388     1.0  0.89507  0.43144  0.72196  1.0000
  H   H1389     1.0  0.87017  0.43987  0.47244  1.0000
  S   S476      1.0  0.97221  0.40957  0.06227  1.0000
  Fe  Fe238     1.0  0.87565  0.45310  0.96327  1.0000
  S   S477      1.0  0.89212  0.47005  0.93100  1.0000
  S   S478      1.0  0.85568  0.45508  0.98219  1.0000
  Fe  Fe239     1.0  0.89171  0.43461  0.95565  1.0000
  S   S479      1.0  0.90930  0.44974  0.92250  1.0000
  S   S480      1.0  0.89241  0.41419  0.96792  1.0000
  Fe  Fe240     1.0  0.90315  0.46010  0.96808  1.0000
  S   S481      1.0  0.91588  0.46614  0.00680  1.0000
  Fe  Fe241     1.0  0.89710  0.45841  0.88817  1.0000
  S   S482      1.0  0.90348  0.46548  0.81994  1.0000
  S   S483      1.0  0.88610  0.44403  0.00359  1.0000
  S   S484      1.0  0.88010  0.44242  0.91800  1.0000
  N   N117      1.0  0.86532  0.47172  0.79787  1.0000
  H   H1390     1.0  0.95452  0.38693  0.29247  1.0000
  H   H1391     1.0  0.83517  0.29119  0.02576  1.0000
  H   H1392     1.0  0.82818  0.35347  0.67666  1.0000
  C   C1394     1.0  0.97485  0.40516  0.20366  1.0000
  C   C1395     1.0  0.95857  0.39076  0.26041  1.0000
  H   H1393     1.0  0.84624  0.45106  0.43046  1.0000
  H   H1394     1.0  0.88641  0.48368  0.84230  1.0000
  Fe  Fe242     1.0  0.84753  0.33447  0.93561  1.0000
  S   S485      1.0  0.84613  0.34876  0.88215  1.0000
  H   H1395     1.0  0.85854  0.46280  0.75710  1.0000
  Fe  Fe243     1.0  0.87557  0.34754  0.92350  1.0000
  S   S486      1.0  0.87607  0.36232  0.86849  1.0000
  S   S487      1.0  0.89135  0.34660  0.95434  1.0000
  Fe  Fe244     1.0  0.85739  0.36316  0.90367  1.0000
  S   S488      1.0  0.85272  0.38156  0.90782  1.0000
  Fe  Fe245     1.0  0.86492  0.34661  0.85070  1.0000
  S   S489      1.0  0.87100  0.34872  0.78330  1.0000
  S   S490      1.0  0.85731  0.34929  0.95956  1.0000
  S   S491      1.0  0.86589  0.33143  0.90327  1.0000
  C   C1396     1.0  0.90305  0.35878  0.95974  1.0000
  C   C1397     1.0  0.90445  0.37165  0.94197  1.0000
  C   C1398     1.0  0.91328  0.38100  0.94911  1.0000
  C   C1399     1.0  0.92090  0.37771  0.97404  1.0000
  C   C1400     1.0  0.91964  0.36482  0.99136  1.0000
  C   C1401     1.0  0.91083  0.35546  0.98410  1.0000
  H   H1396     1.0  0.89871  0.37437  0.92270  1.0000
  H   H1397     1.0  0.91419  0.39090  0.93519  1.0000
  H   H1398     1.0  0.92541  0.36205  0.01050  1.0000
  H   H1399     1.0  0.90992  0.34555  0.99791  1.0000
  C   C1402     1.0  0.86811  0.47135  0.87365  1.0000
  C   C1403     1.0  0.96782  0.45877  0.05229  1.0000
  C   C1404     1.0  0.97589  0.46547  0.06928  1.0000
  H   H1400     1.0  0.96018  0.46243  0.04493  1.0000
  N   N118      1.0  0.90058  0.33504  0.54891  1.0000
  C   C1405     1.0  0.92932  0.47724  0.00845  1.0000
  C   C1406     1.0  0.94904  0.49022  0.47398  1.0000
  C   C1407     1.0  0.85587  0.46470  0.83128  1.0000
  C   C1408     1.0  0.84568  0.29854  0.94623  1.0000
  C   C1409     1.0  0.94489  0.48285  0.04421  1.0000
  C   C1410     1.0  0.93418  0.47456  0.04170  1.0000
  H   H1401     1.0  0.94259  0.41480  0.17149  1.0000
  S   S492      1.0  0.97756  0.40678  0.27697  1.0000
  H   H1402     1.0  0.94846  0.48057  0.06994  1.0000
  H   H1403     1.0  0.92966  0.46595  0.06566  1.0000
  C   C1411     1.0  0.88101  0.40499  0.95292  1.0000
  C   C1412     1.0  0.88304  0.39393  0.94358  1.0000
  C   C1413     1.0  0.87422  0.38653  0.93070  1.0000
  C   C1414     1.0  0.86337  0.39028  0.92662  1.0000
  C   C1415     1.0  0.86118  0.40123  0.93676  1.0000
  C   C1416     1.0  0.86995  0.40852  0.95024  1.0000
  H   H1404     1.0  0.89149  0.39112  0.94619  1.0000
  H   H1405     1.0  0.87593  0.37802  0.92348  1.0000
  H   H1406     1.0  0.85275  0.40414  0.93400  1.0000
  H   H1407     1.0  0.86808  0.41678  0.95886  1.0000
  H   H1408     1.0  0.98082  0.43777  0.46761  1.0000
  S   S493      1.0  0.96264  0.41553  0.44298  1.0000
  H   H1409     1.0  0.97444  0.47427  0.07454  1.0000
  S   S494      1.0  0.96919  0.39348  0.40158  1.0000
  C   C1417     1.0  0.96757  0.43600  0.17639  1.0000
  C   C1418     1.0  0.85572  0.44997  0.43167  1.0000
  H   H1410     1.0  0.90788  0.34792  0.57897  1.0000
  H   H1411     1.0  0.93993  0.49429  0.56678  1.0000
  H   H1412     1.0  0.96194  0.46374  0.42663  1.0000
  C   C1419     1.0  0.85198  0.33153  0.69910  1.0000
  C   C1420     1.0  0.84701  0.32663  0.74093  1.0000
  C   C1421     1.0  0.85262  0.33179  0.76729  1.0000
  C   C1422     1.0  0.86347  0.34171  0.75198  1.0000
  C   C1423     1.0  0.86846  0.34656  0.71014  1.0000
  C   C1424     1.0  0.86265  0.34166  0.68386  1.0000
  H   H1413     1.0  0.83877  0.31878  0.75303  1.0000
  H   H1414     1.0  0.84867  0.32797  0.79938  1.0000
  H   H1415     1.0  0.87680  0.35430  0.69801  1.0000
  H   H1416     1.0  0.86653  0.34563  0.65185  1.0000
  C   C1425     1.0  0.89874  0.36015  0.47411  1.0000
  C   C1426     1.0  0.89868  0.36565  0.50572  1.0000
  C   C1427     1.0  0.90937  0.37458  0.50490  1.0000
  C   C1428     1.0  0.92013  0.37843  0.47198  1.0000
  C   C1429     1.0  0.92011  0.37315  0.43993  1.0000
  C   C1430     1.0  0.90951  0.36395  0.44123  1.0000
  H   H1417     1.0  0.89056  0.36272  0.53144  1.0000
  H   H1418     1.0  0.90932  0.37839  0.53023  1.0000
  H   H1419     1.0  0.92834  0.37594  0.41453  1.0000
  H   H1420     1.0  0.90970  0.35967  0.41678  1.0000
  C   C1431     1.0  0.88133  0.45145  0.73783  1.0000
  C   C1432     1.0  0.87628  0.44730  0.77971  1.0000
  C   C1433     1.0  0.88307  0.45129  0.80514  1.0000
  C   C1434     1.0  0.89495  0.45963  0.78899  1.0000
  C   C1435     1.0  0.90004  0.46372  0.74710  1.0000
  C   C1436     1.0  0.89331  0.45959  0.72158  1.0000
  H   H1421     1.0  0.86701  0.44099  0.79256  1.0000
  H   H1422     1.0  0.87894  0.44812  0.83715  1.0000
  H   H1423     1.0  0.90921  0.47022  0.73424  1.0000
  H   H1424     1.0  0.89728  0.46293  0.68937  1.0000
  C   C1437     1.0  0.92733  0.47820  0.50847  1.0000
  C   C1438     1.0  0.92827  0.48245  0.54202  1.0000
  H   H1425     1.0  0.83423  0.41005  0.01008  1.0000
  H   H1426     1.0  0.84730  0.45926  0.82838  1.0000
  C   C1439     1.0  0.95608  0.42283  0.24146  1.0000
  H   H1427     1.0  0.85304  0.29460  0.93073  1.0000
  H   H1428     1.0  0.92029  0.47960  0.56823  1.0000
  C   C1440     1.0  0.88947  0.33655  0.61297  1.0000
  H   H1429     1.0  0.91828  0.33252  0.52162  1.0000
  Fe  Fe246     1.0  0.95910  0.41847  0.03395  1.0000
  C   C1441     1.0  0.87476  0.40149  0.57362  1.0000
  C   C1442     1.0  0.86295  0.40402  0.57932  1.0000
  C   C1443     1.0  0.85347  0.39672  0.56861  1.0000
  C   C1444     1.0  0.85585  0.38700  0.55160  1.0000
  C   C1445     1.0  0.86785  0.38492  0.54383  1.0000
  C   C1446     1.0  0.87725  0.39201  0.55545  1.0000
  H   H1430     1.0  0.86095  0.41133  0.59317  1.0000
  H   H1431     1.0  0.84421  0.39837  0.57455  1.0000
  H   H1432     1.0  0.86991  0.37784  0.52889  1.0000
  H   H1433     1.0  0.88642  0.39014  0.55034  1.0000
  H   H1434     1.0  0.86252  0.45477  0.40190  1.0000
  C   C1447     1.0  0.82293  0.37886  0.97187  1.0000
  C   C1448     1.0  0.96969  0.40035  0.24541  1.0000
  H   H1435     1.0  0.83460  0.35134  0.73734  1.0000
  C   C1449     1.0  0.93780  0.48214  0.47453  1.0000
  C   C1450     1.0  0.83017  0.44247  0.51207  1.0000
  C   C1451     1.0  0.83868  0.43775  0.53108  1.0000
  C   C1452     1.0  0.83809  0.42479  0.53865  1.0000
  H   H1436     1.0  0.94444  0.37823  0.24566  1.0000
  H   H1437     1.0  0.84449  0.42100  0.55333  1.0000
  C   C1453     1.0  0.96956  0.44734  0.04522  1.0000
  H   H1438     1.0  0.94201  0.49575  0.15851  1.0000
  C   C1454     1.0  0.89074  0.32565  0.55003  1.0000
  H   H1439     1.0  0.87217  0.31413  0.58328  1.0000
  H   H1440     1.0  0.96040  0.43256  0.12742  1.0000
  C   C1455     1.0  0.84246  0.44199  0.99588  1.0000
  H   H1441     1.0  0.90427  0.39384  0.01425  1.0000
  C   C1456     1.0  0.84376  0.42971  0.99744  1.0000
  H   H1442     1.0  0.90514  0.38079  0.05254  1.0000
  H   H1443     1.0  0.85300  0.42806  0.99021  1.0000
  H   H1444     1.0  0.89103  0.32153  0.52511  1.0000
  H   H1445     1.0  0.87212  0.38636  0.66405  1.0000
  C   C1457     1.0  0.97545  0.43847  0.23357  1.0000
  S   S495      1.0  0.82378  0.32684  0.49302  1.0000
  H   H1446     1.0  0.95692  0.49328  0.44744  1.0000
  C   C1458     1.0  0.98078  0.46912  0.43104  1.0000
  H   H1447     1.0  0.98544  0.48469  0.35502  1.0000
  H   H1448     1.0  0.98616  0.45532  0.50074  1.0000
  H   H1449     1.0  0.84204  0.35055  0.64789  1.0000
  H   H1450     1.0  0.83108  0.28416  0.91622  1.0000
  H   H1451     1.0  0.97951  0.44861  0.21670  1.0000
  H   H1452     1.0  0.96922  0.47618  0.32517  1.0000
  Fe  Fe247     1.0  0.96496  0.42749  0.38136  1.0000
  H   H1453     1.0  0.96910  0.43140  0.51568  1.0000
  C   C1459     1.0  0.97434  0.45525  0.39190  1.0000
  S   S496      1.0  0.95271  0.41256  0.36478  1.0000
  Fe  Fe248     1.0  0.94654  0.39431  0.01592  1.0000
  S   S497      1.0  0.98296  0.42324  0.35461  1.0000
  C   C1460     1.0  0.95801  0.39072  0.19200  1.0000
  H   H1454     1.0  0.85623  0.40126  0.47419  1.0000
  C   C1461     1.0  0.98563  0.46069  0.07967  1.0000
  H   H1455     1.0  0.97450  0.37642  0.15763  1.0000
  H   H1456     1.0  0.84789  0.36073  0.77507  1.0000
  C   C1462     1.0  0.85003  0.36459  0.74282  1.0000
  C   C1463     1.0  0.85714  0.46437  0.86968  1.0000
  H   H1457     1.0  0.88904  0.34089  0.63744  1.0000
  S   S498      1.0  0.83107  0.31990  0.98411  1.0000
  H   H1458     1.0  0.87530  0.41466  0.75303  1.0000
  C   C1464     1.0  0.97142  0.46281  0.41731  1.0000
  H   H1459     1.0  0.97844  0.47478  0.45124  1.0000
  H   H1460     1.0  0.82925  0.45342  0.00430  1.0000
  Fe  Fe249     1.0  0.95561  0.39316  0.09227  1.0000
  C   C1465     1.0  0.87769  0.47850  0.83948  1.0000
  H   H1461     1.0  0.98152  0.43450  0.04650  1.0000
  C   C1466     1.0  0.83030  0.28570  0.00979  1.0000
  C   C1467     1.0  0.94743  0.41645  0.22560  1.0000
  H   H1462     1.0  0.86918  0.47119  0.90324  1.0000
  S   S499      1.0  0.96271  0.41115  0.98032  1.0000
  Fe  Fe250     1.0  0.97062  0.40714  0.34209  1.0000
  C   C1468     1.0  0.90008  0.34046  0.57989  1.0000
  H   H1463     1.0  0.83043  0.45245  0.50629  1.0000
  S   S500      1.0  0.95921  0.38356  0.04251  1.0000
  C   C1469     1.0  0.95907  0.42985  0.15955  1.0000
  C   C1470     1.0  0.86366  0.47221  0.75794  1.0000
  H   H1464     1.0  0.91709  0.34878  0.51027  1.0000
  S   S501      1.0  0.95090  0.38392  0.15943  1.0000
  H   H1465     1.0  0.97556  0.44349  0.15687  1.0000
  C   C1471     1.0  0.88001  0.32149  0.58266  1.0000
  C   C1472     1.0  0.86073  0.37436  0.72223  1.0000
  H   H1466     1.0  0.87109  0.32383  0.63971  1.0000
  C   C1473     1.0  0.94987  0.49476  0.50708  1.0000
  C   C1474     1.0  0.94899  0.41996  0.18434  1.0000
  H   H1467     1.0  0.90972  0.33818  0.48702  1.0000
  N   N119      1.0  0.84556  0.36384  0.68046  1.0000
  H   H1468     1.0  0.89758  0.39252  0.06656  1.0000
  C   C1475     1.0  0.85608  0.37335  0.66007  1.0000
  C   C1476     1.0  0.86377  0.37883  0.68055  1.0000
  C   C1477     1.0  0.83796  0.35796  0.65802  1.0000
  H   H1469     1.0  0.85864  0.37663  0.62774  1.0000
  C   C1478     1.0  0.91201  0.33877  0.51544  1.0000
  H   H1470     1.0  0.97893  0.42191  0.49620  1.0000
  H   H1471     1.0  0.85839  0.47934  0.74959  1.0000
  Fe  Fe251     1.0  0.98015  0.41034  0.41569  1.0000
  N   N120      1.0  0.92101  0.41905  0.51489  1.0000
  C   C1479     1.0  0.91803  0.42681  0.53833  1.0000
  C   C1480     1.0  0.92874  0.42402  0.47668  1.0000
  C   C1481     1.0  0.92263  0.43996  0.52330  1.0000
  C   C1482     1.0  0.93338  0.43714  0.46059  1.0000
  C   C1483     1.0  0.93026  0.44514  0.48409  1.0000
  C   C1484     1.0  0.91621  0.40528  0.53073  1.0000
  H   H1472     1.0  0.91200  0.42291  0.56873  1.0000
  H   H1473     1.0  0.93129  0.41781  0.45841  1.0000
  H   H1474     1.0  0.92016  0.44613  0.54175  1.0000
  H   H1475     1.0  0.93930  0.44109  0.43008  1.0000
  H   H1476     1.0  0.93368  0.45535  0.47195  1.0000
  H   H1477     1.0  0.92392  0.40086  0.53586  1.0000
  H   H1478     1.0  0.90868  0.40253  0.55937  1.0000
  H   H1479     1.0  0.91220  0.40139  0.50894  1.0000
  N   N121      1.0  0.93810  0.44338  0.97306  1.0000
  C   C1485     1.0  0.94419  0.43702  0.94953  1.0000
  C   C1486     1.0  0.92595  0.43816  0.99546  1.0000
  C   C1487     1.0  0.93799  0.42525  0.94732  1.0000
  C   C1488     1.0  0.91944  0.42649  0.99365  1.0000
  C   C1489     1.0  0.92547  0.42010  0.96898  1.0000
  C   C1490     1.0  0.94433  0.45607  0.97328  1.0000
  H   H1480     1.0  0.95393  0.44098  0.93268  1.0000
  H   H1481     1.0  0.92120  0.44305  0.01473  1.0000
  H   H1482     1.0  0.94282  0.42009  0.92916  1.0000
  H   H1483     1.0  0.90974  0.42253  0.01091  1.0000
  H   H1484     1.0  0.92047  0.41115  0.96671  1.0000
  H   H1485     1.0  0.95460  0.45833  0.95995  1.0000
  H   H1486     1.0  0.94047  0.46328  0.95646  1.0000
  H   H1487     1.0  0.94282  0.45670  0.00460  1.0000
  C   C1491     1.0  0.86405  0.43294  0.46383  1.0000
  C   C1492     1.0  0.84794  0.41499  0.44419  1.0000
  C   C1493     1.0  0.86439  0.42021  0.47494  1.0000
  C   C1494     1.0  0.85625  0.41120  0.46507  1.0000
  H   H1488     1.0  0.84126  0.40802  0.43760  1.0000
  H   H1489     1.0  0.87073  0.41733  0.49186  1.0000
  H   H1490     1.0  0.98341  0.41261  0.19175  1.0000
  N   N122      1.0  0.88719  0.38000  0.04162  1.0000
  C   C1495     1.0  0.87739  0.38556  0.04255  1.0000
  C   C1496     1.0  0.88620  0.36825  0.03550  1.0000
  C   C1497     1.0  0.86623  0.37934  0.03721  1.0000
  C   C1498     1.0  0.87525  0.36182  0.02956  1.0000
  C   C1499     1.0  0.86521  0.36742  0.03046  1.0000
  C   C1500     1.0  0.89911  0.38712  0.04403  1.0000
  H   H1491     1.0  0.87834  0.39507  0.04594  1.0000
  H   H1492     1.0  0.89399  0.36389  0.03438  1.0000
  H   H1493     1.0  0.85864  0.38396  0.03668  1.0000
  H   H1494     1.0  0.87471  0.35267  0.02336  1.0000
  H   H1495     1.0  0.85675  0.36263  0.02516  1.0000
  C   C1501     1.0  0.82949  0.41681  0.52596  1.0000
  H   H1496     1.0  0.82312  0.36447  0.51386  1.0000
  S   S502      1.0  0.95903  0.43891  0.02547  1.0000
  C   C1502     1.0  0.88119  0.41738  0.77143  1.0000
  C   C1503     1.0  0.84788  0.42780  0.43343  1.0000
  C   C1504     1.0  0.96895  0.40054  0.17713  1.0000
  C   C1505     1.0  0.83035  0.44395  0.00551  1.0000
  H   H1497     1.0  0.93716  0.47909  0.44817  1.0000
  Fe  Fe252     1.0  0.97498  0.40126  0.01051  1.0000
  N   N123      1.0  0.85578  0.43656  0.44366  1.0000
  S   S503      1.0  0.93128  0.39013  0.98366  1.0000
  H   H1498     1.0  0.84111  0.43059  0.41826  1.0000
  S   S504      1.0  0.94206  0.40275  0.06776  1.0000
  H   H1499     1.0  0.82945  0.40690  0.53099  1.0000
  C   C1506     1.0  0.83308  0.41951  0.00875  1.0000
  N   N124      1.0  0.96598  0.43249  0.21689  1.0000
  H   H1500     1.0  0.97332  0.36731  0.10111  1.0000
  C   C1507     1.0  0.84258  0.35931  0.72129  1.0000
  C   C1508     1.0  0.97960  0.44283  0.05416  1.0000
  S   S505      1.0  0.93343  0.38944  0.47347  1.0000
  H   H1501     1.0  0.90795  0.43833  0.76459  1.0000
  H   H1502     1.0  0.85819  0.45484  0.45393  1.0000
  H   H1503     1.0  0.90062  0.43812  0.85092  1.0000
  C   C1509     1.0  0.89959  0.43062  0.77818  1.0000
  C   C1510     1.0  0.89234  0.42678  0.75391  1.0000
  N   N125      1.0  0.89593  0.42505  0.81866  1.0000
  C   C1511     1.0  0.87753  0.41176  0.81276  1.0000
  H   H1504     1.0  0.86683  0.37816  0.73853  1.0000
  H   H1505     1.0  0.97301  0.40443  0.14520  1.0000
  C   C1512     1.0  0.93538  0.48842  0.97774  1.0000
  H   H1506     1.0  0.88207  0.41152  0.86805  1.0000
  H   H1507     1.0  0.90172  0.42230  0.87259  1.0000
  H   H1508     1.0  0.86885  0.40445  0.82691  1.0000
  C   C1513     1.0  0.88504  0.41578  0.83601  1.0000
  C   C1514     1.0  0.90329  0.42964  0.84388  1.0000
  H   H1509     1.0  0.93987  0.40849  0.24502  1.0000
  H   H1510     1.0  0.91346  0.43230  0.82835  1.0000
  S   S506      1.0  0.96271  0.44726  0.37493  1.0000
  Fe  Fe253     1.0  0.95177  0.39985  0.42475  1.0000
  H   H1511     1.0  0.95514  0.41964  0.27332  1.0000
  C   C1515     1.0  0.87939  0.32699  0.61429  1.0000
  H   H1512     1.0  0.97142  0.43797  0.26555  1.0000
  H   H1513     1.0  0.87281  0.47470  0.73475  1.0000
  N   N126      1.0  0.83442  0.28840  0.96892  1.0000
  C   C1516     1.0  0.97867  0.43160  0.49873  1.0000
  C   C1517     1.0  0.87610  0.47866  0.80157  1.0000
  H   H1514     1.0  0.84957  0.30368  0.96587  1.0000
  C   C1518     1.0  0.93943  0.49079  0.54110  1.0000
  H   H1515     1.0  0.84338  0.30570  0.92374  1.0000
  H   H1516     1.0  0.98308  0.43346  0.23198  1.0000
  C   C1519     1.0  0.95081  0.49415  0.01381  1.0000
  H   H1517     1.0  0.97460  0.47882  0.25156  1.0000
  H   H1518     1.0  0.93184  0.49069  0.95194  1.0000
  H   H1519     1.0  0.88370  0.48408  0.77521  1.0000
  H   H1520     1.0  0.83179  0.38592  0.95871  1.0000
  C   C1520     1.0  0.97869  0.48080  0.30638  1.0000
  H   H1521     1.0  0.83089  0.36311  0.96536  1.0000
  S   S507      1.0  0.97446  0.49268  0.11701  1.0000
  H   H1522     1.0  0.98272  0.37587  0.01735  1.0000
  C   C1521     1.0  0.98660  0.45405  0.38014  1.0000
  C   C1522     1.0  0.98752  0.44938  0.07192  1.0000
  C   C1523     1.0  0.98149  0.37469  0.09798  1.0000
  H   H1523     1.0  0.83760  0.36510  0.63124  1.0000
  N   N127      1.0  0.98783  0.43635  0.51849  1.0000
  C   C1524     1.0  0.82241  0.36606  0.97565  1.0000
  C   C1525     1.0  0.98208  0.37984  0.13003  1.0000
  C   C1526     1.0  0.98792  0.48553  0.32326  1.0000
  H   H1524     1.0  0.82246  0.31275  0.91829  1.0000
  H   H1525     1.0  0.98821  0.36273  0.04115  1.0000
  H   H1526     1.0  0.82206  0.42223  0.10063  1.0000
  C   C1527     1.0  0.96656  0.53471  0.15026  1.0000
  C   C1528     1.0  0.95322  0.51389  0.15664  1.0000
  C   C1529     1.0  0.98077  0.51324  0.26532  1.0000
  S   S508      1.0  0.96378  0.50557  0.01665  1.0000
  H   H1527     1.0  0.96409  0.53940  0.07633  1.0000
  C   C1530     1.0  0.95898  0.52994  0.09487  1.0000
  C   C1531     1.0  0.95237  0.52174  0.07804  1.0000
  H   H1528     1.0  0.97089  0.50861  0.27574  1.0000
  Fe  Fe254     1.0  0.97781  0.50506  0.05467  1.0000
  C   C1532     1.0  0.94614  0.50940  0.10111  1.0000
  H   H1529     1.0  0.95033  0.50555  0.95698  1.0000
  S   S509      1.0  0.97879  0.51126  0.19133  1.0000
  H   H1530     1.0  0.96420  0.53132  0.18353  1.0000
  H   H1531     1.0  0.94128  0.50287  0.08788  1.0000
  H   H1532     1.0  0.96479  0.54427  0.14239  1.0000
  S   S510      1.0  0.98691  0.50188  0.41019  1.0000
  H   H1533     1.0  0.98188  0.51481  0.32398  1.0000
  Fe  Fe255     1.0  0.98646  0.50916  0.12877  1.0000
  N   N128      1.0  0.95924  0.52601  0.13384  1.0000
  C   C1533     1.0  0.94658  0.50541  0.14064  1.0000
  H   H1534     1.0  0.95241  0.52474  0.04682  1.0000
  S   S511      1.0  0.96348  0.50589  0.50642  1.0000
  H   H1535     1.0  0.97669  0.53544  0.13826  1.0000
  Fe  Fe256     1.0  0.98287  0.50951  0.46351  1.0000
  H   H1536     1.0  0.95368  0.51064  0.18721  1.0000
  C   C1534     1.0  0.98720  0.51573  0.22463  1.0000
  C   C1535     1.0  0.98700  0.51671  0.29284  1.0000
  C   C1536     1.0  0.94592  0.49685  0.98068  1.0000
  S   S512      1.0  0.98840  0.52231  0.06788  1.0000
