data_image0
_chemical_formula_structural       SHFeSFeSCFeS2FeSFeS3FeS2FeS2FeSFeCS2CH2C2H2NCHC2HC6H2FeHC6H4SHC7H4CHSHC2H2CHC3HCH2NC6H2CHSH4C2H3CH2CHNHCHCH3NHC2HC2HNCH2CH2SCHSC2HNC2H3CFeH2C2H5C3H4S2CHC2H2CH2FeCHFeSC2SFeS2FeS2FeSFeS3FeSHFeS2FeSFeS3C6HCH2C6H4SNC2H2C8H2SH3CSHC3HC3H3SCHCH2CH2CHNCH3C2FeHNCH3NC6H11NH4C5H6CFeH2SC4H3C2HFeS2FeS2FeSFeCS2FeS2FeS2FeHFeCS3HFeSHC6H4C6H5C2H2NCHC6HSC3HSC3H5SC2H4C3HCHSCFeH2CH3C3H2C2H4CFeCSHNC2NCSHCHSHSHNC2NHSH2CH2C2H4FeH2FeHCHC2HC2HC2H2SH2FeSHFeS2FeSFeS3FeS2FeSFeSFeS3H2FeSC2SCSCHSHFeH3NCHCHCH2C3H2C6H4C7H3FeH4C8H3CSHC2HC3HCHFeC2HNC6HNH2CH3CNHCHCHCH2SCHSC2H3NH2FeH2CSCH2CH2CSCH2NCH2FeSFeS2FeS2FeSFeS3FeS2FeS2FeSFeS3C6H2C4SC7H2NHC3H2C7H3C6H4C6H5CSHC4HCH2C2H2CHCNCHC2HSHCHSH2C3H2CHNC6H7CNHCHCHSFeCHC2H2C2H2CH5CSH10CHC2H3C2NC2HCH2FeSC3SC2FeS2FeS2FeSFeS3FeS2FeS2FeSFeS3C6H2C6HSH2C6H4C6H4C6H3C3HCHC4SCH2C2FeH3CHCH9CH8NHSC3H2NC4H2CH2CHCH5NC5HNCH3CHCNHCHNCNC2H3C2FeH4C2SH3C3HCH2CH3CHSHC3NHSHCSH2SC3FeH2CHSCHCFeSCHCHFeCHCH2FeSCHNFeCHSHC2HC2SHC2SH4CFeSC4HCHCSCHCH3SCNH3CFeCSC2H8CH2SCHNH3C2HCSFeC6NH2FeC2H2S2H3FeS2FeS2FeSFeS3FeS2FeS2FeSFeS3NH2C6H4CNC4H3C6H4C9NH4C6H2SC6H4C4HC2H3NC6H8C2NC3HC2H5C2SH6SHC3H2CH3CHC2H5CHNC6H2CH3FeHNCSCSCH4CH4SC2HC2HC2HC4H6CH2CNCHSHFeS2FeS2FeSFeS3FeS2FeS2FeSFeS3C2H2C4H2C6H4C6H2CH3C6H3C6H3C7H4C7HN2CH2C2HFeH2CH7CNC6H8CH2SH2C2H6CNC5HC2HCNH2CH2CFeHSCHCSC2HSH2CH2NH3C2H5CH4CHCNCNS2HCSFeSFeSHFeS2FeSFeS3FeS2FeS2FeSFeHS2CH4CHC2HCFeCH2CH2C3HCH2C6H4C4H3C6H4CNCNCNC2H4CHSHC2H2C4H3C2H5CNC2HCSCFeCSC3HCHCH6FeHC2HCH2FeHFeH2SHCH4SC2HFeSHCSCHC2FeS2FeS2FeSFeCS2FeSHFeS2FeSFeS3C7H4C6H3SFeH2C7H6CH2C2NHC3H2C3H6CHCH2CHCHNCHSFeNCHCH4C3H2CHC2HNHCH5NH2C2H3SCSCSC4SCHCHSFeSCFeS2FeSFeS3FeS2FeS2FeCFeS3C3S2HFeSFeSC2SCHC2H5CH2NC6H4C4NCHFeH2C6HCH3C2H3C2H3C5SC2HNC6H13NC3H2C3H6SCHCH2CH3C2SFe2S2FeSCFeSFeS3FeS2FeS2FeSFeCS2CH4SHSH5C2HC2HC3H3C2NHC2SHCHSH2C6H4C6H2CNCHC4H5NH2SHFeH3C3HSC4NC4H4CHCH4CHCH2C4HCH2SC2H3C2HCH2C
_chemical_formula_sum              "S288 H864 Fe144 C864 N72"
_cell_length_a       57.2764
_cell_length_b       56.9864
_cell_length_c       67.95
_cell_angle_alpha    90.9787
_cell_angle_beta     91.0883
_cell_angle_gamma    117.564

_space_group_name_H-M_alt    "P 1"
_space_group_IT_number       1

loop_
  _space_group_symop_operation_xyz
  'x, y, z'

loop_
  _atom_site_type_symbol
  _atom_site_label
  _atom_site_symmetry_multiplicity
  _atom_site_fract_x
  _atom_site_fract_y
  _atom_site_fract_z
  _atom_site_occupancy
  S   S1        1.0  0.21334  0.22136  0.01708  1.0000
  H   H1        1.0  0.32420  0.35312  0.03027  1.0000
  Fe  Fe1       1.0  0.24467  0.26183  0.00916  1.0000
  S   S2        1.0  0.26013  0.30073  0.02789  1.0000
  Fe  Fe2       1.0  0.10124  0.45129  0.14699  1.0000
  S   S3        1.0  0.05828  0.42154  0.14555  1.0000
  C   C1        1.0  0.12770  0.37983  0.08654  1.0000
  Fe  Fe3       1.0  0.11804  0.40791  0.15464  1.0000
  S   S4        1.0  0.07614  0.37558  0.15433  1.0000
  S   S5        1.0  0.14802  0.39326  0.16098  1.0000
  Fe  Fe4       1.0  0.07012  0.39498  0.12745  1.0000
  S   S6        1.0  0.05542  0.37536  0.09649  1.0000
  Fe  Fe5       1.0  0.06845  0.40468  0.17249  1.0000
  S   S7        1.0  0.04500  0.39635  0.20062  1.0000
  S   S8        1.0  0.11279  0.42633  0.12718  1.0000
  S   S9        1.0  0.11063  0.43542  0.17453  1.0000
  Fe  Fe6       1.0  0.30661  0.38604  0.13129  1.0000
  S   S10       1.0  0.31392  0.42145  0.11348  1.0000
  S   S11       1.0  0.29575  0.34534  0.11671  1.0000
  Fe  Fe7       1.0  0.32218  0.41904  0.17086  1.0000
  S   S12       1.0  0.33044  0.45627  0.15491  1.0000
  S   S13       1.0  0.33443  0.43044  0.20337  1.0000
  Fe  Fe8       1.0  0.29297  0.43090  0.13770  1.0000
  S   S14       1.0  0.26539  0.44859  0.13213  1.0000
  Fe  Fe9       1.0  0.35068  0.44357  0.13257  1.0000
  C   C2        1.0  0.12977  0.37898  0.10697  1.0000
  S   S15       1.0  0.28329  0.39423  0.15474  1.0000
  S   S16       1.0  0.34483  0.40760  0.14920  1.0000
  C   C3        1.0  0.11077  0.35747  0.11681  1.0000
  H   H2        1.0  0.17662  0.26368  0.00647  1.0000
  H   H3        1.0  0.22093  0.30167  0.07991  1.0000
  C   C4        1.0  0.32108  0.41785  0.22667  1.0000
  C   C5        1.0  0.29870  0.39343  0.22864  1.0000
  H   H4        1.0  0.30415  0.99345  0.07208  1.0000
  H   H5        1.0  0.28876  0.38145  0.21565  1.0000
  N   N1        1.0  0.08063  0.47212  0.20292  1.0000
  C   C6        1.0  0.05982  0.39988  0.22452  1.0000
  H   H6        1.0  0.09633  0.19226  0.01200  1.0000
  C   C7        1.0  0.08671  0.40757  0.22714  1.0000
  C   C8        1.0  0.22729  0.03696  0.04066  1.0000
  H   H7        1.0  0.09872  0.41046  0.21444  1.0000
  C   C9        1.0  0.03552  0.34390  0.08438  1.0000
  C   C10       1.0  0.03727  0.34140  0.06383  1.0000
  C   C11       1.0  0.02289  0.31678  0.05362  1.0000
  C   C12       1.0  0.00599  0.29427  0.06374  1.0000
  C   C13       1.0  0.00405  0.29683  0.08425  1.0000
  C   C14       1.0  0.01876  0.32135  0.09451  1.0000
  H   H8        1.0  0.05009  0.35865  0.05577  1.0000
  H   H9        1.0  0.42247  0.46197  0.15990  1.0000
  Fe  Fe10      1.0  0.23389  0.20416  0.99769  1.0000
  H   H10       1.0  0.01680  0.32286  0.11022  1.0000
  C   C15       1.0  0.17954  0.40765  0.15087  1.0000
  C   C16       1.0  0.18980  0.43218  0.14191  1.0000
  C   C17       1.0  0.21601  0.44423  0.13575  1.0000
  C   C18       1.0  0.23201  0.43180  0.13845  1.0000
  C   C19       1.0  0.22146  0.40694  0.14693  1.0000
  C   C20       1.0  0.19530  0.39491  0.15310  1.0000
  H   H11       1.0  0.17784  0.44221  0.14021  1.0000
  H   H12       1.0  0.22407  0.46348  0.12917  1.0000
  H   H13       1.0  0.23352  0.39713  0.14898  1.0000
  H   H14       1.0  0.18744  0.37591  0.16003  1.0000
  S   S17       1.0  0.39079  0.46862  0.11933  1.0000
  H   H15       1.0  0.07908  0.30774  0.12823  1.0000
  C   C21       1.0  0.21172  0.43930  0.19060  1.0000
  C   C22       1.0  0.26852  0.31189  0.05300  1.0000
  C   C23       1.0  0.27264  0.33758  0.05834  1.0000
  C   C24       1.0  0.28037  0.34792  0.07779  1.0000
  C   C25       1.0  0.28412  0.33269  0.09226  1.0000
  C   C26       1.0  0.27945  0.30679  0.08702  1.0000
  C   C27       1.0  0.27164  0.29641  0.06757  1.0000
  H   H16       1.0  0.27022  0.34977  0.04727  1.0000
  H   H17       1.0  0.28380  0.36782  0.08151  1.0000
  H   H18       1.0  0.28221  0.29476  0.09805  1.0000
  H   H19       1.0  0.26847  0.27661  0.06380  1.0000
  C   C28       1.0  0.24555  0.02924  0.04815  1.0000
  H   H20       1.0  0.14561  0.39517  0.11523  1.0000
  S   S18       1.0  0.98966  0.20944  0.01540  1.0000
  H   H21       1.0  0.05628  0.29925  0.10751  1.0000
  C   C29       1.0  0.06372  0.46741  0.18531  1.0000
  C   C30       1.0  0.19568  0.25987  0.07475  1.0000
  H   H22       1.0  0.07229  0.32171  0.07834  1.0000
  H   H23       1.0  0.17249  0.99243  0.06185  1.0000
  C   C31       1.0  0.18482  0.28102  0.01692  1.0000
  H   H24       1.0  0.02464  0.31531  0.03787  1.0000
  C   C32       1.0  0.20922  0.11989  0.99495  1.0000
  C   C33       1.0  0.39984  0.46945  0.18161  1.0000
  C   C34       1.0  0.10706  0.35895  0.07617  1.0000
  H   H25       1.0  0.10492  0.35961  0.06033  1.0000
  C   C35       1.0  0.25290  0.12643  0.00355  1.0000
  H   H26       1.0  0.23376  0.05292  0.03031  1.0000
  H   H27       1.0  0.38237  0.45065  0.17891  1.0000
  N   N2        1.0  0.35214  0.38279  0.08222  1.0000
  C   C36       1.0  0.34930  0.39841  0.06827  1.0000
  C   C37       1.0  0.34572  0.35697  0.07776  1.0000
  C   C38       1.0  0.33938  0.38807  0.04934  1.0000
  C   C39       1.0  0.33594  0.34606  0.05895  1.0000
  C   C40       1.0  0.33269  0.36171  0.04469  1.0000
  C   C41       1.0  0.36324  0.39399  0.10181  1.0000
  H   H28       1.0  0.35444  0.41892  0.07183  1.0000
  H   H29       1.0  0.34742  0.34446  0.08896  1.0000
  C   C42       1.0  0.08860  0.33757  0.08647  1.0000
  H   H30       1.0  0.33000  0.32532  0.05564  1.0000
  S   S19       1.0  0.24755  0.17238  0.00379  1.0000
  H   H31       1.0  0.35269  0.37954  0.11334  1.0000
  H   H32       1.0  0.38448  0.39929  0.10269  1.0000
  H   H33       1.0  0.36128  0.41214  0.10521  1.0000
  H   H34       1.0  0.11213  0.35722  0.13273  1.0000
  C   C43       1.0  0.42265  0.47591  0.17106  1.0000
  C   C44       1.0  0.20404  0.29285  0.05032  1.0000
  H   H35       1.0  0.99092  0.27969  0.09227  1.0000
  H   H36       1.0  0.17232  0.01924  0.02442  1.0000
  H   H37       1.0  0.19213  0.05291  0.03308  1.0000
  C   C45       1.0  0.20791  0.28633  0.06945  1.0000
  H   H38       1.0  0.33658  0.40030  0.03844  1.0000
  H   H39       1.0  0.25368  0.40579  0.20710  1.0000
  C   C46       1.0  0.19987  0.41540  0.20033  1.0000
  H   H40       1.0  0.05574  0.48183  0.18508  1.0000
  N   N3        1.0  0.20151  0.02420  0.04600  1.0000
  H   H41       1.0  0.05898  0.20250  0.00641  1.0000
  C   C47       1.0  0.17570  0.24762  0.04212  1.0000
  H   H42       1.0  0.28854  0.43559  0.18719  1.0000
  C   C48       1.0  0.23855  0.45049  0.18658  1.0000
  H   H43       1.0  0.07491  0.46959  0.17171  1.0000
  H   H44       1.0  0.16969  0.21968  0.06494  1.0000
  H   H45       1.0  0.16740  0.02999  0.04855  1.0000
  N   N4        1.0  0.09045  0.33722  0.10657  1.0000
  H   H46       1.0  0.26587  0.03890  0.04360  1.0000
  C   C49       1.0  0.08533  0.46549  0.23730  1.0000
  C   C50       1.0  0.23536  0.13721  0.00065  1.0000
  H   H47       1.0  0.24740  0.46855  0.17832  1.0000
  C   C51       1.0  0.21085  0.99502  0.06604  1.0000
  C   C52       1.0  0.07001  0.31581  0.11746  1.0000
  H   H48       1.0  0.14189  0.39680  0.07882  1.0000
  N   N5        1.0  0.18843  0.27354  0.03685  1.0000
  C   C53       1.0  0.06961  0.46091  0.22023  1.0000
  H   H49       1.0  0.27317  0.13948  0.00797  1.0000
  H   H50       1.0  0.29282  0.46508  0.20031  1.0000
  C   C54       1.0  0.24462  0.09898  0.00071  1.0000
  H   H51       1.0  0.05823  0.32362  0.12551  1.0000
  H   H52       1.0  0.17880  0.40599  0.20271  1.0000
  S   S20       1.0  0.98602  0.26285  0.05158  1.0000
  C   C55       1.0  0.17934  0.24036  0.06105  1.0000
  H   H53       1.0  0.19901  0.25453  0.08940  1.0000
  S   S21       1.0  0.00250  0.26562  0.99310  1.0000
  C   C56       1.0  0.23726  0.00832  0.06108  1.0000
  C   C57       1.0  0.21842  0.08163  0.99520  1.0000
  H   H54       1.0  0.04719  0.44687  0.18484  1.0000
  N   N6        1.0  0.25319  0.43829  0.19227  1.0000
  C   C58       1.0  0.18236  0.03193  0.03767  1.0000
  C   C59       1.0  0.21505  0.40330  0.20635  1.0000
  H   H55       1.0  0.21428  0.31337  0.04609  1.0000
  H   H56       1.0  0.17106  0.28976  0.01702  1.0000
  H   H57       1.0  0.19990  0.44845  0.18540  1.0000
  C   C60       1.0  0.24193  0.41523  0.20234  1.0000
  Fe  Fe11      1.0  0.98186  0.24463  0.02021  1.0000
  H   H58       1.0  0.02374  0.39016  0.23950  1.0000
  H   H59       1.0  0.16293  0.23232  0.03161  1.0000
  C   C61       1.0  0.28137  0.45063  0.18829  1.0000
  C   C62       1.0  0.07638  0.21193  0.99770  1.0000
  H   H60       1.0  0.28539  0.46092  0.17403  1.0000
  H   H61       1.0  0.04863  0.44765  0.22077  1.0000
  H   H62       1.0  0.20409  0.29550  0.01113  1.0000
  H   H63       1.0  0.25118  0.00197  0.06684  1.0000
  H   H64       1.0  0.20598  0.38465  0.21384  1.0000
  C   C63       1.0  0.19309  0.00317  0.05822  1.0000
  C   C64       1.0  0.04457  0.39614  0.24132  1.0000
  C   C65       1.0  0.09777  0.20624  0.00092  1.0000
  H   H65       1.0  0.25851  0.09127  0.00293  1.0000
  H   H66       1.0  0.99565  0.13579  0.99937  1.0000
  H   H67       1.0  0.38177  0.48275  0.20363  1.0000
  H   H68       1.0  0.35119  0.45182  0.24253  1.0000
  S   S22       1.0  0.27462  0.98738  0.03600  1.0000
  S   S23       1.0  0.14696  0.20948  0.99443  1.0000
  C   C66       1.0  0.11246  0.48157  0.23656  1.0000
  H   H69       1.0  0.97705  0.15356  0.00445  1.0000
  C   C67       1.0  0.97900  0.13922  0.99419  1.0000
  C   C68       1.0  0.15391  0.99049  0.47454  1.0000
  H   H70       1.0  0.25250  0.41752  0.30657  1.0000
  H   H71       1.0  0.16802  0.01869  0.43201  1.0000
  C   C69       1.0  0.16764  0.03599  0.46909  1.0000
  H   H72       1.0  0.41307  0.41788  0.35969  1.0000
  H   H73       1.0  0.41637  0.45995  0.37305  1.0000
  Fe  Fe12      1.0  0.99325  0.25939  0.47345  1.0000
  C   C70       1.0  0.23561  0.10596  0.46793  1.0000
  H   H74       1.0  0.18292  0.25606  0.46048  1.0000
  Fe  Fe13      1.0  0.24494  0.25168  0.46805  1.0000
  S   S24       1.0  0.25795  0.26825  0.43701  1.0000
  C   C71       1.0  0.21151  0.31178  0.43482  1.0000
  C   C72       1.0  0.18715  0.39384  0.31490  1.0000
  S   S25       1.0  0.20406  0.21727  0.47110  1.0000
  Fe  Fe14      1.0  0.08748  0.41380  0.31885  1.0000
  S   S26       1.0  0.12134  0.44605  0.33631  1.0000
  S   S27       1.0  0.09917  0.41439  0.28664  1.0000
  Fe  Fe15      1.0  0.05862  0.38822  0.35756  1.0000
  S   S28       1.0  0.09062  0.41942  0.37662  1.0000
  S   S29       1.0  0.02534  0.35061  0.37047  1.0000
  Fe  Fe16      1.0  0.09027  0.44877  0.35459  1.0000
  S   S30       1.0  0.26359  0.23144  0.48616  1.0000
  Fe  Fe17      1.0  0.11854  0.41420  0.35642  1.0000
  S   S31       1.0  0.14887  0.40209  0.36739  1.0000
  S   S32       1.0  0.05608  0.41778  0.33641  1.0000
  S   S33       1.0  0.08669  0.38182  0.33813  1.0000
  Fe  Fe18      1.0  0.34992  0.45088  0.34375  1.0000
  S   S34       1.0  0.33523  0.40654  0.34030  1.0000
  H   H75       1.0  0.15972  0.43450  0.31221  1.0000
  Fe  Fe19      1.0  0.29343  0.44332  0.34501  1.0000
  S   S35       1.0  0.27518  0.39921  0.34144  1.0000
  S   S36       1.0  0.26902  0.46518  0.34504  1.0000
  Fe  Fe20      1.0  0.30588  0.40164  0.36386  1.0000
  S   S37       1.0  0.29616  0.37934  0.39337  1.0000
  Fe  Fe21      1.0  0.30562  0.40768  0.31820  1.0000
  S   S38       1.0  0.29090  0.38600  0.28830  1.0000
  S   S39       1.0  0.32276  0.44611  0.36861  1.0000
  S   S40       1.0  0.32184  0.45170  0.32051  1.0000
  C   C73       1.0  0.18238  0.42046  0.36175  1.0000
  C   C74       1.0  0.19233  0.44564  0.35383  1.0000
  C   C75       1.0  0.21911  0.45947  0.34920  1.0000
  C   C76       1.0  0.23595  0.44806  0.35218  1.0000
  C   C77       1.0  0.22598  0.42294  0.36021  1.0000
  C   C78       1.0  0.19931  0.40926  0.36505  1.0000
  H   H76       1.0  0.17948  0.45457  0.35146  1.0000
  C   C79       1.0  0.23133  0.12788  0.47303  1.0000
  H   H77       1.0  0.23884  0.41413  0.36283  1.0000
  H   H78       1.0  0.19178  0.38986  0.37131  1.0000
  C   C80       1.0  0.26954  0.29965  0.42542  1.0000
  C   C81       1.0  0.27295  0.30085  0.40487  1.0000
  C   C82       1.0  0.28099  0.32485  0.39482  1.0000
  C   C83       1.0  0.28593  0.34824  0.40517  1.0000
  C   C84       1.0  0.28271  0.34709  0.42573  1.0000
  C   C85       1.0  0.27459  0.32308  0.43578  1.0000
  H   H79       1.0  0.26918  0.28299  0.39661  1.0000
  H   H80       1.0  0.28335  0.32519  0.37905  1.0000
  H   H81       1.0  0.28653  0.36497  0.43400  1.0000
  H   H82       1.0  0.27221  0.32269  0.45155  1.0000
  S   S41       1.0  0.01329  0.29720  0.45499  1.0000
  N   N7        1.0  0.18417  0.41542  0.30969  1.0000
  C   C86       1.0  0.20473  0.27399  0.41438  1.0000
  C   C87       1.0  0.09817  0.41162  0.24625  1.0000
  H   H83       1.0  0.00250  0.32696  0.48326  1.0000
  H   H84       1.0  0.38900  0.48061  0.38551  1.0000
  C   C88       1.0  0.36065  0.39358  0.38958  1.0000
  C   C89       1.0  0.02177  0.33649  0.39430  1.0000
  C   C90       1.0  0.00238  0.31014  0.39683  1.0000
  C   C91       1.0  0.99938  0.29776  0.41517  1.0000
  C   C92       1.0  0.01548  0.31174  0.43146  1.0000
  C   C93       1.0  0.03443  0.33830  0.42906  1.0000
  C   C94       1.0  0.03778  0.35049  0.41063  1.0000
  C   C95       1.0  0.38412  0.46639  0.39767  1.0000
  H   H85       1.0  0.04698  0.34947  0.44149  1.0000
  H   H86       1.0  0.05269  0.37077  0.40907  1.0000
  S   S42       1.0  0.39476  0.47763  0.34255  1.0000
  H   H87       1.0  0.23638  0.14387  0.46293  1.0000
  H   H88       1.0  0.34474  0.37501  0.39425  1.0000
  H   H89       1.0  0.29029  0.98765  0.42644  1.0000
  C   C96       1.0  0.20513  0.43754  0.30304  1.0000
  S   S43       1.0  0.23431  0.05718  0.47306  1.0000
  H   H90       1.0  0.21019  0.30227  0.48085  1.0000
  C   C97       1.0  0.30260  0.39906  0.26474  1.0000
  C   C98       1.0  0.32466  0.42369  0.26271  1.0000
  C   C99       1.0  0.19864  0.30666  0.46949  1.0000
  H   H91       1.0  0.33490  0.43543  0.27572  1.0000
  C   C100      1.0  0.05607  0.40022  0.26049  1.0000
  C   C101      1.0  0.08301  0.40807  0.26305  1.0000
  C   C102      1.0  0.37876  0.39356  0.37617  1.0000
  H   H92       1.0  0.04411  0.39733  0.27325  1.0000
  H   H93       1.0  0.37697  0.37496  0.37029  1.0000
  H   H94       1.0  0.14731  0.40319  0.32347  1.0000
  S   S44       1.0  0.98580  0.21731  0.46709  1.0000
  C   C103      1.0  0.15814  0.41438  0.31055  1.0000
  H   H95       1.0  0.24687  0.45658  0.29747  1.0000
  C   C104      1.0  0.28962  0.38408  0.24757  1.0000
  H   H96       1.0  0.22316  0.31419  0.40455  1.0000
  H   H97       1.0  0.18731  0.23658  0.42884  1.0000
  C   C105      1.0  0.22997  0.43861  0.30182  1.0000
  H   H98       1.0  0.20744  0.26570  0.40064  1.0000
  H   H99       1.0  0.17063  0.37646  0.32042  1.0000
  C   C106      1.0  0.22939  0.08485  0.48082  1.0000
  H   H100      1.0  0.21934  0.33306  0.43656  1.0000
  N   N8        1.0  0.38221  0.44118  0.39035  1.0000
  C   C107      1.0  0.36266  0.41771  0.39657  1.0000
  H   H101      1.0  0.39968  0.47510  0.40946  1.0000
  H   H102      1.0  0.17726  0.05321  0.46003  1.0000
  H   H103      1.0  0.36512  0.46381  0.40356  1.0000
  C   C108      1.0  0.23320  0.41673  0.30713  1.0000
  C   C109      1.0  0.21169  0.39417  0.31372  1.0000
  Fe  Fe22      1.0  0.23118  0.01803  0.48534  1.0000
  H   H104      1.0  0.34815  0.41746  0.40673  1.0000
  N   N9        1.0  0.16502  0.01195  0.46276  1.0000
  C   C110      1.0  0.40063  0.44134  0.37776  1.0000
  H   H105      1.0  0.06788  0.30337  0.43175  1.0000
  H   H106      1.0  0.19701  0.02015  0.44418  1.0000
  H   H107      1.0  0.14626  0.40473  0.29692  1.0000
  N   N10       1.0  0.06915  0.32056  0.38419  1.0000
  C   C111      1.0  0.09041  0.34522  0.38529  1.0000
  C   C112      1.0  0.06146  0.30538  0.40052  1.0000
  C   C113      1.0  0.10411  0.35561  0.40318  1.0000
  C   C114      1.0  0.07474  0.31511  0.41868  1.0000
  C   C115      1.0  0.09611  0.34046  0.41999  1.0000
  C   C116      1.0  0.05513  0.30985  0.36527  1.0000
  H   H108      1.0  0.09677  0.35718  0.37235  1.0000
  H   H109      1.0  0.04445  0.28593  0.39972  1.0000
  H   H110      1.0  0.12071  0.37539  0.40391  1.0000
  H   H111      1.0  0.98460  0.27741  0.41667  1.0000
  H   H112      1.0  0.10625  0.34848  0.43404  1.0000
  H   H113      1.0  0.03360  0.29805  0.36738  1.0000
  H   H114      1.0  0.05737  0.32600  0.35530  1.0000
  H   H115      1.0  0.06275  0.29731  0.35800  1.0000
  H   H116      1.0  0.27263  0.36493  0.24895  1.0000
  H   H117      1.0  0.17776  0.29749  0.47399  1.0000
  H   H118      1.0  0.20626  0.32846  0.46934  1.0000
  N   N11       1.0  0.20052  0.29559  0.45031  1.0000
  H   H119      1.0  0.21424  0.37733  0.31828  1.0000
  H   H120      1.0  0.24381  0.10538  0.45383  1.0000
  H   H121      1.0  0.20290  0.45479  0.29919  1.0000
  H   H122      1.0  0.16865  0.98870  0.43897  1.0000
  C   C117      1.0  0.19351  0.25765  0.43022  1.0000
  C   C118      1.0  0.21359  0.30121  0.41659  1.0000
  C   C119      1.0  0.19144  0.26884  0.44816  1.0000
  C   C120      1.0  0.17509  0.00969  0.44352  1.0000
  C   C121      1.0  0.39898  0.41758  0.37025  1.0000
  H   H123      1.0  0.22677  0.47901  0.34315  1.0000
  H   H124      1.0  0.98969  0.29909  0.38441  1.0000
  H   H125      1.0  0.31096  0.16527  0.47980  1.0000
  H   H126      1.0  0.04063  0.47866  0.38384  1.0000
  H   H127      1.0  0.11899  0.41762  0.24802  1.0000
  H   H128      1.0  0.12485  0.48469  0.24964  1.0000
  C   C122      1.0  0.33386  0.43293  0.24382  1.0000
  Fe  Fe23      1.0  0.22287  0.19907  0.49151  1.0000
  H   H129      1.0  0.07661  0.45597  0.25088  1.0000
  H   H130      1.0  0.32362  0.21290  0.48645  1.0000
  S   S45       1.0  0.26749  0.01195  0.48970  1.0000
  C   C123      1.0  0.22027  0.12889  0.49104  1.0000
  C   C124      1.0  0.98519  0.32006  0.49219  1.0000
  C   C125      1.0  0.15875  0.03894  0.48755  1.0000
  C   C126      1.0  0.30275  0.17110  0.49208  1.0000
  H   H131      1.0  0.16117  0.05816  0.49256  1.0000
  H   H132      1.0  0.09089  0.24407  0.54020  1.0000
  H   H133      1.0  0.07520  0.18219  0.49480  1.0000
  C   C127      1.0  0.36000  0.33074  0.69728  1.0000
  C   C128      1.0  0.26802  0.19372  0.53845  1.0000
  H   H134      1.0  0.32835  0.27960  0.63845  1.0000
  Fe  Fe24      1.0  0.42062  0.33173  0.67390  1.0000
  S   S46       1.0  0.45071  0.31904  0.66518  1.0000
  S   S47       1.0  0.42513  0.35063  0.70470  1.0000
  Fe  Fe25      1.0  0.39625  0.32199  0.63096  1.0000
  S   S48       1.0  0.42579  0.30963  0.61978  1.0000
  S   S49       1.0  0.36221  0.32354  0.61317  1.0000
  Fe  Fe26      1.0  0.41790  0.28631  0.64750  1.0000
  S   S50       1.0  0.40317  0.24201  0.64950  1.0000
  Fe  Fe27      1.0  0.45614  0.34401  0.63857  1.0000
  C   C129      1.0  0.02637  0.21157  0.54964  1.0000
  S   S51       1.0  0.38713  0.29734  0.65806  1.0000
  S   S52       1.0  0.42720  0.35805  0.64790  1.0000
  Fe  Fe28      1.0  0.40298  0.08059  0.62405  1.0000
  S   S53       1.0  0.44656  0.10550  0.61918  1.0000
  S   S54       1.0  0.37769  0.07207  0.59516  1.0000
  Fe  Fe29      1.0  0.41314  0.08766  0.66969  1.0000
  S   S55       1.0  0.45677  0.11305  0.66728  1.0000
  S   S56       1.0  0.39315  0.08282  0.69932  1.0000
  Fe  Fe30      1.0  0.44572  0.13283  0.64308  1.0000
  H   H135      1.0  0.00812  0.33233  0.51951  1.0000
  Fe  Fe31      1.0  0.45405  0.08363  0.64369  1.0000
  C   C130      1.0  0.32913  0.28982  0.68094  1.0000
  S   S57       1.0  0.40224  0.10952  0.64677  1.0000
  S   S58       1.0  0.41039  0.05648  0.64732  1.0000
  S   S59       1.0  0.21748  0.22011  0.51832  1.0000
  H   H136      1.0  0.29708  0.27146  0.64957  1.0000
  Fe  Fe32      1.0  0.25839  0.25254  0.51289  1.0000
  S   S60       1.0  0.29302  0.26225  0.53525  1.0000
  H   H137      1.0  0.31312  0.30074  0.63548  1.0000
  C   C131      1.0  0.34308  0.30593  0.59158  1.0000
  C   C132      1.0  0.32210  0.31059  0.58505  1.0000
  C   C133      1.0  0.30651  0.29740  0.56805  1.0000
  C   C134      1.0  0.31171  0.27934  0.55714  1.0000
  C   C135      1.0  0.33258  0.27454  0.56375  1.0000
  C   C136      1.0  0.34808  0.28762  0.58083  1.0000
  H   H138      1.0  0.31797  0.32472  0.59311  1.0000
  H   H139      1.0  0.29064  0.30144  0.56326  1.0000
  H   H140      1.0  0.33698  0.26073  0.55552  1.0000
  H   H141      1.0  0.36412  0.28378  0.58551  1.0000
  C   C137      1.0  0.42295  0.22577  0.64874  1.0000
  C   C138      1.0  0.44838  0.23775  0.64138  1.0000
  C   C139      1.0  0.46220  0.22291  0.63901  1.0000
  C   C140      1.0  0.45067  0.19610  0.64398  1.0000
  C   C141      1.0  0.42563  0.18449  0.65194  1.0000
  C   C142      1.0  0.41184  0.19926  0.65429  1.0000
  H   H142      1.0  0.45710  0.25819  0.63706  1.0000
  H   H143      1.0  0.37594  0.36472  0.67888  1.0000
  H   H144      1.0  0.41670  0.16405  0.65611  1.0000
  H   H145      1.0  0.39223  0.18991  0.66008  1.0000
  H   H146      1.0  0.13505  0.27843  0.50054  1.0000
  C   C143      1.0  0.14754  0.01720  0.49969  1.0000
  C   C144      1.0  0.28472  0.15190  0.50407  1.0000
  H   H147      1.0  0.33186  0.99524  0.50586  1.0000
  H   H148      1.0  0.28321  0.20937  0.54827  1.0000
  N   N12       1.0  0.33100  0.30288  0.66385  1.0000
  C   C145      1.0  0.34345  0.30357  0.69794  1.0000
  H   H149      1.0  0.35691  0.07452  0.55673  1.0000
  C   C146      1.0  0.29943  0.01725  0.56069  1.0000
  C   C147      1.0  0.31865  0.04039  0.55253  1.0000
  C   C148      1.0  0.34232  0.05672  0.56327  1.0000
  C   C149      1.0  0.34727  0.05035  0.58236  1.0000
  C   C150      1.0  0.32806  0.02719  0.59050  1.0000
  C   C151      1.0  0.30442  0.01082  0.57973  1.0000
  H   H150      1.0  0.33138  0.02188  0.60511  1.0000
  S   S61       1.0  0.16838  0.25290  0.50073  1.0000
  C   C152      1.0  0.41510  0.06141  0.72589  1.0000
  C   C153      1.0  0.40476  0.07910  0.72297  1.0000
  C   C154      1.0  0.37042  0.15457  0.61227  1.0000
  H   H151      1.0  0.41925  0.05223  0.71330  1.0000
  S   S62       1.0  0.01844  0.26431  0.50075  1.0000
  C   C155      1.0  0.39867  0.30746  0.72874  1.0000
  C   C156      1.0  0.41598  0.33453  0.72764  1.0000
  C   C157      1.0  0.31691  0.99047  0.51735  1.0000
  H   H152      1.0  0.39143  0.29544  0.71535  1.0000
  H   H153      1.0  0.42643  0.20970  0.60196  1.0000
  H   H154      1.0  0.08221  0.28255  0.54398  1.0000
  H   H155      1.0  0.31526  0.04582  0.53797  1.0000
  H   H156      1.0  0.39093  0.10402  0.73751  1.0000
  S   S63       1.0  0.46715  0.17716  0.63880  1.0000
  C   C158      1.0  0.34758  0.32948  0.66300  1.0000
  C   C159      1.0  0.44742  0.17825  0.59166  1.0000
  H   H157      1.0  0.03705  0.27540  0.55175  1.0000
  H   H158      1.0  0.25888  0.14450  0.52821  1.0000
  H   H159      1.0  0.34985  0.33971  0.64928  1.0000
  H   H160      1.0  0.35095  0.14855  0.61794  1.0000
  C   C160      1.0  0.09443  0.24810  0.49794  1.0000
  C   C161      1.0  0.31660  0.28787  0.64603  1.0000
  C   C162      1.0  0.08817  0.20329  0.49592  1.0000
  H   H161      1.0  0.34223  0.29321  0.71145  1.0000
  C   C163      1.0  0.29854  0.20479  0.51141  1.0000
  H   H162      1.0  0.37155  0.34157  0.71028  1.0000
  S   S64       1.0  0.26924  0.99526  0.54775  1.0000
  C   C164      1.0  0.07123  0.24081  0.54372  1.0000
  Fe  Fe33      1.0  0.20159  0.24041  0.49754  1.0000
  H   H163      1.0  0.31684  0.26857  0.68141  1.0000
  H   H164      1.0  0.07636  0.19852  0.53782  1.0000
  C   C165      1.0  0.12208  0.25737  0.49913  1.0000
  H   H165      1.0  0.01043  0.19161  0.55070  1.0000
  H   H166      1.0  0.20540  0.10812  0.51788  1.0000
  H   H167      1.0  0.25555  0.20181  0.53170  1.0000
  C   C166      1.0  0.02104  0.23302  0.55223  1.0000
  C   C167      1.0  0.38766  0.18135  0.61003  1.0000
  C   C168      1.0  0.21393  0.10770  0.50389  1.0000
  H   H168      1.0  0.98500  0.29682  0.58408  1.0000
  H   H169      1.0  0.37216  0.02283  0.69604  1.0000
  C   C169      1.0  0.06647  0.26269  0.54586  1.0000
  C   C170      1.0  0.04120  0.25870  0.55019  1.0000
  H   H170      1.0  0.27867  0.13106  0.50111  1.0000
  H   H171      1.0  0.44729  0.17973  0.57541  1.0000
  H   H172      1.0  0.05398  0.18277  0.55740  1.0000
  H   H173      1.0  0.46177  0.19763  0.59849  1.0000
  C   C171      1.0  0.35119  0.01694  0.69910  1.0000
  Fe  Fe34      1.0  0.98097  0.24828  0.51782  1.0000
  C   C172      1.0  0.36233  0.34378  0.67968  1.0000
  S   S65       1.0  0.24251  0.27501  0.49421  1.0000
  H   H174      1.0  0.25519  0.17685  0.54757  1.0000
  N   N13       1.0  0.42092  0.17009  0.59895  1.0000
  C   C173      1.0  0.41294  0.18880  0.60319  1.0000
  C   C174      1.0  0.40394  0.14376  0.60069  1.0000
  N   N14       1.0  0.34844  0.02088  0.72015  1.0000
  C   C175      1.0  0.37848  0.13559  0.60741  1.0000
  S   S66       1.0  0.21274  0.99920  0.51369  1.0000
  H   H175      1.0  0.45467  0.16391  0.59583  1.0000
  C   C176      1.0  0.33997  0.03857  0.72637  1.0000
  H   H176      1.0  0.41012  0.12888  0.59711  1.0000
  S   S67       1.0  0.04185  0.20761  0.49693  1.0000
  H   H177      1.0  0.36529  0.11465  0.60904  1.0000
  S   S68       1.0  0.21447  0.15609  0.49861  1.0000
  H   H178      1.0  0.30388  0.22552  0.51408  1.0000
  N   N15       1.0  0.28053  0.18580  0.52289  1.0000
  C   C177      1.0  0.05624  0.19274  0.54316  1.0000
  C   C178      1.0  0.27363  0.15964  0.51945  1.0000
  N   N16       1.0  0.05123  0.21564  0.54548  1.0000
  H   H179      1.0  0.97741  0.37067  0.69646  1.0000
  S   S69       1.0  0.98254  0.26923  0.54753  1.0000
  H   H180      1.0  0.00127  0.22978  0.55542  1.0000
  H   H181      1.0  0.33873  0.99591  0.69448  1.0000
  C   C179      1.0  0.39916  0.09052  0.73957  1.0000
  H   H182      1.0  0.04218  0.17847  0.53196  1.0000
  H   H183      1.0  0.38189  0.19639  0.61421  1.0000
  C   C180      1.0  0.21876  0.08609  0.49898  1.0000
  C   C181      1.0  0.13311  0.23975  0.49859  1.0000
  H   H184      1.0  0.33579  0.05032  0.71581  1.0000
  H   H185      1.0  0.34546  0.02947  0.68983  1.0000
  H   H186      1.0  0.12373  0.19862  0.49640  1.0000
  H   H187      1.0  0.21387  0.07017  0.50913  1.0000
  Fe  Fe35      1.0  0.01026  0.22234  0.49500  1.0000
  H   H188      1.0  0.08649  0.26202  0.49844  1.0000
  H   H189      1.0  0.36252  0.99373  0.72864  1.0000
  Fe  Fe36      1.0  0.24828  0.99192  0.51756  1.0000
  H   H190      1.0  0.14102  0.01929  0.51420  1.0000
  C   C182      1.0  0.11583  0.21257  0.49682  1.0000
  H   H191      1.0  0.32748  0.99586  0.53193  1.0000
  C   C183      1.0  0.07714  0.22089  0.49652  1.0000
  C   C184      1.0  0.35508  0.00715  0.73354  1.0000
  H   H192      1.0  0.28981  0.99305  0.58630  1.0000
  C   C185      1.0  0.30982  0.19776  0.49578  1.0000
  C   C186      1.0  0.98854  0.32331  0.51267  1.0000
  H   H193      1.0  0.30683  0.00292  0.51540  1.0000
  C   C187      1.0  0.14505  0.99279  0.49317  1.0000
  C   C188      1.0  0.45195  0.35850  0.91862  1.0000
  H   H194      1.0  0.46279  0.05443  0.80325  1.0000
  H   H195      1.0  0.40132  0.39181  0.89273  1.0000
  S   S70       1.0  0.05027  0.23619  0.97725  1.0000
  H   H196      1.0  0.28481  0.01980  0.89281  1.0000
  H   H197      1.0  0.34456  0.03295  0.77589  1.0000
  Fe  Fe37      1.0  0.44680  0.35420  0.84551  1.0000
  S   S71       1.0  0.40328  0.34083  0.83992  1.0000
  H   H198      1.0  0.37635  0.27521  0.74787  1.0000
  Fe  Fe38      1.0  0.43736  0.29670  0.84739  1.0000
  S   S72       1.0  0.39383  0.27976  0.84187  1.0000
  S   S73       1.0  0.45883  0.27200  0.85092  1.0000
  Fe  Fe39      1.0  0.40516  0.31084  0.81858  1.0000
  S   S74       1.0  0.38683  0.29620  0.78769  1.0000
  Fe  Fe40      1.0  0.39556  0.31086  0.86372  1.0000
  S   S75       1.0  0.37274  0.30464  0.89271  1.0000
  S   S76       1.0  0.44867  0.32583  0.82297  1.0000
  S   S77       1.0  0.43920  0.32636  0.87042  1.0000
  Fe  Fe41      1.0  0.41311  0.11896  0.83671  1.0000
  S   S78       1.0  0.38225  0.07644  0.83214  1.0000
  S   S79       1.0  0.39624  0.14784  0.83477  1.0000
  Fe  Fe42      1.0  0.45728  0.10348  0.84469  1.0000
  S   S80       1.0  0.42899  0.06020  0.84153  1.0000
  Fe  Fe43      1.0  0.41334  0.07212  0.81469  1.0000
  S   S81       1.0  0.41084  0.05100  0.78516  1.0000
  Fe  Fe44      1.0  0.40058  0.06897  0.85939  1.0000
  S   S82       1.0  0.38082  0.04856  0.88805  1.0000
  S   S83       1.0  0.44257  0.11508  0.81738  1.0000
  S   S84       1.0  0.43050  0.11182  0.86436  1.0000
  H   H199      1.0  0.30187  0.20859  0.94889  1.0000
  H   H200      1.0  0.38489  0.15163  0.87521  1.0000
  Fe  Fe45      1.0  0.24330  0.24423  0.96542  1.0000
  S   S85       1.0  0.25963  0.25310  0.93396  1.0000
  C   C189      1.0  0.42915  0.21868  0.79775  1.0000
  C   C190      1.0  0.39034  0.23460  0.79393  1.0000
  S   S86       1.0  0.21018  0.20312  0.97062  1.0000
  C   C191      1.0  0.40032  0.37199  0.89417  1.0000
  S   S87       1.0  0.26360  0.02258  0.99041  1.0000
  C   C192      1.0  0.39020  0.29602  0.74723  1.0000
  H   H201      1.0  0.42222  0.27406  0.79652  1.0000
  S   S88       1.0  0.22241  0.26368  0.98184  1.0000
  H   H202      1.0  0.02409  0.17549  0.98000  1.0000
  Fe  Fe46      1.0  0.25224  0.99513  0.96364  1.0000
  H   H203      1.0  0.10189  0.25528  0.96091  1.0000
  H   H204      1.0  0.23739  0.11471  0.95694  1.0000
  H   H205      1.0  0.44413  0.21222  0.79957  1.0000
  N   N17       1.0  0.26156  0.18058  0.95060  1.0000
  C   C193      1.0  0.41691  0.25316  0.79631  1.0000
  H   H206      1.0  0.13967  0.24585  0.96706  1.0000
  C   C194      1.0  0.41162  0.06472  0.76168  1.0000
  H   H207      1.0  0.28036  0.22283  0.95410  1.0000
  C   C195      1.0  0.40295  0.08372  0.75883  1.0000
  H   H208      1.0  0.40988  0.34192  0.91968  1.0000
  H   H209      1.0  0.39768  0.09203  0.77138  1.0000
  C   C196      1.0  0.39939  0.31128  0.76486  1.0000
  C   C197      1.0  0.24257  0.18032  0.93794  1.0000
  C   C198      1.0  0.41729  0.33818  0.76376  1.0000
  H   H210      1.0  0.28793  0.20591  0.97307  1.0000
  H   H211      1.0  0.42436  0.35024  0.77715  1.0000
  C   C199      1.0  0.34097  0.28943  0.90377  1.0000
  C   C200      1.0  0.33963  0.29016  0.92449  1.0000
  C   C201      1.0  0.31514  0.27898  0.93399  1.0000
  C   C202      1.0  0.29140  0.26708  0.92291  1.0000
  C   C203      1.0  0.29276  0.26628  0.90221  1.0000
  C   C204      1.0  0.31724  0.27722  0.89271  1.0000
  H   H212      1.0  0.35769  0.29947  0.93330  1.0000
  H   H213      1.0  0.31465  0.27994  0.94987  1.0000
  H   H214      1.0  0.27467  0.25724  0.89338  1.0000
  H   H215      1.0  0.31770  0.27647  0.87682  1.0000
  C   C205      1.0  0.44123  0.23716  0.84811  1.0000
  C   C206      1.0  0.45507  0.22225  0.84709  1.0000
  C   C207      1.0  0.44156  0.19465  0.84351  1.0000
  C   C208      1.0  0.41413  0.18187  0.84099  1.0000
  C   C209      1.0  0.40029  0.19664  0.84266  1.0000
  C   C210      1.0  0.41377  0.22416  0.84614  1.0000
  C   C211      1.0  0.12225  0.23640  0.97575  1.0000
  H   H216      1.0  0.45239  0.18339  0.84231  1.0000
  H   H217      1.0  0.37905  0.18687  0.84083  1.0000
  H   H218      1.0  0.40286  0.23527  0.84713  1.0000
  Fe  Fe47      1.0  0.19142  0.22291  0.98937  1.0000
  H   H219      1.0  0.32514  0.01847  0.94631  1.0000
  H   H220      1.0  0.24386  0.19868  0.93256  1.0000
  H   H221      1.0  0.39385  0.36098  0.87980  1.0000
  H   H222      1.0  0.42967  0.18474  0.88616  1.0000
  C   C212      1.0  0.42759  0.35716  0.91341  1.0000
  C   C213      1.0  0.30186  0.01798  0.92096  1.0000
  C   C214      1.0  0.30276  0.02321  0.90068  1.0000
  C   C215      1.0  0.32656  0.03268  0.89040  1.0000
  C   C216      1.0  0.34999  0.03691  0.90020  1.0000
  C   C217      1.0  0.34909  0.03165  0.92046  1.0000
  C   C218      1.0  0.32532  0.02242  0.93079  1.0000
  C   C219      1.0  0.46365  0.26477  0.80073  1.0000
  H   H223      1.0  0.32665  0.03627  0.87481  1.0000
  H   H224      1.0  0.36695  0.03466  0.92827  1.0000
  H   H225      1.0  0.20554  0.15641  0.92243  1.0000
  C   C220      1.0  0.28410  0.20570  0.95694  1.0000
  S   S89       1.0  0.21025  0.98878  0.96301  1.0000
  H   H226      1.0  0.42482  0.03926  0.74714  1.0000
  C   C221      1.0  0.12091  0.21833  0.98998  1.0000
  C   C222      1.0  0.00778  0.16833  0.96932  1.0000
  H   H227      1.0  0.27505  0.15758  0.96722  1.0000
  C   C223      1.0  0.21895  0.13263  0.93890  1.0000
  C   C224      1.0  0.01217  0.17912  0.95060  1.0000
  C   C225      1.0  0.26011  0.15735  0.95705  1.0000
  H   H228      1.0  0.37540  0.24121  0.79250  1.0000
  C   C226      1.0  0.38326  0.20765  0.79352  1.0000
  H   H229      1.0  0.38495  0.36086  0.90496  1.0000
  Fe  Fe48      1.0  0.22145  0.01511  0.99038  1.0000
  C   C227      1.0  0.34483  0.02899  0.76022  1.0000
  C   C228      1.0  0.40277  0.19957  0.79530  1.0000
  H   H230      1.0  0.36270  0.19305  0.79196  1.0000
  N   N18       1.0  0.38474  0.12112  0.89308  1.0000
  C   C229      1.0  0.39849  0.11415  0.90640  1.0000
  C   C230      1.0  0.39561  0.14619  0.88599  1.0000
  C   C231      1.0  0.42392  0.13249  0.91287  1.0000
  C   C232      1.0  0.42098  0.16504  0.89214  1.0000
  C   C233      1.0  0.43523  0.15806  0.90562  1.0000
  C   C234      1.0  0.35892  0.10102  0.88551  1.0000
  H   H231      1.0  0.39007  0.09410  0.91171  1.0000
  N   N19       1.0  0.42604  0.37435  0.90025  1.0000
  H   H232      1.0  0.43496  0.12662  0.92306  1.0000
  H   H233      1.0  0.47245  0.08239  0.78760  1.0000
  C   C235      1.0  0.44831  0.39294  0.89188  1.0000
  H   H234      1.0  0.36164  0.08755  0.87482  1.0000
  H   H235      1.0  0.34679  0.08909  0.89772  1.0000
  H   H236      1.0  0.34778  0.10998  0.87789  1.0000
  C   C236      1.0  0.22086  0.15640  0.93206  1.0000
  N   N20       1.0  0.43586  0.24507  0.79850  1.0000
  H   H237      1.0  0.20205  0.11393  0.93473  1.0000
  C   C237      1.0  0.23882  0.13304  0.95131  1.0000
  H   H238      1.0  0.99421  0.17977  0.92262  1.0000
  C   C238      1.0  0.10064  0.24167  0.97225  1.0000
  H   H239      1.0  0.47457  0.25755  0.81055  1.0000
  C   C239      1.0  0.99116  0.17096  0.93699  1.0000
  H   H240      1.0  0.39747  0.17864  0.79543  1.0000
  H   H241      1.0  0.43848  0.37073  0.74461  1.0000
  S   S90       1.0  0.26738  0.24499  0.99209  1.0000
  C   C240      1.0  0.07744  0.22949  0.98312  1.0000
  H   H242      1.0  0.03164  0.19436  0.94694  1.0000
  S   S91       1.0  0.27080  0.00525  0.93288  1.0000
  C   C241      1.0  0.41818  0.05404  0.74513  1.0000
  C   C242      1.0  0.35342  0.01101  0.75376  1.0000
  H   H243      1.0  0.45514  0.17232  0.91020  1.0000
  H   H244      1.0  0.18049  0.07929  0.98822  1.0000
  H   H245      1.0  0.45297  0.34444  0.92871  1.0000
  N   N21       1.0  0.98323  0.14955  0.97424  1.0000
  H   H246      1.0  0.35986  0.00106  0.76441  1.0000
  H   H247      1.0  0.33210  0.05749  0.75136  1.0000
  Fe  Fe49      1.0  0.00932  0.22974  0.98779  1.0000
  H   H248      1.0  0.98110  0.40411  0.86778  1.0000
  H   H249      1.0  0.44706  0.40600  0.88093  1.0000
  C   C243      1.0  0.33793  0.04280  0.74647  1.0000
  S   S92       1.0  0.47386  0.39913  0.84614  1.0000
  C   C244      1.0  0.47302  0.39502  0.89691  1.0000
  H   H250      1.0  0.46575  0.28339  0.80787  1.0000
  H   H251      1.0  0.47603  0.08698  0.81408  1.0000
  C   C245      1.0  0.42525  0.34976  0.74526  1.0000
  H   H252      1.0  0.47282  0.26924  0.78612  1.0000
  H   H253      1.0  0.97757  0.28261  0.92638  1.0000
  C   C246      1.0  0.47479  0.37759  0.91029  1.0000
  S   S93       1.0  0.20628  0.04646  0.99216  1.0000
  C   C247      1.0  0.20083  0.09237  0.99242  1.0000
  H   H254      1.0  0.19538  0.12765  0.99262  1.0000
  H   H255      1.0  0.47634  0.23217  0.84871  1.0000
  N   N22       1.0  0.35059  0.91108  0.07516  1.0000
  C   C248      1.0  0.46853  0.50586  0.16349  1.0000
  H   H256      1.0  0.04243  0.79309  0.03984  1.0000
  H   H257      1.0  0.31275  0.88024  0.06717  1.0000
  Fe  Fe50      1.0  0.99190  0.72274  0.01726  1.0000
  S   S94       1.0  0.99413  0.70422  0.04692  1.0000
  Fe  Fe51      1.0  0.30254  0.87955  0.16458  1.0000
  S   S95       1.0  0.31969  0.85151  0.16009  1.0000
  S   S96       1.0  0.28537  0.88390  0.19378  1.0000
  Fe  Fe52      1.0  0.30325  0.89168  0.11960  1.0000
  S   S97       1.0  0.32151  0.86494  0.11287  1.0000
  S   S98       1.0  0.28645  0.90353  0.09243  1.0000
  Fe  Fe53      1.0  0.29216  0.83642  0.13348  1.0000
  S   S99       1.0  0.26582  0.79474  0.12167  1.0000
  Fe  Fe54      1.0  0.34758  0.88254  0.13994  1.0000
  S   S100      1.0  0.39257  0.89971  0.14308  1.0000
  S   S101      1.0  0.27312  0.86221  0.13917  1.0000
  S   S102      1.0  0.33148  0.91166  0.14556  1.0000
  Fe  Fe55      1.0  0.07728  0.66066  0.17459  1.0000
  S   S103      1.0  0.10695  0.64562  0.17691  1.0000
  S   S104      1.0  0.05267  0.66127  0.20039  1.0000
  Fe  Fe56      1.0  0.08573  0.67189  0.12982  1.0000
  S   S105      1.0  0.11669  0.65755  0.12957  1.0000
  S   S106      1.0  0.08031  0.68928  0.10043  1.0000
  Fe  Fe57      1.0  0.08940  0.62378  0.14816  1.0000
  S   S107      1.0  0.07296  0.57893  0.14273  1.0000
  Fe  Fe58      1.0  0.13168  0.68056  0.15833  1.0000
  S   S108      1.0  0.17298  0.70814  0.17018  1.0000
  S   S109      1.0  0.05762  0.63677  0.14670  1.0000
  S   S110      1.0  0.10273  0.69688  0.15764  1.0000
  C   C249      1.0  0.41279  0.50152  0.12754  1.0000
  C   C250      1.0  0.40682  0.51385  0.14321  1.0000
  C   C251      1.0  0.42597  0.53857  0.15094  1.0000
  C   C252      1.0  0.45125  0.55141  0.14307  1.0000
  C   C253      1.0  0.45674  0.53980  0.12666  1.0000
  C   C254      1.0  0.43760  0.51495  0.11898  1.0000
  H   H258      1.0  0.38777  0.50395  0.14983  1.0000
  H   H259      1.0  0.42148  0.54738  0.16359  1.0000
  C   C255      1.0  0.09831  0.86524  0.00561  1.0000
  C   C256      1.0  0.05807  0.66711  0.22634  1.0000
  C   C257      1.0  0.28561  0.88970  0.23419  1.0000
  C   C258      1.0  0.02861  0.76269  0.07066  1.0000
  S   S111      1.0  0.02260  0.73639  0.99401  1.0000
  C   C259      1.0  0.37254  0.94477  0.10041  1.0000
  C   C260      1.0  0.08655  0.55648  0.14460  1.0000
  C   C261      1.0  0.11339  0.56498  0.14843  1.0000
  C   C262      1.0  0.12324  0.54639  0.14909  1.0000
  C   C263      1.0  0.10645  0.51908  0.14606  1.0000
  C   C264      1.0  0.07957  0.51057  0.14239  1.0000
  C   C265      1.0  0.06975  0.52917  0.14161  1.0000
  H   H260      1.0  0.12662  0.58588  0.15071  1.0000
  H   H261      1.0  0.14409  0.55326  0.15187  1.0000
  N   N23       1.0  0.07343  0.60176  0.09370  1.0000
  H   H262      1.0  0.04896  0.52233  0.13857  1.0000
  C   C266      1.0  0.29919  0.88687  0.21800  1.0000
  C   C267      1.0  0.32322  0.88661  0.22152  1.0000
  C   C268      1.0  0.35296  0.93285  0.08563  1.0000
  H   H263      1.0  0.33399  0.88460  0.20926  1.0000
  H   H264      1.0  0.26721  0.89035  0.23163  1.0000
  C   C269      1.0  0.45260  0.86995  0.12695  1.0000
  C   C270      1.0  0.46069  0.89456  0.13649  1.0000
  C   C271      1.0  0.44210  0.90352  0.14084  1.0000
  C   C272      1.0  0.41518  0.88802  0.13585  1.0000
  C   C273      1.0  0.40715  0.86371  0.12586  1.0000
  C   C274      1.0  0.42579  0.85481  0.12140  1.0000
  C   C275      1.0  0.07326  0.77104  0.07072  1.0000
  H   H265      1.0  0.44860  0.92247  0.14841  1.0000
  H   H266      1.0  0.38655  0.85156  0.12185  1.0000
  H   H267      1.0  0.41931  0.83580  0.11392  1.0000
  C   C276      1.0  0.24013  0.77083  0.13532  1.0000
  C   C277      1.0  0.21830  0.75043  0.12528  1.0000
  C   C278      1.0  0.19746  0.73109  0.13572  1.0000
  C   C279      1.0  0.19866  0.73170  0.15630  1.0000
  C   C280      1.0  0.22073  0.75183  0.16632  1.0000
  C   C281      1.0  0.24126  0.77149  0.15590  1.0000
  H   H268      1.0  0.21745  0.74966  0.10934  1.0000
  H   H269      1.0  0.18065  0.71557  0.12786  1.0000
  H   H270      1.0  0.22189  0.75224  0.18225  1.0000
  H   H271      1.0  0.25825  0.78677  0.16374  1.0000
  C   C282      1.0  0.01807  0.69886  0.06093  1.0000
  C   C283      1.0  0.04381  0.70706  0.05472  1.0000
  C   C284      1.0  0.06234  0.70368  0.06689  1.0000
  C   C285      1.0  0.05557  0.69210  0.08548  1.0000
  C   C286      1.0  0.02973  0.68353  0.09156  1.0000
  C   C287      1.0  0.01119  0.68687  0.07938  1.0000
  H   H272      1.0  0.04950  0.71616  0.04059  1.0000
  H   H273      1.0  0.08215  0.71025  0.06187  1.0000
  H   H274      1.0  0.02403  0.67456  0.10574  1.0000
  H   H275      1.0  0.99138  0.68037  0.08440  1.0000
  H   H276      1.0  0.06940  0.61493  0.22068  1.0000
  C   C288      1.0  0.39476  0.84740  0.17476  1.0000
  S   S112      1.0  0.47483  0.85672  0.12249  1.0000
  H   H277      1.0  0.24796  0.82397  0.17400  1.0000
  C   C289      1.0  0.27705  0.96348  0.05158  1.0000
  C   C290      1.0  0.29348  0.97242  0.06868  1.0000
  C   C291      1.0  0.29628  0.95448  0.08146  1.0000
  C   C292      1.0  0.28282  0.92718  0.07728  1.0000
  H   H278      1.0  0.33936  0.94084  0.08286  1.0000
  C   C293      1.0  0.04653  0.74980  0.09842  1.0000
  H   H279      1.0  0.46352  0.49763  0.14815  1.0000
  H   H280      1.0  0.30886  0.96181  0.09455  1.0000
  C   C294      1.0  0.26343  0.93617  0.04747  1.0000
  C   C295      1.0  0.43790  0.88038  0.18623  1.0000
  H   H281      1.0  0.25070  0.92885  0.03445  1.0000
  H   H282      1.0  0.20418  0.97822  0.07561  1.0000
  C   C296      1.0  0.36731  0.90058  0.07910  1.0000
  H   H283      1.0  0.04889  0.76676  0.03085  1.0000
  C   C297      1.0  0.07941  0.66721  0.23709  1.0000
  N   N24       1.0  0.05243  0.77263  0.06181  1.0000
  C   C298      1.0  0.32900  0.89778  0.06054  1.0000
  H   H284      1.0  0.32072  0.91103  0.05566  1.0000
  C   C299      1.0  0.05500  0.78314  0.04201  1.0000
  C   C300      1.0  0.05311  0.57766  0.09794  1.0000
  H   H285      1.0  0.37382  0.84093  0.17253  1.0000
  S   S113      1.0  0.20806  0.97969  0.01019  1.0000
  H   H286      1.0  0.37393  0.96162  0.10899  1.0000
  C   C301      1.0  0.08456  0.84274  0.99304  1.0000
  H   H287      1.0  0.08689  0.75757  0.09592  1.0000
  S   S114      1.0  0.12019  0.49666  0.14686  1.0000
  H   H288      1.0  0.01146  0.55522  0.10282  1.0000
  H   H289      1.0  0.03604  0.60888  0.21844  1.0000
  C   C302      1.0  0.02232  0.59541  0.09497  1.0000
  C   C303      1.0  0.26640  0.91822  0.06018  1.0000
  C   C304      1.0  0.42198  0.51181  0.19881  1.0000
  H   H290      1.0  0.46177  0.53673  0.19039  1.0000
  H   H291      1.0  0.22861  0.82579  0.19385  1.0000
  C   C305      1.0  0.07067  0.75971  0.08919  1.0000
  H   H292      1.0  0.00613  0.74250  0.09569  1.0000
  N   N25       1.0  0.20673  0.80462  0.16765  1.0000
  C   C306      1.0  0.20495  0.80338  0.14751  1.0000
  C   C307      1.0  0.18733  0.78573  0.17836  1.0000
  C   C308      1.0  0.18322  0.78301  0.13758  1.0000
  C   C309      1.0  0.16531  0.76508  0.16891  1.0000
  C   C310      1.0  0.16330  0.76375  0.14838  1.0000
  C   C311      1.0  0.23007  0.82592  0.17757  1.0000
  H   H293      1.0  0.22076  0.81768  0.13896  1.0000
  H   H294      1.0  0.18905  0.78610  0.19429  1.0000
  H   H295      1.0  0.18242  0.78158  0.12162  1.0000
  H   H296      1.0  0.15049  0.74951  0.17739  1.0000
  H   H297      1.0  0.14689  0.74724  0.14086  1.0000
  H   H298      1.0  0.11484  0.62493  0.08906  1.0000
  H   H299      1.0  0.09470  0.66513  0.22934  1.0000
  C   C312      1.0  0.40600  0.83201  0.16749  1.0000
  N   N26       1.0  0.44883  0.86538  0.17872  1.0000
  H   H300      1.0  0.11582  0.49786  0.18853  1.0000
  C   C313      1.0  0.44456  0.51756  0.18811  1.0000
  H   H301      1.0  0.08474  0.64202  0.08676  1.0000
  C   C314      1.0  0.10036  0.60497  0.09380  1.0000
  H   H302      1.0  0.04397  0.74001  0.11236  1.0000
  S   S115      1.0  0.98831  0.76067  0.01800  1.0000
  Fe  Fe59      1.0  0.01869  0.77415  0.99414  1.0000
  C   C315      1.0  0.03861  0.67003  0.23663  1.0000
  H   H303      1.0  0.33582  0.89134  0.04730  1.0000
  C   C316      1.0  0.06870  0.62273  0.08991  1.0000
  C   C317      1.0  0.38981  0.93435  0.10438  1.0000
  H   H304      1.0  0.05699  0.56124  0.10148  1.0000
  H   H305      1.0  0.36489  0.88279  0.07130  1.0000
  C   C318      1.0  0.41075  0.87170  0.18425  1.0000
  C   C319      1.0  0.02533  0.75127  0.08912  1.0000
  H   H306      1.0  0.09179  0.77787  0.06330  1.0000
  H   H307      1.0  0.03944  0.63651  0.08747  1.0000
  C   C320      1.0  0.02731  0.57415  0.09880  1.0000
  H   H308      1.0  0.01168  0.76252  0.06306  1.0000
  H   H309      1.0  0.06640  0.48972  0.13980  1.0000
  H   H310      1.0  0.09009  0.86614  0.01963  1.0000
  H   H311      1.0  0.02211  0.67005  0.22861  1.0000
  H   H312      1.0  0.45023  0.89953  0.19326  1.0000
  C   C321      1.0  0.38724  0.91212  0.09368  1.0000
  S   S116      1.0  0.05379  0.81620  0.00078  1.0000
  H   H313      1.0  0.07553  0.79817  0.03919  1.0000
  H   H314      1.0  0.04303  0.58121  0.22001  1.0000
  H   H315      1.0  0.39385  0.81342  0.15963  1.0000
  H   H316      1.0  0.40474  0.94300  0.11611  1.0000
  H   H317      1.0  0.44206  0.82983  0.16322  1.0000
  H   H318      1.0  0.10147  0.58997  0.08375  1.0000
  H   H319      1.0  0.10629  0.60228  0.10895  1.0000
  H   H320      1.0  0.13257  0.90369  0.01017  1.0000
  H   H321      1.0  0.44237  0.50569  0.10676  1.0000
  H   H322      1.0  0.40013  0.90345  0.09716  1.0000
  C   C322      1.0  0.04308  0.61981  0.09037  1.0000
  H   H323      1.0  0.23290  0.84559  0.17276  1.0000
  C   C323      1.0  0.04914  0.60172  0.22554  1.0000
  C   C324      1.0  0.33355  0.88935  0.24096  1.0000
  H   H324      1.0  0.40224  0.88414  0.18938  1.0000
  H   H325      1.0  0.25582  0.89720  0.05673  1.0000
  H   H326      1.0  0.00247  0.59312  0.09576  1.0000
  C   C325      1.0  0.43325  0.84138  0.16960  1.0000
  C   C326      1.0  0.39952  0.48755  0.19553  1.0000
  N   N27       1.0  0.44457  0.49979  0.17431  1.0000
  C   C327      1.0  0.12254  0.88670  0.00027  1.0000
  C   C328      1.0  0.10713  0.48859  0.20218  1.0000
  H   H327      1.0  0.42182  0.52623  0.20935  1.0000
  C   C329      1.0  0.12348  0.49336  0.21893  1.0000
  H   H328      1.0  0.14454  0.50600  0.21815  1.0000
  H   H329      1.0  0.47616  0.54927  0.12056  1.0000
  Fe  Fe60      1.0  0.24974  0.98529  0.00829  1.0000
  S   S117      1.0  0.47646  0.57828  0.15686  1.0000
  C   C330      1.0  0.04226  0.49842  0.38477  1.0000
  C   C331      1.0  0.19424  0.80252  0.38062  1.0000
  C   C332      1.0  0.28275  0.82058  0.27921  1.0000
  S   S118      1.0  0.99315  0.76716  0.47389  1.0000
  C   C333      1.0  0.38548  0.94657  0.37842  1.0000
  C   C334      1.0  0.05361  0.57756  0.38519  1.0000
  Fe  Fe61      1.0  0.32006  0.88919  0.31295  1.0000
  S   S119      1.0  0.31061  0.84850  0.32311  1.0000
  S   S120      1.0  0.33454  0.89626  0.28126  1.0000
  Fe  Fe62      1.0  0.31258  0.90700  0.35542  1.0000
  S   S121      1.0  0.30297  0.86724  0.36745  1.0000
  S   S122      1.0  0.31567  0.94163  0.37531  1.0000
  Fe  Fe63      1.0  0.33690  0.86951  0.34948  1.0000
  S   S123      1.0  0.36769  0.85869  0.36245  1.0000
  Fe  Fe64      1.0  0.27809  0.85063  0.33972  1.0000
  S   S124      1.0  0.23425  0.82238  0.33721  1.0000
  S   S125      1.0  0.34790  0.91014  0.33885  1.0000
  S   S126      1.0  0.28612  0.89048  0.32827  1.0000
  Fe  Fe65      1.0  0.07909  0.66591  0.32062  1.0000
  S   S127      1.0  0.10690  0.64855  0.31840  1.0000
  S   S128      1.0  0.05927  0.67433  0.29425  1.0000
  Fe  Fe66      1.0  0.07893  0.66572  0.36637  1.0000
  S   S129      1.0  0.10648  0.64722  0.36684  1.0000
  S   S130      1.0  0.07150  0.67821  0.39733  1.0000
  Fe  Fe67      1.0  0.12878  0.67658  0.34380  1.0000
  S   S131      1.0  0.17343  0.69798  0.34668  1.0000
  Fe  Fe68      1.0  0.08241  0.62059  0.34145  1.0000
  S   S132      1.0  0.06546  0.57606  0.33467  1.0000
  S   S133      1.0  0.10279  0.69635  0.34442  1.0000
  S   S134      1.0  0.05299  0.63661  0.34258  1.0000
  C   C335      1.0  0.45034  0.56667  0.35562  1.0000
  C   C336      1.0  0.45996  0.54985  0.34821  1.0000
  C   C337      1.0  0.44273  0.52263  0.34471  1.0000
  C   C338      1.0  0.41557  0.51192  0.34814  1.0000
  C   C339      1.0  0.40594  0.52870  0.35558  1.0000
  C   C340      1.0  0.42326  0.55583  0.35942  1.0000
  H   H330      1.0  0.38516  0.52084  0.35838  1.0000
  H   H331      1.0  0.41557  0.56858  0.36526  1.0000
  C   C341      1.0  0.07782  0.55362  0.34116  1.0000
  C   C342      1.0  0.06523  0.52762  0.33310  1.0000
  C   C343      1.0  0.07208  0.50814  0.33962  1.0000
  C   C344      1.0  0.09140  0.51437  0.35452  1.0000
  C   C345      1.0  0.10462  0.54062  0.36208  1.0000
  C   C346      1.0  0.09807  0.56020  0.35534  1.0000
  H   H332      1.0  0.04953  0.52227  0.32213  1.0000
  S   S135      1.0  0.20930  0.97939  0.46768  1.0000
  H   H333      1.0  0.11963  0.54568  0.37359  1.0000
  H   H334      1.0  0.10810  0.58011  0.36160  1.0000
  C   C347      1.0  0.40071  0.87059  0.35454  1.0000
  C   C348      1.0  0.41178  0.89082  0.34098  1.0000
  C   C349      1.0  0.43873  0.90143  0.33657  1.0000
  C   C350      1.0  0.45485  0.89154  0.34520  1.0000
  C   C351      1.0  0.44358  0.87081  0.35832  1.0000
  C   C352      1.0  0.41678  0.86061  0.36308  1.0000
  H   H335      1.0  0.39976  0.89876  0.33427  1.0000
  H   H336      1.0  0.44716  0.91748  0.32643  1.0000
  H   H337      1.0  0.45566  0.86303  0.36517  1.0000
  H   H338      1.0  0.40850  0.84496  0.37356  1.0000
  C   C353      1.0  0.21846  0.78763  0.33882  1.0000
  C   C354      1.0  0.23197  0.77359  0.34438  1.0000
  C   C355      1.0  0.21806  0.74592  0.34623  1.0000
  C   C356      1.0  0.19066  0.73225  0.34260  1.0000
  C   C357      1.0  0.17737  0.74631  0.33665  1.0000
  C   C358      1.0  0.19122  0.77386  0.33476  1.0000
  H   H339      1.0  0.25300  0.78403  0.34747  1.0000
  H   H340      1.0  0.22846  0.73510  0.35082  1.0000
  H   H341      1.0  0.15635  0.73599  0.33365  1.0000
  H   H342      1.0  0.18067  0.78459  0.33030  1.0000
  C   C359      1.0  0.01317  0.69836  0.43191  1.0000
  C   C360      1.0  0.00823  0.69056  0.41182  1.0000
  C   C361      1.0  0.02571  0.68440  0.40099  1.0000
  C   C362      1.0  0.04850  0.68585  0.41010  1.0000
  C   C363      1.0  0.05349  0.69374  0.43019  1.0000
  C   C364      1.0  0.03606  0.69997  0.44101  1.0000
  H   H343      1.0  0.09290  0.80464  0.46950  1.0000
  H   H344      1.0  0.07091  0.69486  0.43753  1.0000
  H   H345      1.0  0.04024  0.70580  0.45642  1.0000
  C   C365      1.0  0.42865  0.53564  0.30118  1.0000
  C   C366      1.0  0.29595  0.89247  0.25362  1.0000
  C   C367      1.0  0.04661  0.60351  0.28799  1.0000
  H   H346      1.0  0.04372  0.75168  0.43634  1.0000
  C   C368      1.0  0.27224  0.94584  0.43151  1.0000
  H   H347      1.0  0.07421  0.59069  0.38103  1.0000
  C   C369      1.0  0.30086  0.96691  0.40404  1.0000
  C   C370      1.0  0.29809  0.94240  0.39673  1.0000
  C   C371      1.0  0.28226  0.91958  0.40699  1.0000
  C   C372      1.0  0.26964  0.92136  0.42428  1.0000
  S   S136      1.0  0.09695  0.48956  0.36622  1.0000
  C   C373      1.0  0.25633  0.84353  0.28507  1.0000
  H   H348      1.0  0.27986  0.90057  0.40170  1.0000
  H   H349      1.0  0.07427  0.51279  0.40623  1.0000
  C   C374      1.0  0.04007  0.67289  0.25719  1.0000
  C   C375      1.0  0.06072  0.67231  0.26814  1.0000
  Fe  Fe69      1.0  0.98781  0.72528  0.47459  1.0000
  H   H350      1.0  0.02472  0.67518  0.26471  1.0000
  H   H351      1.0  0.09673  0.66915  0.26630  1.0000
  H   H352      1.0  0.04629  0.60435  0.30395  1.0000
  C   C376      1.0  0.31999  0.89220  0.25715  1.0000
  H   H353      1.0  0.06829  0.82762  0.46333  1.0000
  C   C377      1.0  0.03022  0.53121  0.37302  1.0000
  H   H354      1.0  0.28578  0.89580  0.26573  1.0000
  H   H355      1.0  0.04059  0.58044  0.37419  1.0000
  H   H356      1.0  0.29826  0.83885  0.27374  1.0000
  H   H357      1.0  0.01520  0.61388  0.28379  1.0000
  H   H358      1.0  0.45047  0.50988  0.33901  1.0000
  H   H359      1.0  0.21502  0.80645  0.37897  1.0000
  H   H360      1.0  0.07965  0.55855  0.40687  1.0000
  H   H361      1.0  0.20740  0.76346  0.38580  1.0000
  H   H362      1.0  0.44567  0.96478  0.35919  1.0000
  C   C378      1.0  0.08056  0.66948  0.25803  1.0000
  H   H363      1.0  0.25761  0.90354  0.43205  1.0000
  H   H364      1.0  0.41295  0.51546  0.30208  1.0000
  H   H365      1.0  0.01876  0.53655  0.36284  1.0000
  H   H366      1.0  0.26345  0.91356  0.48217  1.0000
  H   H367      1.0  0.43218  0.61116  0.30435  1.0000
  H   H368      1.0  0.15207  0.97144  0.46971  1.0000
  H   H369      1.0  0.41019  0.97855  0.35994  1.0000
  H   H370      1.0  0.27520  0.86143  0.28885  1.0000
  N   N28       1.0  0.17647  0.77439  0.38352  1.0000
  H   H371      1.0  0.02141  0.67840  0.38561  1.0000
  S   S137      1.0  0.99067  0.70686  0.44456  1.0000
  C   C379      1.0  0.40196  0.91694  0.38782  1.0000
  C   C380      1.0  0.42511  0.55683  0.30852  1.0000
  C   C381      1.0  0.07764  0.78566  0.46274  1.0000
  H   H372      1.0  0.19358  0.81469  0.39333  1.0000
  H   H373      1.0  0.08774  0.77675  0.45384  1.0000
  N   N29       1.0  0.38240  0.92434  0.38787  1.0000
  C   C382      1.0  0.05574  0.81214  0.45285  1.0000
  C   C383      1.0  0.02889  0.60846  0.27666  1.0000
  C   C384      1.0  0.03636  0.81527  0.44205  1.0000
  C   C385      1.0  0.24020  0.79664  0.29232  1.0000
  H   H374      1.0  0.18853  0.80918  0.36689  1.0000
  H   H375      1.0  0.44024  0.92510  0.37725  1.0000
  C   C386      1.0  0.35839  0.90862  0.39863  1.0000
  H   H376      1.0  0.00877  0.75572  0.41733  1.0000
  H   H377      1.0  0.39933  0.89904  0.39501  1.0000
  C   C387      1.0  0.06123  0.51766  0.39736  1.0000
  H   H378      1.0  0.14198  0.77963  0.38125  1.0000
  C   C388      1.0  0.28792  0.96864  0.42117  1.0000
  H   H379      1.0  0.35117  0.88714  0.39529  1.0000
  H   H380      1.0  0.01648  0.61235  0.24745  1.0000
  H   H381      1.0  0.36246  0.91252  0.41470  1.0000
  H   H382      1.0  0.05013  0.58388  0.39992  1.0000
  H   H383      1.0  0.03399  0.83294  0.44425  1.0000
  N   N30       1.0  0.44520  0.58217  0.30835  1.0000
  C   C389      1.0  0.01948  0.79503  0.42902  1.0000
  C   C390      1.0  0.14987  0.76586  0.38364  1.0000
  C   C391      1.0  0.42515  0.93159  0.37776  1.0000
  C   C392      1.0  0.06430  0.54350  0.39751  1.0000
  C   C393      1.0  0.02652  0.50514  0.37259  1.0000
  H   H384      1.0  0.11128  0.73231  0.38663  1.0000
  N   N31       1.0  0.04900  0.55001  0.38534  1.0000
  C   C394      1.0  0.13243  0.73922  0.38667  1.0000
  H   H385      1.0  0.34224  0.91340  0.39437  1.0000
  H   H386      1.0  0.31304  0.98475  0.39633  1.0000
  H   H387      1.0  0.27017  0.75743  0.28856  1.0000
  C   C395      1.0  0.02230  0.77208  0.42686  1.0000
  H   H388      1.0  0.42792  0.59783  0.32888  1.0000
  C   C396      1.0  0.14236  0.72129  0.38944  1.0000
  N   N32       1.0  0.25992  0.81973  0.28573  1.0000
  H   H389      1.0  0.07903  0.59433  0.28755  1.0000
  C   C397      1.0  0.18638  0.75693  0.38634  1.0000
  H   H390      1.0  0.12900  0.70050  0.39148  1.0000
  N   N33       1.0  0.04821  0.60250  0.24710  1.0000
  C   C398      1.0  0.16948  0.73012  0.38922  1.0000
  N   N34       1.0  0.05837  0.78957  0.45059  1.0000
  C   C399      1.0  0.04200  0.76974  0.43780  1.0000
  C   C400      1.0  0.06509  0.59799  0.27873  1.0000
  H   H391      1.0  0.40644  0.55276  0.31492  1.0000
  H   H392      1.0  0.17729  0.71610  0.39062  1.0000
  H   H393      1.0  0.01237  0.49054  0.36226  1.0000
  C   C401      1.0  0.44098  0.60407  0.31603  1.0000
  C   C402      1.0  0.06567  0.59763  0.25812  1.0000
  Fe  Fe70      1.0  0.24406  0.97200  0.47411  1.0000
  H   H394      1.0  0.45980  0.62083  0.32159  1.0000
  H   H395      1.0  0.29770  0.96019  0.48471  1.0000
  H   H396      1.0  0.37002  0.95255  0.37851  1.0000
  H   H397      1.0  0.99068  0.68922  0.40452  1.0000
  C   C403      1.0  0.40824  0.96146  0.36794  1.0000
  C   C404      1.0  0.42813  0.95380  0.36757  1.0000
  S   S138      1.0  0.25620  0.94662  0.45381  1.0000
  H   H398      1.0  0.06160  0.48804  0.33375  1.0000
  H   H399      1.0  0.00383  0.79679  0.42100  1.0000
  H   H400      1.0  0.30527  0.79925  0.27546  1.0000
  C   C405      1.0  0.46877  0.58724  0.30035  1.0000
  C   C406      1.0  0.28682  0.79823  0.28015  1.0000
  C   C407      1.0  0.24360  0.77392  0.29351  1.0000
  H   H401      1.0  0.24194  0.84302  0.29605  1.0000
  C   C408      1.0  0.45288  0.54056  0.29352  1.0000
  H   H402      1.0  0.22192  0.79586  0.29716  1.0000
  H   H403      1.0  0.35230  0.88945  0.24345  1.0000
  C   C409      1.0  0.26716  0.77482  0.28749  1.0000
  H   H404      1.0  0.22818  0.75589  0.29936  1.0000
  H   H405      1.0  0.06739  0.77225  0.47492  1.0000
  H   H406      1.0  0.24946  0.84552  0.27010  1.0000
  C   C410      1.0  0.47306  0.56654  0.29297  1.0000
  H   H407      1.0  0.45606  0.52425  0.28818  1.0000
  S   S139      1.0  0.47097  0.60129  0.35999  1.0000
  H   H408      1.0  0.08032  0.59368  0.25100  1.0000
  C   C411      1.0  0.02987  0.60774  0.25610  1.0000
  C   C412      1.0  0.28594  0.94954  0.53286  1.0000
  C   C413      1.0  0.25815  0.91009  0.51353  1.0000
  N   N35       1.0  0.29737  0.96243  0.51612  1.0000
  H   H409      1.0  0.24244  0.88988  0.51243  1.0000
  S   S140      1.0  0.98378  0.76373  0.52084  1.0000
  H   H410      1.0  0.11906  0.83589  0.50772  1.0000
  C   C414      1.0  0.09725  0.88927  0.49674  1.0000
  S   S141      1.0  0.06214  0.80828  0.50431  1.0000
  H   H411      1.0  0.05730  0.85701  0.49667  1.0000
  H   H412      1.0  0.29161  0.95982  0.54711  1.0000
  S   S142      1.0  0.01379  0.73283  0.50180  1.0000
  C   C415      1.0  0.11277  0.85068  0.50457  1.0000
  C   C416      1.0  0.08556  0.84283  0.50243  1.0000
  C   C417      1.0  0.13203  0.87749  0.50281  1.0000
  Fe  Fe71      1.0  0.01865  0.77472  0.50132  1.0000
  H   H413      1.0  0.25663  0.91343  0.54510  1.0000
  H   H414      1.0  0.00502  0.61784  0.61312  1.0000
  C   C418      1.0  0.26613  0.92325  0.53183  1.0000
  H   H415      1.0  0.13662  0.97576  0.50255  1.0000
  S   S143      1.0  0.22695  0.95141  0.50245  1.0000
  C   C419      1.0  0.98417  0.61393  0.61203  1.0000
  H   H416      1.0  0.15273  0.88296  0.50464  1.0000
  C   C420      1.0  0.12447  0.89716  0.49897  1.0000
  Fe  Fe72      1.0  0.19294  0.95994  0.49644  1.0000
  S   S144      1.0  0.14779  0.93173  0.49695  1.0000
  C   C421      1.0  0.07801  0.86244  0.49835  1.0000
  H   H417      1.0  0.98224  0.58645  0.64362  1.0000
  C   C422      1.0  0.26997  0.92333  0.49656  1.0000
  H   H418      1.0  0.98268  0.62778  0.60132  1.0000
  Fe  Fe73      1.0  0.97673  0.72121  0.51932  1.0000
  C   C423      1.0  0.28944  0.94976  0.49810  1.0000
  H   H419      1.0  0.09092  0.90409  0.49382  1.0000
  C   C424      1.0  0.22540  0.89909  0.94975  1.0000
  H   H420      1.0  0.26779  0.91756  0.94843  1.0000
  H   H421      1.0  0.12791  0.86283  0.95546  1.0000
  Fe  Fe74      1.0  0.19968  0.95390  0.98268  1.0000
  S   S145      1.0  0.24111  0.95833  0.98143  1.0000
  C   C425      1.0  0.24990  0.91817  0.94365  1.0000
  H   H422      1.0  0.27031  0.95384  0.92729  1.0000
  N   N36       1.0  0.20423  0.92062  0.93212  1.0000
  Fe  Fe75      1.0  0.98797  0.71930  0.97189  1.0000
  C   C426      1.0  0.22817  0.93948  0.92620  1.0000
  H   H423      1.0  0.17990  0.93918  0.93532  1.0000
  S   S146      1.0  0.98649  0.75819  0.97033  1.0000
  H   H424      1.0  0.18012  0.92669  0.91065  1.0000
  C   C427      1.0  0.09569  0.84219  0.97494  1.0000
  C   C428      1.0  0.25133  0.93847  0.93176  1.0000
  H   H425      1.0  0.22954  0.95579  0.91741  1.0000
  C   C429      1.0  0.18044  0.92278  0.92657  1.0000
  C   C430      1.0  0.11986  0.86370  0.96955  1.0000
  S   S147      1.0  0.98703  0.69771  0.94247  1.0000
  H   H426      1.0  0.22404  0.88353  0.95936  1.0000
  C   C431      1.0  0.13357  0.88621  0.98211  1.0000
  C   C432      1.0  0.20263  0.90061  0.94380  1.0000
  S   S148      1.0  0.16415  0.91291  0.97423  1.0000
  H   H427      1.0  0.18373  0.88602  0.94897  1.0000
  H   H428      1.0  0.98959  0.67509  0.90481  1.0000
  H   H429      1.0  0.16218  0.90439  0.92967  1.0000
  H   H430      1.0  0.08559  0.82522  0.96501  1.0000
  C   C433      1.0  0.83370  0.08342  0.00513  1.0000
  Fe  Fe76      1.0  0.76723  0.01674  0.00329  1.0000
  S   S149      1.0  0.79975  0.06018  0.00952  1.0000
  C   C434      1.0  0.84313  0.11044  0.01047  1.0000
  C   C435      1.0  0.67730  0.04064  0.99586  1.0000
  C   C436      1.0  0.87823  0.09489  0.99423  1.0000
  C   C437      1.0  0.67051  0.02371  0.01173  1.0000
  H   H431      1.0  0.87633  0.14999  0.01196  1.0000
  C   C438      1.0  0.86969  0.12949  0.00764  1.0000
  H   H432      1.0  0.65791  0.98664  0.09904  1.0000
  C   C439      1.0  0.91501  0.25961  0.02475  1.0000
  S   S150      1.0  0.94208  0.22371  0.00432  1.0000
  C   C440      1.0  0.88764  0.12191  0.99958  1.0000
  H   H433      1.0  0.67390  0.03166  0.02674  1.0000
  C   C441      1.0  0.95657  0.29858  0.03106  1.0000
  H   H434      1.0  0.68358  0.99023  0.06909  1.0000
  H   H435      1.0  0.89929  0.24135  0.02996  1.0000
  H   H436      1.0  0.97290  0.31089  0.04101  1.0000
  S   S151      1.0  0.72525  0.01108  0.99969  1.0000
  C   C442      1.0  0.65966  0.99637  0.00814  1.0000
  N   N37       1.0  0.91508  0.26636  0.00551  1.0000
  H   H437      1.0  0.87425  0.24152  0.99890  1.0000
  H   H438      1.0  0.82975  0.11671  0.01695  1.0000
  H   H439      1.0  0.68608  0.06191  0.99842  1.0000
  C   C443      1.0  0.95672  0.30510  0.01136  1.0000
  Fe  Fe77      1.0  0.95108  0.19013  0.99747  1.0000
  C   C444      1.0  0.85159  0.07590  0.99685  1.0000
  S   S152      1.0  0.92195  0.14489  0.99619  1.0000
  C   C445      1.0  0.93570  0.28866  0.99870  1.0000
  C   C446      1.0  0.93569  0.27565  0.03782  1.0000
  H   H440      1.0  0.97325  0.32249  0.00585  1.0000
  H   H441      1.0  0.93610  0.26989  0.05293  1.0000
  H   H442      1.0  0.96058  0.12017  0.99487  1.0000
  H   H443      1.0  0.91116  0.12304  0.48692  1.0000
  H   H444      1.0  0.80396  0.99620  0.42388  1.0000
  H   H445      1.0  0.87750  0.07572  0.48807  1.0000
  H   H446      1.0  0.75730  0.06704  0.43587  1.0000
  H   H447      1.0  0.82210  0.03796  0.44417  1.0000
  C   C447      1.0  0.74559  0.04523  0.43686  1.0000
  H   H448      1.0  0.73142  0.00023  0.41587  1.0000
  H   H449      1.0  0.97420  0.31980  0.45453  1.0000
  S   S153      1.0  0.82051  0.04853  0.48637  1.0000
  C   C448      1.0  0.75156  0.00896  0.42170  1.0000
  H   H450      1.0  0.73760  0.04030  0.45185  1.0000
  N   N38       1.0  0.76181  0.03207  0.43273  1.0000
  H   H451      1.0  0.72847  0.03848  0.42632  1.0000
  H   H452      1.0  0.79465  0.06017  0.45015  1.0000
  H   H453      1.0  0.95643  0.28468  0.45794  1.0000
  C   C449      1.0  0.78679  0.04239  0.44079  1.0000
  C   C450      1.0  0.85565  0.13017  0.48290  1.0000
  H   H454      1.0  0.91908  0.28817  0.48818  1.0000
  C   C451      1.0  0.89043  0.11779  0.48614  1.0000
  S   S154      1.0  0.90633  0.17242  0.48218  1.0000
  Fe  Fe78      1.0  0.95040  0.20388  0.48692  1.0000
  C   C452      1.0  0.84394  0.08321  0.48562  1.0000
  C   C453      1.0  0.80244  0.02987  0.43747  1.0000
  C   C454      1.0  0.95731  0.30403  0.46211  1.0000
  C   C455      1.0  0.88291  0.13783  0.48403  1.0000
  C   C456      1.0  0.87116  0.09082  0.48676  1.0000
  C   C457      1.0  0.79224  0.00643  0.42612  1.0000
  N   N39       1.0  0.96047  0.30812  0.48356  1.0000
  H   H455      1.0  0.93911  0.30435  0.45652  1.0000
  H   H456      1.0  0.66686  0.99063  0.41196  1.0000
  Fe  Fe79      1.0  0.77675  0.01678  0.48969  1.0000
  C   C458      1.0  0.76661  0.99584  0.41819  1.0000
  C   C459      1.0  0.83637  0.10324  0.48388  1.0000
  H   H457      1.0  0.84939  0.14528  0.48124  1.0000
  H   H458      1.0  0.81567  0.09805  0.48301  1.0000
  S   S155      1.0  0.95633  0.24608  0.49112  1.0000
  S   S156      1.0  0.74041  0.02216  0.49260  1.0000
  H   H459      1.0  0.51520  0.46266  0.64521  1.0000
  H   H460      1.0  0.56651  0.04622  0.70488  1.0000
  H   H461      1.0  0.79760  0.08731  0.54601  1.0000
  Fe  Fe80      1.0  0.88825  0.30144  0.62552  1.0000
  S   S157      1.0  0.86136  0.32047  0.62236  1.0000
  S   S158      1.0  0.89407  0.28188  0.59716  1.0000
  Fe  Fe81      1.0  0.88767  0.30605  0.67121  1.0000
  S   S159      1.0  0.86070  0.32454  0.67081  1.0000
  S   S160      1.0  0.90133  0.29573  0.70000  1.0000
  Fe  Fe82      1.0  0.83854  0.29418  0.64683  1.0000
  S   S161      1.0  0.79391  0.27208  0.64538  1.0000
  Fe  Fe83      1.0  0.88586  0.34937  0.64662  1.0000
  S   S162      1.0  0.90400  0.39458  0.64928  1.0000
  S   S163      1.0  0.86369  0.27374  0.64885  1.0000
  S   S164      1.0  0.91462  0.33233  0.64824  1.0000
  Fe  Fe84      1.0  0.65828  0.07072  0.62970  1.0000
  S   S165      1.0  0.67106  0.11384  0.62427  1.0000
  S   S166      1.0  0.65409  0.04449  0.60215  1.0000
  Fe  Fe85      1.0  0.64541  0.07746  0.67353  1.0000
  S   S167      1.0  0.65802  0.12062  0.67007  1.0000
  S   S168      1.0  0.62489  0.06381  0.70272  1.0000
  Fe  Fe86      1.0  0.63533  0.10829  0.64120  1.0000
  S   S169      1.0  0.60742  0.12523  0.63303  1.0000
  Fe  Fe87      1.0  0.69202  0.12138  0.65385  1.0000
  S   S170      1.0  0.73470  0.14922  0.66219  1.0000
  S   S171      1.0  0.62118  0.06506  0.64507  1.0000
  S   S172      1.0  0.68089  0.07849  0.65881  1.0000
  N   N40       1.0  0.79218  0.47283  0.65846  1.0000
  H   H462      1.0  0.74439  0.13143  0.72344  1.0000
  H   H463      1.0  0.95327  0.37084  0.73725  1.0000
  C   C460      1.0  0.57279  0.10846  0.63602  1.0000
  C   C461      1.0  0.55832  0.12274  0.63475  1.0000
  C   C462      1.0  0.53073  0.11003  0.63673  1.0000
  C   C463      1.0  0.51726  0.08278  0.63976  1.0000
  C   C464      1.0  0.53169  0.06842  0.64062  1.0000
  C   C465      1.0  0.55930  0.08119  0.63895  1.0000
  H   H464      1.0  0.56852  0.14382  0.63235  1.0000
  H   H465      1.0  0.51989  0.12133  0.63599  1.0000
  H   H466      1.0  0.52144  0.04732  0.64290  1.0000
  H   H467      1.0  0.57009  0.06988  0.63975  1.0000
  C   C466      1.0  0.67520  0.03628  0.58739  1.0000
  N   N41       1.0  0.57300  0.08181  0.59074  1.0000
  C   C467      1.0  0.68131  0.01615  0.55673  1.0000
  C   C468      1.0  0.70624  0.02025  0.56340  1.0000
  C   C469      1.0  0.71560  0.03274  0.58207  1.0000
  C   C470      1.0  0.70038  0.04091  0.59388  1.0000
  H   H468      1.0  0.82784  0.26728  0.69830  1.0000
  H   H469      1.0  0.73467  0.03586  0.58760  1.0000
  H   H470      1.0  0.70785  0.05013  0.60824  1.0000
  C   C471      1.0  0.77732  0.23827  0.65117  1.0000
  C   C472      1.0  0.74997  0.22388  0.64760  1.0000
  C   C473      1.0  0.73646  0.19656  0.65109  1.0000
  C   C474      1.0  0.75025  0.18362  0.65844  1.0000
  C   C475      1.0  0.77750  0.19810  0.66230  1.0000
  C   C476      1.0  0.79101  0.22528  0.65861  1.0000
  H   H471      1.0  0.73926  0.23385  0.64187  1.0000
  H   H472      1.0  0.71546  0.18556  0.64806  1.0000
  H   H473      1.0  0.78828  0.18816  0.66794  1.0000
  H   H474      1.0  0.81199  0.23612  0.66148  1.0000
  C   C477      1.0  0.55550  0.44719  0.68481  1.0000
  C   C478      1.0  0.48909  0.38750  0.68456  1.0000
  C   C479      1.0  0.57135  0.43590  0.67891  1.0000
  C   C480      1.0  0.53292  0.39303  0.67719  1.0000
  C   C481      1.0  0.95740  0.27159  0.56148  1.0000
  C   C482      1.0  0.93088  0.25940  0.55520  1.0000
  C   C483      1.0  0.91196  0.26281  0.56632  1.0000
  C   C484      1.0  0.91911  0.27836  0.58391  1.0000
  C   C485      1.0  0.94563  0.29051  0.59019  1.0000
  N   N42       1.0  0.94470  0.37445  0.70706  1.0000
  H   H475      1.0  0.92492  0.24737  0.54176  1.0000
  H   H476      1.0  0.89155  0.25325  0.56125  1.0000
  H   H477      1.0  0.95158  0.30256  0.60362  1.0000
  H   H478      1.0  0.51616  0.44004  0.69081  1.0000
  C   C486      1.0  0.55104  0.46142  0.63772  1.0000
  C   C487      1.0  0.56175  0.44490  0.63176  1.0000
  C   C488      1.0  0.54538  0.41737  0.62913  1.0000
  C   C489      1.0  0.51820  0.40592  0.63263  1.0000
  C   C490      1.0  0.50745  0.42251  0.63834  1.0000
  C   C491      1.0  0.52376  0.45008  0.64076  1.0000
  H   H479      1.0  0.58263  0.45328  0.62922  1.0000
  H   H480      1.0  0.55390  0.40478  0.62459  1.0000
  S   S173      1.0  0.49901  0.37082  0.63056  1.0000
  C   C492      1.0  0.86647  0.45044  0.64058  1.0000
  C   C493      1.0  0.89273  0.46030  0.64710  1.0000
  C   C494      1.0  0.90380  0.44292  0.64971  1.0000
  C   C495      1.0  0.88879  0.41546  0.64597  1.0000
  C   C496      1.0  0.86242  0.40555  0.63972  1.0000
  C   C497      1.0  0.85140  0.42295  0.63700  1.0000
  H   H481      1.0  0.84852  0.24182  0.71346  1.0000
  H   H482      1.0  0.92423  0.45087  0.65448  1.0000
  H   H483      1.0  0.85060  0.38453  0.63673  1.0000
  H   H484      1.0  0.83110  0.41505  0.63188  1.0000
  C   C498      1.0  0.95640  0.35803  0.69977  1.0000
  C   C499      1.0  0.64048  0.06818  0.72634  1.0000
  C   C500      1.0  0.66504  0.06876  0.72886  1.0000
  C   C501      1.0  0.92368  0.40670  0.72085  1.0000
  H   H485      1.0  0.67520  0.06688  0.71614  1.0000
  C   C502      1.0  0.88855  0.32643  0.72540  1.0000
  C   C503      1.0  0.89864  0.30841  0.72337  1.0000
  H   H486      1.0  0.81342  0.45187  0.66668  1.0000
  H   H487      1.0  0.88199  0.33283  0.71250  1.0000
  H   H488      1.0  0.95487  0.34309  0.71068  1.0000
  N   N43       1.0  0.78522  0.19429  0.61095  1.0000
  C   C504      1.0  0.81132  0.20041  0.61127  1.0000
  C   C505      1.0  0.77765  0.21326  0.60685  1.0000
  C   C506      1.0  0.83063  0.22614  0.60758  1.0000
  C   C507      1.0  0.79646  0.23923  0.60326  1.0000
  C   C508      1.0  0.82309  0.24563  0.60358  1.0000
  C   C509      1.0  0.76538  0.16697  0.61434  1.0000
  H   H489      1.0  0.81735  0.18540  0.61447  1.0000
  H   H490      1.0  0.75702  0.20861  0.60684  1.0000
  H   H491      1.0  0.85138  0.23110  0.60793  1.0000
  H   H492      1.0  0.79052  0.25451  0.60080  1.0000
  H   H493      1.0  0.83790  0.26573  0.60091  1.0000
  H   H494      1.0  0.74581  0.16563  0.61744  1.0000
  H   H495      1.0  0.76320  0.15412  0.60125  1.0000
  H   H496      1.0  0.77112  0.15914  0.62745  1.0000
  C   C510      1.0  0.80511  0.01430  0.55993  1.0000
  C   C511      1.0  0.60918  0.07145  0.59189  1.0000
  N   N44       1.0  0.79934  0.05085  0.54806  1.0000
  C   C512      1.0  0.79185  0.02966  0.56006  1.0000
  C   C513      1.0  0.81985  0.05722  0.53571  1.0000
  C   C514      1.0  0.94525  0.37969  0.72685  1.0000
  H   H497      1.0  0.54001  0.03086  0.68655  1.0000
  C   C515      1.0  0.78886  0.46406  0.63772  1.0000
  C   C516      1.0  0.83029  0.26744  0.71421  1.0000
  H   H498      1.0  0.64645  0.01998  0.56344  1.0000
  H   H499      1.0  0.47935  0.39769  0.69243  1.0000
  H   H500      1.0  0.57358  0.04631  0.67919  1.0000
  H   H501      1.0  0.76898  0.45958  0.63180  1.0000
  H   H502      1.0  0.77025  0.05862  0.53443  1.0000
  C   C517      1.0  0.96645  0.31435  0.52432  1.0000
  C   C518      1.0  0.96458  0.28715  0.57905  1.0000
  S   S174      1.0  0.85150  0.47140  0.63659  1.0000
  H   H503      1.0  0.82160  0.46908  0.70111  1.0000
  H   H504      1.0  0.77508  0.02407  0.56945  1.0000
  H   H505      1.0  0.59914  0.03062  0.59660  1.0000
  H   H506      1.0  0.82532  0.07353  0.52577  1.0000
  H   H507      1.0  0.56396  0.46852  0.68698  1.0000
  H   H508      1.0  0.57198  0.39980  0.66970  1.0000
  S   S175      1.0  0.76756  0.99051  0.51586  1.0000
  H   H509      1.0  0.60822  0.06941  0.74138  1.0000
  C   C519      1.0  0.52846  0.43097  0.68687  1.0000
  C   C520      1.0  0.93867  0.29855  0.49494  1.0000
  C   C521      1.0  0.59945  0.08974  0.58986  1.0000
  H   H510      1.0  0.93427  0.38170  0.67826  1.0000
  H   H511      1.0  0.61323  0.11041  0.58788  1.0000
  C   C522      1.0  0.78430  0.06580  0.54731  1.0000
  H   H512      1.0  0.67015  0.13212  0.71590  1.0000
  H   H513      1.0  0.55952  0.10232  0.57164  1.0000
  H   H514      1.0  0.60140  0.13806  0.68180  1.0000
  C   C523      1.0  0.56004  0.40864  0.67506  1.0000
  H   H515      1.0  0.79139  0.44597  0.63569  1.0000
  C   C524      1.0  0.56306  0.10103  0.58761  1.0000
  C   C525      1.0  0.55568  0.05578  0.59351  1.0000
  H   H516      1.0  0.84917  0.04695  0.52479  1.0000
  H   H517      1.0  0.59218  0.44842  0.67664  1.0000
  H   H518      1.0  0.63017  0.07774  0.59123  1.0000
  H   H519      1.0  0.52399  0.37206  0.67324  1.0000
  H   H520      1.0  0.55108  0.01642  0.59816  1.0000
  C   C526      1.0  0.68627  0.13366  0.72538  1.0000
  H   H521      1.0  0.55913  0.14055  0.68211  1.0000
  N   N45       1.0  0.55942  0.07334  0.68798  1.0000
  C   C527      1.0  0.58270  0.09590  0.68618  1.0000
  C   C528      1.0  0.53611  0.07457  0.68847  1.0000
  C   C529      1.0  0.58300  0.12043  0.68419  1.0000
  C   C530      1.0  0.53569  0.09878  0.68658  1.0000
  C   C531      1.0  0.55930  0.12181  0.68433  1.0000
  C   C532      1.0  0.55973  0.04788  0.68977  1.0000
  H   H522      1.0  0.60114  0.09488  0.68576  1.0000
  H   H523      1.0  0.51755  0.05670  0.68961  1.0000
  C   C533      1.0  0.66588  0.02387  0.56869  1.0000
  H   H524      1.0  0.51704  0.09948  0.68602  1.0000
  H   H525      1.0  0.57738  0.12099  0.59358  1.0000
  H   H526      1.0  0.91522  0.41906  0.72620  1.0000
  Fe  Fe88      1.0  0.73029  0.99490  0.51830  1.0000
  H   H527      1.0  0.54438  0.09537  0.59543  1.0000
  N   N46       1.0  0.51758  0.40423  0.68324  1.0000
  C   C534      1.0  0.92360  0.40162  0.70069  1.0000
  S   S176      1.0  0.97441  0.20618  0.51431  1.0000
  C   C535      1.0  0.72786  0.13304  0.72965  1.0000
  S   S177      1.0  0.48276  0.06586  0.64329  1.0000
  C   C536      1.0  0.56478  0.03700  0.59577  1.0000
  H   H528      1.0  0.80406  0.47989  0.62894  1.0000
  H   H529      1.0  0.77258  0.06303  0.56073  1.0000
  H   H530      1.0  0.53470  0.04949  0.59421  1.0000
  H   H531      1.0  0.91521  0.41008  0.69023  1.0000
  C   C537      1.0  0.83351  0.04227  0.53515  1.0000
  H   H532      1.0  0.94575  0.34658  0.68622  1.0000
  H   H533      1.0  0.83596  0.00842  0.54660  1.0000
  H   H534      1.0  0.90462  0.48135  0.64990  1.0000
  H   H535      1.0  0.79862  0.99710  0.56907  1.0000
  S   S178      1.0  0.72630  0.00965  0.54952  1.0000
  C   C538      1.0  0.93437  0.38545  0.69400  1.0000
  C   C539      1.0  0.59172  0.04493  0.59489  1.0000
  H   H536      1.0  0.92407  0.29401  0.52454  1.0000
  C   C540      1.0  0.81027  0.47469  0.69102  1.0000
  C   C541      1.0  0.70770  0.13206  0.71726  1.0000
  H   H537      1.0  0.70852  0.12968  0.70142  1.0000
  C   C542      1.0  0.84173  0.25298  0.72275  1.0000
  C   C543      1.0  0.82601  0.02063  0.54731  1.0000
  H   H538      1.0  0.48004  0.38170  0.66952  1.0000
  C   C544      1.0  0.80558  0.46502  0.67149  1.0000
  C   C545      1.0  0.93462  0.39574  0.73406  1.0000
  C   C546      1.0  0.94132  0.30170  0.51547  1.0000
  C   C547      1.0  0.90712  0.30038  0.74033  1.0000
  H   H539      1.0  0.48656  0.41412  0.64085  1.0000
  H   H540      1.0  0.67362  0.00647  0.54252  1.0000
  H   H541      1.0  0.48167  0.23210  0.63297  1.0000
  H   H542      1.0  0.48477  0.36921  0.69267  1.0000
  H   H543      1.0  0.91502  0.28648  0.73891  1.0000
  H   H544      1.0  0.96881  0.31667  0.54024  1.0000
  C   C548      1.0  0.82258  0.28257  0.72622  1.0000
  H   H545      1.0  0.81391  0.29408  0.71967  1.0000
  H   H546      1.0  0.56417  0.41303  0.86235  1.0000
  C   C549      1.0  0.50450  0.41897  0.80014  1.0000
  N   N47       1.0  0.53159  0.44051  0.80163  1.0000
  C   C550      1.0  0.96246  0.14149  0.96100  1.0000
  H   H547      1.0  0.82388  0.25604  0.78335  1.0000
  S   S179      1.0  0.93825  0.25580  0.95687  1.0000
  H   H548      1.0  0.51588  0.38511  0.85670  1.0000
  Fe  Fe89      1.0  0.86513  0.33814  0.85081  1.0000
  S   S180      1.0  0.90661  0.34997  0.84243  1.0000
  S   S181      1.0  0.85456  0.36842  0.86511  1.0000
  Fe  Fe90      1.0  0.84595  0.28086  0.83560  1.0000
  S   S182      1.0  0.88664  0.28965  0.82620  1.0000
  S   S183      1.0  0.81656  0.23880  0.82614  1.0000
  Fe  Fe91      1.0  0.90047  0.31134  0.85570  1.0000
  S   S184      1.0  0.93326  0.31008  0.87530  1.0000
  Fe  Fe92      1.0  0.88848  0.32686  0.81407  1.0000
  S   S185      1.0  0.89832  0.34548  0.78387  1.0000
  S   S186      1.0  0.85964  0.30062  0.86568  1.0000
  S   S187      1.0  0.84715  0.31698  0.82197  1.0000
  Fe  Fe93      1.0  0.66380  0.08346  0.81784  1.0000
  S   S188      1.0  0.64478  0.11005  0.82054  1.0000
  S   S189      1.0  0.67803  0.07567  0.78837  1.0000
  Fe  Fe94      1.0  0.66845  0.07880  0.86349  1.0000
  S   S190      1.0  0.64903  0.10498  0.86869  1.0000
  S   S191      1.0  0.68941  0.07221  0.89087  1.0000
  Fe  Fe95      1.0  0.62049  0.08225  0.84384  1.0000
  S   S192      1.0  0.57548  0.06488  0.84407  1.0000
  Fe  Fe96      1.0  0.67484  0.13050  0.84505  1.0000
  S   S193      1.0  0.69699  0.17510  0.84985  1.0000
  S   S194      1.0  0.63803  0.05398  0.83988  1.0000
  S   S195      1.0  0.69560  0.10598  0.84097  1.0000
  C   C551      1.0  0.66297  0.07277  0.76471  1.0000
  C   C552      1.0  0.63864  0.07272  0.76219  1.0000
  H   H549      1.0  0.79106  0.43957  0.86765  1.0000
  H   H550      1.0  0.62827  0.07405  0.77496  1.0000
  C   C553      1.0  0.88763  0.33682  0.74415  1.0000
  C   C554      1.0  0.89646  0.32909  0.76109  1.0000
  C   C555      1.0  0.93278  0.42079  0.87828  1.0000
  C   C556      1.0  0.90586  0.31050  0.75913  1.0000
  H   H551      1.0  0.54782  0.41614  0.81276  1.0000
  H   H552      1.0  0.91312  0.30471  0.77202  1.0000
  C   C557      1.0  0.78290  0.22219  0.83181  1.0000
  C   C558      1.0  0.77076  0.23465  0.84230  1.0000
  C   C559      1.0  0.74416  0.22014  0.84732  1.0000
  C   C560      1.0  0.72966  0.19312  0.84202  1.0000
  C   C561      1.0  0.74172  0.18084  0.83124  1.0000
  C   C562      1.0  0.76820  0.19536  0.82608  1.0000
  H   H553      1.0  0.78190  0.25534  0.84670  1.0000
  H   H554      1.0  0.73488  0.22978  0.85559  1.0000
  H   H555      1.0  0.73076  0.16010  0.82704  1.0000
  H   H556      1.0  0.77750  0.18562  0.81797  1.0000
  C   C563      1.0  0.93381  0.29387  0.89765  1.0000
  C   C564      1.0  0.91180  0.28167  0.90947  1.0000
  C   C565      1.0  0.91360  0.27011  0.92738  1.0000
  C   C566      1.0  0.93725  0.27019  0.93372  1.0000
  C   C567      1.0  0.95619  0.42301  0.87078  1.0000
  C   C568      1.0  0.95749  0.29408  0.90405  1.0000
  H   H557      1.0  0.89342  0.28122  0.90489  1.0000
  H   H558      1.0  0.89642  0.26085  0.93631  1.0000
  C   C569      1.0  0.84230  0.27022  0.77633  1.0000
  H   H559      1.0  0.89313  0.25869  0.97819  1.0000
  H   H560      1.0  0.65838  0.99454  0.95867  1.0000
  H   H561      1.0  0.88048  0.35132  0.74551  1.0000
  C   C570      1.0  0.69760  0.00935  0.92925  1.0000
  C   C571      1.0  0.68043  0.00140  0.91255  1.0000
  C   C572      1.0  0.67755  0.02015  0.90068  1.0000
  C   C573      1.0  0.69185  0.04729  0.90531  1.0000
  C   C574      1.0  0.70895  0.05520  0.92208  1.0000
  C   C575      1.0  0.71182  0.03645  0.93396  1.0000
  H   H562      1.0  0.84223  0.46039  0.81867  1.0000
  H   H563      1.0  0.66429  0.01360  0.88790  1.0000
  H   H564      1.0  0.77571  0.99471  0.91816  1.0000
  C   C576      1.0  0.52209  0.10533  0.84983  1.0000
  C   C577      1.0  0.54971  0.12067  0.85049  1.0000
  C   C578      1.0  0.56641  0.10866  0.84945  1.0000
  C   C579      1.0  0.55566  0.08107  0.84782  1.0000
  C   C580      1.0  0.52805  0.06572  0.84772  1.0000
  C   C581      1.0  0.51135  0.07773  0.84865  1.0000
  H   H565      1.0  0.55825  0.14203  0.85152  1.0000
  H   H566      1.0  0.58757  0.12076  0.84959  1.0000
  H   H567      1.0  0.51951  0.04437  0.84658  1.0000
  C   C582      1.0  0.58285  0.48146  0.80374  1.0000
  C   C583      1.0  0.88912  0.45545  0.84665  1.0000
  C   C584      1.0  0.87163  0.44617  0.86214  1.0000
  C   C585      1.0  0.86169  0.41966  0.86792  1.0000
  C   C586      1.0  0.86881  0.40205  0.85815  1.0000
  C   C587      1.0  0.88684  0.41152  0.84304  1.0000
  C   C588      1.0  0.89710  0.43812  0.83748  1.0000
  H   H568      1.0  0.86566  0.45940  0.86957  1.0000
  H   H569      1.0  0.84804  0.41266  0.87982  1.0000
  H   H570      1.0  0.89273  0.39833  0.83548  1.0000
  H   H571      1.0  0.91084  0.44516  0.82563  1.0000
  C   C589      1.0  0.56377  0.44997  0.85676  1.0000
  C   C590      1.0  0.54770  0.46162  0.85190  1.0000
  C   C591      1.0  0.52026  0.44577  0.84894  1.0000
  C   C592      1.0  0.50852  0.41806  0.85052  1.0000
  C   C593      1.0  0.52455  0.40637  0.85536  1.0000
  C   C594      1.0  0.55196  0.42227  0.85857  1.0000
  C   C595      1.0  0.82670  0.28323  0.74666  1.0000
  H   H572      1.0  0.50809  0.45510  0.84529  1.0000
  N   N48       1.0  0.50456  0.07865  0.80068  1.0000
  N   N49       1.0  0.92262  0.37781  0.89037  1.0000
  C   C596      1.0  0.83851  0.41267  0.81131  1.0000
  H   H573      1.0  0.84829  0.29047  0.78251  1.0000
  H   H574      1.0  0.94945  0.14602  0.93194  1.0000
  C   C597      1.0  0.67276  0.03005  0.97666  1.0000
  C   C598      1.0  0.47766  0.07539  0.80136  1.0000
  H   H575      1.0  0.88390  0.34869  0.89707  1.0000
  Fe  Fe97      1.0  0.72259  0.98644  0.97280  1.0000
  H   H576      1.0  0.66844  0.13711  0.75206  1.0000
  H   H577      1.0  0.49058  0.40965  0.89006  1.0000
  C   C599      1.0  0.66187  0.00263  0.97364  1.0000
  H   H578      1.0  0.49019  0.06562  0.84833  1.0000
  H   H579      1.0  0.52180  0.12073  0.80335  1.0000
  H   H580      1.0  0.55643  0.48288  0.85049  1.0000
  H   H581      1.0  0.90846  0.35759  0.91687  1.0000
  H   H582      1.0  0.49075  0.42527  0.80702  1.0000
  H   H583      1.0  0.71537  0.13242  0.78747  1.0000
  H   H584      1.0  0.78480  0.39328  0.86477  1.0000
  C   C600      1.0  0.70437  0.14108  0.77923  1.0000
  N   N50       1.0  0.73690  0.15774  0.88593  1.0000
  C   C601      1.0  0.75252  0.18452  0.88534  1.0000
  C   C602      1.0  0.74539  0.14069  0.87837  1.0000
  C   C603      1.0  0.77732  0.19489  0.87694  1.0000
  C   C604      1.0  0.76990  0.15039  0.86956  1.0000
  C   C605      1.0  0.78592  0.17769  0.86884  1.0000
  C   C606      1.0  0.71131  0.14756  0.89526  1.0000
  H   H585      1.0  0.74553  0.19800  0.89096  1.0000
  H   H586      1.0  0.73312  0.11943  0.87893  1.0000
  H   H587      1.0  0.78945  0.21614  0.87610  1.0000
  H   H588      1.0  0.77628  0.13678  0.86323  1.0000
  H   H589      1.0  0.80477  0.18561  0.86172  1.0000
  H   H590      1.0  0.69972  0.15700  0.88903  1.0000
  H   H591      1.0  0.69934  0.12585  0.89272  1.0000
  H   H592      1.0  0.71414  0.15157  0.91139  1.0000
  C   C607      1.0  0.91619  0.39797  0.88818  1.0000
  H   H593      1.0  0.52066  0.46925  0.79116  1.0000
  H   H594      1.0  0.89785  0.39626  0.89376  1.0000
  S   S196      1.0  0.59860  0.46884  0.86023  1.0000
  H   H595      1.0  0.80736  0.38131  0.83873  1.0000
  H   H596      1.0  0.84289  0.39643  0.81590  1.0000
  C   C608      1.0  0.67608  0.07082  0.74794  1.0000
  C   C609      1.0  0.52529  0.10365  0.80157  1.0000
  H   H597      1.0  0.71292  0.16250  0.78322  1.0000
  H   H598      1.0  0.68378  0.13069  0.78432  1.0000
  H   H599      1.0  0.85769  0.42970  0.80771  1.0000
  H   H600      1.0  0.97471  0.30344  0.89515  1.0000
  H   H601      1.0  0.59348  0.45255  0.81509  1.0000
  H   H602      1.0  0.85833  0.26530  0.78060  1.0000
  C   C610      1.0  0.55174  0.43566  0.80801  1.0000
  N   N51       1.0  0.82580  0.42007  0.82704  1.0000
  C   C611      1.0  0.80978  0.40135  0.83970  1.0000
  C   C612      1.0  0.82923  0.44545  0.82850  1.0000
  C   C613      1.0  0.79706  0.40802  0.85452  1.0000
  C   C614      1.0  0.81681  0.45276  0.84315  1.0000
  C   C615      1.0  0.80063  0.43393  0.85620  1.0000
  H   H603      1.0  0.81994  0.47299  0.84455  1.0000
  C   C616      1.0  0.53461  0.06008  0.79934  1.0000
  C   C617      1.0  0.90484  0.35406  0.90073  1.0000
  H   H604      1.0  0.85484  0.24309  0.74969  1.0000
  C   C618      1.0  0.94594  0.38016  0.88359  1.0000
  N   N52       1.0  0.70521  0.13725  0.75789  1.0000
  H   H605      1.0  0.72021  0.07607  0.92588  1.0000
  H   H606      1.0  0.90774  0.33671  0.89635  1.0000
  C   C619      1.0  0.50890  0.05699  0.79940  1.0000
  H   H607      1.0  0.53814  0.04293  0.79947  1.0000
  H   H608      1.0  0.49379  0.37863  0.91391  1.0000
  C   C620      1.0  0.96610  0.15203  0.94219  1.0000
  Fe  Fe98      1.0  0.96332  0.24250  0.97655  1.0000
  H   H609      1.0  0.82552  0.40616  0.79788  1.0000
  S   S197      1.0  0.97145  0.20826  0.96930  1.0000
  C   C621      1.0  0.95919  0.28221  0.92182  1.0000
  H   H610      1.0  0.72516  0.04304  0.94669  1.0000
  C   C622      1.0  0.72633  0.13572  0.75006  1.0000
  S   S198      1.0  0.50203  0.12165  0.84934  1.0000
  C   C623      1.0  0.55587  0.08548  0.80040  1.0000
  C   C624      1.0  0.55124  0.10745  0.80143  1.0000
  H   H611      1.0  0.49844  0.41315  0.78447  1.0000
  S   S199      1.0  0.76451  0.99283  0.97573  1.0000
  H   H612      1.0  0.93624  0.29363  0.98332  1.0000
  H   H613      1.0  0.92725  0.43645  0.87617  1.0000
  C   C625      1.0  0.57764  0.45610  0.80927  1.0000
  H   H614      1.0  0.50233  0.40121  0.80812  1.0000
  H   H615      1.0  0.49251  0.03716  0.79913  1.0000
  N   N53       1.0  0.83832  0.26931  0.75488  1.0000
  H   H616      1.0  0.93440  0.39915  0.74982  1.0000
  H   H617      1.0  0.95129  0.36438  0.88560  1.0000
  H   H618      1.0  0.94279  0.12724  0.96508  1.0000
  C   C626      1.0  0.53659  0.46537  0.79617  1.0000
  C   C627      1.0  0.96295  0.40266  0.87354  1.0000
  H   H619      1.0  0.57586  0.08803  0.80147  1.0000
  H   H620      1.0  0.96902  0.44046  0.86282  1.0000
  H   H621      1.0  0.67786  0.04295  0.96415  1.0000
  H   H622      1.0  0.56762  0.12721  0.80317  1.0000
  H   H623      1.0  0.82106  0.29537  0.75590  1.0000
  C   C628      1.0  0.68538  0.13635  0.74584  1.0000
  H   H624      1.0  0.69482  0.07067  0.74973  1.0000
  H   H625      1.0  0.89168  0.08850  0.98807  1.0000
  H   H626      1.0  0.74192  0.13618  0.75961  1.0000
  H   H627      1.0  0.84499  0.05535  0.99272  1.0000
  C   C629      1.0  0.62735  0.07013  0.74311  1.0000
  H   H628      1.0  0.89670  0.23134  0.98765  1.0000
  C   C630      1.0  0.84546  0.25400  0.74324  1.0000
  N   N54       1.0  0.65614  0.98625  0.98928  1.0000
  C   C631      1.0  0.89366  0.24864  0.99195  1.0000
  N   N55       1.0  0.52747  0.69997  0.08920  1.0000
  S   S200      1.0  0.73703  0.70068  0.01039  1.0000
  S   S201      1.0  0.75072  0.76080  0.02275  1.0000
  H   H629      1.0  0.51384  0.72855  0.09425  1.0000
  C   C632      1.0  0.75222  0.88974  0.99304  1.0000
  S   S202      1.0  0.81328  0.74864  0.01628  1.0000
  Fe  Fe99      1.0  0.71521  0.72056  0.02454  1.0000
  S   S203      1.0  0.69562  0.70637  0.05455  1.0000
  Fe  Fe100     1.0  0.51763  0.87260  0.13375  1.0000
  S   S204      1.0  0.54315  0.91369  0.14607  1.0000
  H   H630      1.0  0.57778  0.80696  0.18582  1.0000
  Fe  Fe101     1.0  0.55956  0.85498  0.14408  1.0000
  S   S205      1.0  0.58686  0.89473  0.15799  1.0000
  S   S206      1.0  0.57746  0.82682  0.14378  1.0000
  Fe  Fe102     1.0  0.55074  0.89315  0.17179  1.0000
  S   S207      1.0  0.53992  0.90069  0.20281  1.0000
  Fe  Fe103     1.0  0.57698  0.91109  0.13080  1.0000
  S   S208      1.0  0.61136  0.94478  0.11504  1.0000
  S   S209      1.0  0.52425  0.85211  0.15972  1.0000
  S   S210      1.0  0.55072  0.87127  0.11663  1.0000
  Fe  Fe104     1.0  0.56020  0.65984  0.17157  1.0000
  S   S211      1.0  0.51753  0.64928  0.16922  1.0000
  S   S212      1.0  0.58033  0.67575  0.20181  1.0000
  Fe  Fe105     1.0  0.56372  0.65342  0.12645  1.0000
  S   S213      1.0  0.52022  0.64156  0.12203  1.0000
  S   S214      1.0  0.58344  0.65789  0.09625  1.0000
  Fe  Fe106     1.0  0.52813  0.67523  0.14318  1.0000
  S   S215      1.0  0.50910  0.70193  0.13853  1.0000
  Fe  Fe107     1.0  0.51303  0.61616  0.14845  1.0000
  H   H631      1.0  0.54622  0.67538  0.08602  1.0000
  S   S216      1.0  0.57137  0.68838  0.14646  1.0000
  S   S217      1.0  0.55591  0.62541  0.15196  1.0000
  C   C633      1.0  0.55846  0.79434  0.19245  1.0000
  H   H632      1.0  0.50568  0.70395  0.18510  1.0000
  H   H633      1.0  0.50064  0.66029  0.07963  1.0000
  H   H634      1.0  0.77550  0.84484  0.00129  1.0000
  H   H635      1.0  0.66312  0.61730  0.06503  1.0000
  C   C634      1.0  0.56816  0.66046  0.22465  1.0000
  H   H636      1.0  0.64806  0.63861  0.06903  1.0000
  C   C635      1.0  0.55149  0.63325  0.22574  1.0000
  C   C636      1.0  0.65455  0.88800  0.08946  1.0000
  H   H637      1.0  0.54500  0.62113  0.21235  1.0000
  C   C637      1.0  0.55104  0.89497  0.22602  1.0000
  Fe  Fe108     1.0  0.77119  0.74081  0.00628  1.0000
  C   C638      1.0  0.57737  0.90102  0.22969  1.0000
  H   H638      1.0  0.87898  0.80185  0.00617  1.0000
  H   H639      1.0  0.59097  0.90707  0.21773  1.0000
  C   C639      1.0  0.62825  0.94651  0.09268  1.0000
  H   H640      1.0  0.61872  0.85463  0.09868  1.0000
  H   H641      1.0  0.62140  0.64015  0.00402  1.0000
  C   C640      1.0  0.65764  0.95077  0.05812  1.0000
  C   C641      1.0  0.63452  0.92738  0.06196  1.0000
  C   C642      1.0  0.62000  0.92519  0.07909  1.0000
  H   H642      1.0  0.68508  0.94738  0.11299  1.0000
  C   C643      1.0  0.63345  0.87490  0.10194  1.0000
  H   H643      1.0  0.62781  0.91070  0.05166  1.0000
  H   H644      1.0  0.60239  0.90701  0.08178  1.0000
  C   C644      1.0  0.55802  0.79220  0.14224  1.0000
  C   C645      1.0  0.57033  0.77608  0.14467  1.0000
  C   C646      1.0  0.55549  0.74837  0.14386  1.0000
  C   C647      1.0  0.52825  0.73660  0.14033  1.0000
  C   C648      1.0  0.51593  0.75273  0.13789  1.0000
  C   C649      1.0  0.53075  0.78048  0.13894  1.0000
  H   H645      1.0  0.59144  0.78506  0.14732  1.0000
  H   H646      1.0  0.56517  0.73618  0.14582  1.0000
  H   H647      1.0  0.49483  0.74373  0.13517  1.0000
  H   H648      1.0  0.52110  0.79279  0.13707  1.0000
  C   C650      1.0  0.50073  0.67790  0.08700  1.0000
  C   C651      1.0  0.53081  0.72503  0.09287  1.0000
  C   C652      1.0  0.65006  0.91435  0.12270  1.0000
  C   C653      1.0  0.66416  0.63667  0.06145  1.0000
  H   H649      1.0  0.70197  0.94869  0.08046  1.0000
  H   H650      1.0  0.83459  0.82047  0.03433  1.0000
  H   H651      1.0  0.59117  0.71206  0.09140  1.0000
  C   C654      1.0  0.66453  0.69584  0.06608  1.0000
  C   C655      1.0  0.64106  0.68921  0.05540  1.0000
  C   C656      1.0  0.61663  0.67802  0.06494  1.0000
  C   C657      1.0  0.61521  0.67392  0.08540  1.0000
  C   C658      1.0  0.63878  0.68144  0.09620  1.0000
  C   C659      1.0  0.66314  0.69204  0.08658  1.0000
  H   H652      1.0  0.64165  0.69208  0.03968  1.0000
  H   H653      1.0  0.59863  0.67237  0.05634  1.0000
  H   H654      1.0  0.63822  0.67839  0.11189  1.0000
  H   H655      1.0  0.68107  0.69704  0.09509  1.0000
  C   C660      1.0  0.84083  0.74479  0.00749  1.0000
  N   N56       1.0  0.84643  0.81068  0.00714  1.0000
  C   C661      1.0  0.52473  0.72009  0.18962  1.0000
  N   N57       1.0  0.67276  0.91376  0.09344  1.0000
  C   C662      1.0  0.65125  0.96997  0.08872  1.0000
  N   N58       1.0  0.66244  0.63887  0.04005  1.0000
  C   C663      1.0  0.83031  0.81644  0.01866  1.0000
  C   C664      1.0  0.64037  0.63815  0.03131  1.0000
  H   H656      1.0  0.54153  0.69443  0.19734  1.0000
  H   H657      1.0  0.65607  0.87759  0.07643  1.0000
  H   H658      1.0  0.48201  0.86336  0.19147  1.0000
  H   H659      1.0  0.68303  0.65292  0.06751  1.0000
  C   C665      1.0  0.87019  0.81120  0.01606  1.0000
  H   H660      1.0  0.62416  0.63653  0.04016  1.0000
  S   S218      1.0  0.95754  0.70303  0.99516  1.0000
  H   H661      1.0  0.48827  0.89616  0.18477  1.0000
  C   C666      1.0  0.63862  0.64006  0.01087  1.0000
  C   C667      1.0  0.76945  0.87946  0.99867  1.0000
  H   H662      1.0  0.48787  0.68365  0.07805  1.0000
  H   H663      1.0  0.59762  0.75780  0.09797  1.0000
  C   C668      1.0  0.54882  0.69528  0.08860  1.0000
  C   C669      1.0  0.57435  0.71601  0.09161  1.0000
  C   C670      1.0  0.55608  0.74628  0.09578  1.0000
  C   C671      1.0  0.57795  0.74165  0.09525  1.0000
  H   H664      1.0  0.54246  0.94914  0.23371  1.0000
  H   H665      1.0  0.55856  0.76600  0.09918  1.0000
  H   H666      1.0  0.55821  0.80223  0.20746  1.0000
  C   C672      1.0  0.88765  0.74321  0.99486  1.0000
  C   C673      1.0  0.69503  0.92694  0.08043  1.0000
  H   H667      1.0  0.79461  0.82043  0.01981  1.0000
  H   H668      1.0  0.86516  0.79965  0.02976  1.0000
  H   H669      1.0  0.69768  0.64379  0.99949  1.0000
  H   H670      1.0  0.61475  0.87842  0.12821  1.0000
  H   H671      1.0  0.48021  0.49750  0.17107  1.0000
  C   C674      1.0  0.54492  0.71472  0.19620  1.0000
  N   N59       1.0  0.55379  0.76680  0.19335  1.0000
  C   C675      1.0  0.67089  0.92687  0.10993  1.0000
  C   C676      1.0  0.57653  0.67584  0.24227  1.0000
  H   H672      1.0  0.59294  0.77781  0.20384  1.0000
  C   C677      1.0  0.52946  0.74641  0.18844  1.0000
  S   S219      1.0  0.67579  0.95179  0.03660  1.0000
  C   C678      1.0  0.63123  0.88824  0.11861  1.0000
  Fe  Fe109     1.0  0.74881  0.95666  0.99495  1.0000
  C   C679      1.0  0.80768  0.81645  0.01054  1.0000
  S   S220      1.0  0.69706  0.72357  0.99562  1.0000
  C   C680      1.0  0.86068  0.74685  0.02109  1.0000
  C   C681      1.0  0.65933  0.64206  0.99935  1.0000
  C   C682      1.0  0.88377  0.74596  0.01489  1.0000
  H   H673      1.0  0.70050  0.64184  0.03578  1.0000
  C   C683      1.0  0.57371  0.76167  0.19982  1.0000
  H   H674      1.0  0.89865  0.74755  0.02564  1.0000
  C   C684      1.0  0.56960  0.73557  0.20129  1.0000
  H   H675      1.0  0.58538  0.73135  0.20628  1.0000
  H   H676      1.0  0.51369  0.75037  0.18312  1.0000
  H   H677      1.0  0.85821  0.74918  0.03663  1.0000
  H   H678      1.0  0.49215  0.67208  0.10176  1.0000
  H   H679      1.0  0.54332  0.79616  0.18301  1.0000
  H   H680      1.0  0.64797  0.92512  0.13531  1.0000
  Fe  Fe110     1.0  0.73359  0.76355  0.99328  1.0000
  H   H681      1.0  0.71160  0.92314  0.08517  1.0000
  C   C685      1.0  0.68285  0.64088  0.02886  1.0000
  C   C686      1.0  0.66589  0.97209  0.07168  1.0000
  H   H682      1.0  0.68923  0.91983  0.06487  1.0000
  C   C687      1.0  0.68144  0.64215  0.00835  1.0000
  H   H683      1.0  0.48502  0.87257  0.16596  1.0000
  H   H684      1.0  0.58939  0.69690  0.24162  1.0000
  Fe  Fe111     1.0  0.71213  0.97374  0.01712  1.0000
  H   H685      1.0  0.48096  0.52764  0.16234  1.0000
  Fe  Fe112     1.0  0.95631  0.74212  0.99416  1.0000
  H   H686      1.0  0.88515  0.83191  0.01958  1.0000
  H   H687      1.0  0.48125  0.90663  0.14063  1.0000
  S   S221      1.0  0.75403  0.98103  0.02292  1.0000
  H   H688      1.0  0.65447  0.98336  0.02057  1.0000
  C   C688      1.0  0.53379  0.88757  0.24187  1.0000
  H   H689      1.0  0.64951  0.94799  0.99839  1.0000
  H   H690      1.0  0.51341  0.88295  0.23925  1.0000
  H   H691      1.0  0.58994  0.96295  0.23969  1.0000
  H   H692      1.0  0.78889  0.89288  0.00458  1.0000
  S   S222      1.0  0.76382  0.92507  0.99474  1.0000
  C   C689      1.0  0.76188  0.85203  0.99681  1.0000
  C   C690      1.0  0.47735  0.87482  0.18039  1.0000
  H   H693      1.0  0.61489  0.65507  0.45919  1.0000
  Fe  Fe113     1.0  0.70933  0.72286  0.47301  1.0000
  S   S223      1.0  0.67410  0.71521  0.45199  1.0000
  H   H694      1.0  0.49203  0.57075  0.28702  1.0000
  C   C691      1.0  0.64985  0.69091  0.31818  1.0000
  S   S224      1.0  0.74867  0.75991  0.47489  1.0000
  C   C692      1.0  0.66721  0.63055  0.46338  1.0000
  H   H695      1.0  0.62048  0.62981  0.43138  1.0000
  C   C693      1.0  0.57722  0.78827  0.38064  1.0000
  C   C694      1.0  0.51965  0.79789  0.39588  1.0000
  Fe  Fe114     1.0  0.56063  0.88728  0.31821  1.0000
  S   S225      1.0  0.51705  0.86149  0.31969  1.0000
  S   S226      1.0  0.58298  0.89838  0.28946  1.0000
  Fe  Fe115     1.0  0.56917  0.89303  0.36397  1.0000
  S   S227      1.0  0.52537  0.86781  0.36812  1.0000
  S   S228      1.0  0.59685  0.90068  0.39143  1.0000
  Fe  Fe116     1.0  0.52730  0.84126  0.34399  1.0000
  S   S229      1.0  0.50541  0.79681  0.34758  1.0000
  Fe  Fe117     1.0  0.51833  0.89002  0.34352  1.0000
  C   C695      1.0  0.58615  0.95746  0.27100  1.0000
  S   S230      1.0  0.57091  0.86489  0.34094  1.0000
  S   S231      1.0  0.56211  0.91751  0.34086  1.0000
  Fe  Fe118     1.0  0.51349  0.62806  0.35099  1.0000
  S   S232      1.0  0.54193  0.61360  0.34128  1.0000
  H   H696      1.0  0.51413  0.81307  0.39055  1.0000
  Fe  Fe119     1.0  0.55192  0.68563  0.34175  1.0000
  S   S233      1.0  0.58207  0.67415  0.33063  1.0000
  S   S234      1.0  0.56779  0.73004  0.33997  1.0000
  Fe  Fe120     1.0  0.54814  0.63982  0.31530  1.0000
  S   S235      1.0  0.54417  0.62062  0.28477  1.0000
  Fe  Fe121     1.0  0.57359  0.64969  0.35772  1.0000
  S   S236      1.0  0.60901  0.64935  0.37428  1.0000
  S   S237      1.0  0.51856  0.65301  0.32440  1.0000
  S   S238      1.0  0.54457  0.66239  0.36948  1.0000
  C   C696      1.0  0.55006  0.95005  0.24862  1.0000
  C   C697      1.0  0.52168  0.77751  0.34321  1.0000
  C   C698      1.0  0.50922  0.75053  0.34772  1.0000
  C   C699      1.0  0.52268  0.73527  0.34605  1.0000
  C   C700      1.0  0.54868  0.74699  0.33982  1.0000
  C   C701      1.0  0.56079  0.77372  0.33473  1.0000
  C   C702      1.0  0.54737  0.78893  0.33642  1.0000
  H   H697      1.0  0.70393  0.85931  0.46873  1.0000
  H   H698      1.0  0.51321  0.71468  0.35002  1.0000
  H   H699      1.0  0.58088  0.78288  0.32986  1.0000
  H   H700      1.0  0.55706  0.80955  0.33270  1.0000
  C   C703      1.0  0.66695  0.96105  0.43131  1.0000
  C   C704      1.0  0.65464  0.93389  0.43495  1.0000
  C   C705      1.0  0.63340  0.91591  0.42262  1.0000
  C   C706      1.0  0.62405  0.92461  0.40636  1.0000
  C   C707      1.0  0.63651  0.95175  0.40264  1.0000
  C   C708      1.0  0.65770  0.96974  0.41501  1.0000
  H   H701      1.0  0.66132  0.92672  0.44737  1.0000
  H   H702      1.0  0.62403  0.89505  0.42578  1.0000
  H   H703      1.0  0.62970  0.95892  0.39029  1.0000
  S   S239      1.0  0.48922  0.90719  0.34036  1.0000
  Fe  Fe122     1.0  0.71854  0.98442  0.47368  1.0000
  H   H704      1.0  0.61248  0.60687  0.31549  1.0000
  H   H705      1.0  0.65053  0.77270  0.49022  1.0000
  C   C709      1.0  0.65166  0.62509  0.44617  1.0000
  C   C710      1.0  0.65740  0.69787  0.42965  1.0000
  C   C711      1.0  0.66607  0.68297  0.41813  1.0000
  C   C712      1.0  0.65121  0.66852  0.40119  1.0000
  C   C713      1.0  0.62764  0.66896  0.39533  1.0000
  C   C714      1.0  0.61924  0.68420  0.40670  1.0000
  C   C715      1.0  0.63396  0.69843  0.42370  1.0000
  H   H706      1.0  0.68405  0.68231  0.42238  1.0000
  H   H707      1.0  0.65803  0.65688  0.39258  1.0000
  H   H708      1.0  0.60122  0.68482  0.40249  1.0000
  H   H709      1.0  0.62698  0.70988  0.43237  1.0000
  H   H710      1.0  0.53352  0.94097  0.31355  1.0000
  H   H711      1.0  0.53178  0.60031  0.24485  1.0000
  C   C716      1.0  0.87475  0.73179  0.48143  1.0000
  H   H712      1.0  0.57581  0.94759  0.30100  1.0000
  H   H713      1.0  0.73283  0.80972  0.44118  1.0000
  C   C717      1.0  0.56844  0.66419  0.26074  1.0000
  C   C718      1.0  0.55250  0.63682  0.26184  1.0000
  N   N60       1.0  0.68666  0.79469  0.47572  1.0000
  H   H714      1.0  0.57495  0.67631  0.27412  1.0000
  C   C719      1.0  0.57677  0.95779  0.25196  1.0000
  C   C720      1.0  0.54288  0.88698  0.26123  1.0000
  C   C721      1.0  0.56950  0.89429  0.26503  1.0000
  H   H715      1.0  0.53731  0.76285  0.38830  1.0000
  H   H716      1.0  0.52949  0.88176  0.27329  1.0000
  C   C722      1.0  0.66318  0.64438  0.47905  1.0000
  C   C723      1.0  0.56460  0.82918  0.38709  1.0000
  C   C724      1.0  0.58986  0.83496  0.38104  1.0000
  H   H717      1.0  0.55988  0.84534  0.38958  1.0000
  H   H718      1.0  0.60432  0.85535  0.37878  1.0000
  H   H719      1.0  0.51903  0.79748  0.41217  1.0000
  H   H720      1.0  0.88288  0.71899  0.47656  1.0000
  H   H721      1.0  0.48070  0.55779  0.34526  1.0000
  H   H722      1.0  0.58160  0.77197  0.37753  1.0000
  C   C725      1.0  0.56856  0.94914  0.28645  1.0000
  H   H723      1.0  0.70332  0.77257  0.46139  1.0000
  C   C726      1.0  0.70320  0.84004  0.46654  1.0000
  H   H724      1.0  0.48927  0.74155  0.35288  1.0000
  H   H725      1.0  0.62458  0.68173  0.27133  1.0000
  C   C727      1.0  0.60206  0.61867  0.31881  1.0000
  H   H726      1.0  0.50447  0.77866  0.38939  1.0000
  C   C728      1.0  0.61378  0.65145  0.29300  1.0000
  H   H727      1.0  0.59911  0.61869  0.33497  1.0000
  N   N61       1.0  0.64451  0.65294  0.47747  1.0000
  C   C729      1.0  0.71966  0.81234  0.45121  1.0000
  H   H728      1.0  0.66362  0.70621  0.32830  1.0000
  S   S240      1.0  0.72661  0.69757  0.48511  1.0000
  Fe  Fe123     1.0  0.76546  0.73493  0.48964  1.0000
  N   N62       1.0  0.61730  0.64572  0.31196  1.0000
  C   C730      1.0  0.59609  0.81432  0.37765  1.0000
  H   H729      1.0  0.58209  0.60891  0.31157  1.0000
  C   C731      1.0  0.84732  0.72336  0.47912  1.0000
  H   H730      1.0  0.51714  0.90960  0.30033  1.0000
  H   H731      1.0  0.59964  0.63617  0.28303  1.0000
  H   H732      1.0  0.48457  0.60733  0.29976  1.0000
  H   H733      1.0  0.63854  0.66032  0.33935  1.0000
  C   C732      1.0  0.53301  0.94184  0.26443  1.0000
  C   C733      1.0  0.55212  0.78322  0.38663  1.0000
  C   C734      1.0  0.63231  0.63342  0.44485  1.0000
  H   H734      1.0  0.75817  0.97726  0.40977  1.0000
  H   H735      1.0  0.83473  0.70413  0.47236  1.0000
  C   C735      1.0  0.63552  0.66489  0.32437  1.0000
  H   H736      1.0  0.64379  0.68754  0.48853  1.0000
  C   C736      1.0  0.62918  0.64765  0.46066  1.0000
  C   C737      1.0  0.58655  0.90085  0.24909  1.0000
  H   H737      1.0  0.60718  0.90656  0.25186  1.0000
  N   N63       1.0  0.54599  0.80354  0.38947  1.0000
  H   H738      1.0  0.50655  0.93458  0.29701  1.0000
  C   C738      1.0  0.70297  0.79140  0.46275  1.0000
  H   H739      1.0  0.66550  0.75330  0.48112  1.0000
  H   H740      1.0  0.65483  0.61476  0.43377  1.0000
  H   H741      1.0  0.51212  0.93485  0.26161  1.0000
  H   H742      1.0  0.61537  0.81847  0.37246  1.0000
  H   H743      1.0  0.73297  0.85343  0.44465  1.0000
  N   N64       1.0  0.54241  0.94163  0.28307  1.0000
  H   H744      1.0  0.65655  0.71727  0.29411  1.0000
  H   H745      1.0  0.68253  0.62445  0.46454  1.0000
  C   C739      1.0  0.68697  0.81874  0.47798  1.0000
  C   C740      1.0  0.83600  0.73949  0.48538  1.0000
  H   H746      1.0  0.76678  0.83954  0.48692  1.0000
  H   H747      1.0  0.77418  0.88461  0.47791  1.0000
  H   H748      1.0  0.60660  0.96212  0.27365  1.0000
  S   S241      1.0  0.75578  0.98113  0.46907  1.0000
  C   C741      1.0  0.54402  0.62149  0.24423  1.0000
  S   S242      1.0  0.80100  0.72749  0.48198  1.0000
  C   C742      1.0  0.64585  0.69709  0.29903  1.0000
  S   S243      1.0  0.69385  0.98503  0.44644  1.0000
  C   C743      1.0  0.62788  0.67721  0.28627  1.0000
  C   C744      1.0  0.89156  0.75677  0.48985  1.0000
  C   C745      1.0  0.52404  0.93123  0.29919  1.0000
  C   C746      1.0  0.71964  0.83677  0.45309  1.0000
  S   S244      1.0  0.75283  0.91897  0.49114  1.0000
  C   C747      1.0  0.66971  0.77275  0.48803  1.0000
  H   H749      1.0  0.67510  0.82178  0.48900  1.0000
  C   C748      1.0  0.76077  0.87442  0.48947  1.0000
  H   H750      1.0  0.67537  0.64853  0.49237  1.0000
  S   S245      1.0  0.95023  0.71087  0.49204  1.0000
  Fe  Fe124     1.0  0.86827  0.51619  0.64225  1.0000
  S   S246      1.0  0.91030  0.54793  0.64490  1.0000
  C   C749      1.0  0.97539  0.60103  0.64630  1.0000
  Fe  Fe125     1.0  0.84757  0.55631  0.65107  1.0000
  S   S247      1.0  0.88839  0.59075  0.65447  1.0000
  S   S248      1.0  0.81321  0.56299  0.66031  1.0000
  Fe  Fe126     1.0  0.89725  0.57351  0.62712  1.0000
  S   S249      1.0  0.92096  0.59477  0.59989  1.0000
  Fe  Fe127     1.0  0.89759  0.56251  0.67186  1.0000
  S   S250      1.0  0.92013  0.57045  0.70143  1.0000
  S   S251      1.0  0.85554  0.54044  0.62290  1.0000
  S   S252      1.0  0.85659  0.52951  0.66997  1.0000
  Fe  Fe128     1.0  0.65987  0.55272  0.67324  1.0000
  S   S253      1.0  0.64434  0.51174  0.65962  1.0000
  S   S254      1.0  0.67628  0.56181  0.70496  1.0000
  Fe  Fe129     1.0  0.65853  0.57761  0.63262  1.0000
  S   S255      1.0  0.64190  0.53802  0.61677  1.0000
  S   S256      1.0  0.67142  0.61826  0.61863  1.0000
  Fe  Fe130     1.0  0.61573  0.52138  0.64283  1.0000
  C   C750      1.0  0.96547  0.63457  0.63469  1.0000
  Fe  Fe131     1.0  0.67187  0.53189  0.63506  1.0000
  S   S257      1.0  0.69937  0.51917  0.62013  1.0000
  S   S258      1.0  0.63017  0.56185  0.65763  1.0000
  S   S259      1.0  0.68946  0.57202  0.64968  1.0000
  C   C751      1.0  0.91161  0.72000  0.53563  1.0000
  C   C752      1.0  0.85928  0.69800  0.52301  1.0000
  C   C753      1.0  0.58011  0.54024  0.60354  1.0000
  S   S260      1.0  0.69792  0.72952  0.50326  1.0000
  S   S261      1.0  0.75607  0.74282  0.52053  1.0000
  H   H751      1.0  0.57546  0.54799  0.63381  1.0000
  Fe  Fe132     1.0  0.71699  0.70599  0.51561  1.0000
  S   S262      1.0  0.69442  0.66655  0.53189  1.0000
  Fe  Fe133     1.0  0.73739  0.76599  0.50549  1.0000
  S   S263      1.0  0.73289  0.80242  0.51663  1.0000
  C   C754      1.0  0.60981  0.59469  0.60145  1.0000
  C   C755      1.0  0.95684  0.62113  0.66838  1.0000
  S   S264      1.0  0.96087  0.70051  0.54894  1.0000
  C   C756      1.0  0.73942  0.83515  0.50954  1.0000
  H   H752      1.0  0.80591  0.50123  0.71192  1.0000
  C   C757      1.0  0.73063  0.87341  0.51412  1.0000
  C   C758      1.0  0.72669  0.84788  0.51935  1.0000
  H   H753      1.0  0.72047  0.88262  0.52178  1.0000
  H   H754      1.0  0.71356  0.83785  0.53110  1.0000
  H   H755      1.0  0.86259  0.73631  0.52989  1.0000
  H   H756      1.0  0.94825  0.65070  0.65553  1.0000
  H   H757      1.0  0.58884  0.53849  0.57303  1.0000
  C   C759      1.0  0.87241  0.68260  0.52245  1.0000
  H   H758      1.0  0.91206  0.76400  0.55900  1.0000
  H   H759      1.0  0.97166  0.59356  0.60587  1.0000
  N   N65       1.0  0.59888  0.58372  0.61885  1.0000
  C   C760      1.0  0.67930  0.63127  0.59441  1.0000
  C   C761      1.0  0.69060  0.65887  0.59213  1.0000
  C   C762      1.0  0.69610  0.67012  0.57328  1.0000
  C   C763      1.0  0.68995  0.65386  0.55629  1.0000
  C   C764      1.0  0.67868  0.62622  0.55860  1.0000
  C   C765      1.0  0.67365  0.61501  0.57746  1.0000
  H   H760      1.0  0.69506  0.67177  0.60505  1.0000
  H   H761      1.0  0.70465  0.69136  0.57190  1.0000
  H   H762      1.0  0.67381  0.61336  0.54563  1.0000
  H   H763      1.0  0.66496  0.59377  0.57881  1.0000
  C   C766      1.0  0.93058  0.62391  0.58555  1.0000
  C   C767      1.0  0.92749  0.64580  0.59195  1.0000
  C   C768      1.0  0.93684  0.66887  0.58057  1.0000
  C   C769      1.0  0.94910  0.67044  0.56245  1.0000
  N   N66       1.0  0.97488  0.61674  0.63147  1.0000
  C   C770      1.0  0.94292  0.62553  0.56749  1.0000
  H   H764      1.0  0.93453  0.68566  0.58585  1.0000
  Fe  Fe134     1.0  0.74446  0.95502  0.49556  1.0000
  H   H765      1.0  0.91812  0.64509  0.60575  1.0000
  H   H766      1.0  0.94926  0.62234  0.68270  1.0000
  C   C771      1.0  0.78155  0.54930  0.64903  1.0000
  C   C772      1.0  0.77583  0.53627  0.63057  1.0000
  C   C773      1.0  0.75032  0.52641  0.62200  1.0000
  C   C774      1.0  0.73058  0.52977  0.63174  1.0000
  C   C775      1.0  0.73633  0.54249  0.65027  1.0000
  C   C776      1.0  0.76170  0.55223  0.65884  1.0000
  H   H767      1.0  0.79108  0.53406  0.62285  1.0000
  C   C777      1.0  0.91283  0.76282  0.54274  1.0000
  H   H768      1.0  0.72125  0.54488  0.65806  1.0000
  H   H769      1.0  0.76597  0.56226  0.67313  1.0000
  H   H770      1.0  0.86234  0.66227  0.51687  1.0000
  C   C778      1.0  0.90627  0.56960  0.72493  1.0000
  C   C779      1.0  0.88393  0.57332  0.72710  1.0000
  H   H771      1.0  0.59360  0.58982  0.64939  1.0000
  H   H772      1.0  0.87414  0.57598  0.71419  1.0000
  H   H773      1.0  0.61547  0.58749  0.57105  1.0000
  C   C780      1.0  0.66017  0.55687  0.72784  1.0000
  C   C781      1.0  0.63329  0.54945  0.72898  1.0000
  H   H774      1.0  0.78166  0.51524  0.68795  1.0000
  H   H775      1.0  0.62156  0.54625  0.71560  1.0000
  H   H776      1.0  0.93376  0.77197  0.53832  1.0000
  C   C782      1.0  0.74773  0.88698  0.49909  1.0000
  C   C783      1.0  0.89868  0.69356  0.52896  1.0000
  C   C784      1.0  0.78328  0.49026  0.66435  1.0000
  C   C785      1.0  0.87279  0.72432  0.52992  1.0000
  C   C786      1.0  0.60629  0.57866  0.58469  1.0000
  S   S265      1.0  0.70624  0.95728  0.49964  1.0000
  C   C787      1.0  0.64070  0.66794  0.49372  1.0000
  C   C788      1.0  0.78787  0.50056  0.68367  1.0000
  H   H777      1.0  0.74597  0.51657  0.60764  1.0000
  N   N67       1.0  0.73688  0.59780  0.61188  1.0000
  C   C789      1.0  0.73946  0.61781  0.62460  1.0000
  C   C790      1.0  0.75568  0.58935  0.61168  1.0000
  C   C791      1.0  0.76054  0.62885  0.63833  1.0000
  C   C792      1.0  0.77728  0.60032  0.62496  1.0000
  C   C793      1.0  0.77946  0.61987  0.63856  1.0000
  C   C794      1.0  0.71444  0.58613  0.59781  1.0000
  H   H778      1.0  0.72480  0.62487  0.62451  1.0000
  H   H779      1.0  0.75371  0.57357  0.60155  1.0000
  H   H780      1.0  0.76200  0.64405  0.64884  1.0000
  H   H781      1.0  0.79191  0.59323  0.62504  1.0000
  H   H782      1.0  0.79571  0.62789  0.64932  1.0000
  H   H783      1.0  0.69680  0.58648  0.60402  1.0000
  H   H784      1.0  0.71938  0.59737  0.58401  1.0000
  H   H785      1.0  0.70884  0.56497  0.59443  1.0000
  H   H786      1.0  0.93209  0.72845  0.54054  1.0000
  H   H787      1.0  0.56869  0.51890  0.60467  1.0000
  H   H788      1.0  0.62501  0.61204  0.63990  1.0000
  H   H789      1.0  0.93620  0.56374  0.74056  1.0000
  H   H790      1.0  0.90428  0.77484  0.53592  1.0000
  N   N68       1.0  0.89879  0.73514  0.53570  1.0000
  C   C795      1.0  0.95629  0.63701  0.65316  1.0000
  C   C796      1.0  0.60351  0.60110  0.63623  1.0000
  C   C797      1.0  0.75657  0.84873  0.49454  1.0000
  H   H791      1.0  0.59612  0.61564  0.63330  1.0000
  H   H792      1.0  0.90917  0.68182  0.52870  1.0000
  C   C798      1.0  0.58404  0.55685  0.62002  1.0000
  C   C799      1.0  0.59142  0.55124  0.58581  1.0000
  C   C800      1.0  0.95188  0.64843  0.55596  1.0000
  H   H793      1.0  0.62198  0.61596  0.60062  1.0000
  H   H794      1.0  0.83898  0.68991  0.51766  1.0000
  H   H795      1.0  0.94553  0.60887  0.56229  1.0000
  H   H796      1.0  0.96440  0.64656  0.62281  1.0000
  H   H797      1.0  0.62049  0.65691  0.49930  1.0000
  H   H798      1.0  0.77303  0.49673  0.65397  1.0000
  S   S266      1.0  0.57078  0.49615  0.64202  1.0000
  C   C801      1.0  0.96649  0.60305  0.66497  1.0000
  H   H799      1.0  0.96125  0.64914  0.54215  1.0000
  C   C802      1.0  0.91884  0.56650  0.74199  1.0000
  H   H800      1.0  0.67965  0.77474  0.50263  1.0000
  H   H801      1.0  0.96636  0.59019  0.67664  1.0000
  C   C803      1.0  0.85280  0.76439  0.49395  1.0000
  H   H802      1.0  0.65487  0.67157  0.50626  1.0000
  H   H803      1.0  0.89292  0.79245  0.50234  1.0000
  H   H804      1.0  0.84468  0.77722  0.49874  1.0000
  C   C804      1.0  0.80149  0.49272  0.69707  1.0000
  C   C805      1.0  0.88028  0.77300  0.49596  1.0000
  S   S267      1.0  0.92643  0.76853  0.49375  1.0000
  Fe  Fe135     1.0  0.95768  0.75327  0.49334  1.0000
  Fe  Fe136     1.0  0.68323  0.55210  0.84620  1.0000
  S   S268      1.0  0.67193  0.58288  0.83582  1.0000
  S   S269      1.0  0.72776  0.56896  0.84848  1.0000
  Fe  Fe137     1.0  0.62548  0.51233  0.85321  1.0000
  S   S270      1.0  0.61130  0.54143  0.84431  1.0000
  C   C806      1.0  0.84059  0.80478  0.98747  1.0000
  Fe  Fe138     1.0  0.63871  0.54957  0.81892  1.0000
  S   S271      1.0  0.62123  0.54835  0.78810  1.0000
  Fe  Fe139     1.0  0.64631  0.57216  0.86231  1.0000
  S   S272      1.0  0.64762  0.60711  0.88085  1.0000
  S   S273      1.0  0.65192  0.51951  0.82732  1.0000
  S   S274      1.0  0.65856  0.54232  0.87314  1.0000
  Fe  Fe140     1.0  0.89134  0.57039  0.86271  1.0000
  S   S275      1.0  0.86657  0.52644  0.86784  1.0000
  S   S276      1.0  0.90215  0.59725  0.89103  1.0000
  Fe  Fe141     1.0  0.88137  0.56126  0.81697  1.0000
  S   S277      1.0  0.85673  0.51764  0.82009  1.0000
  S   S278      1.0  0.87656  0.57622  0.78673  1.0000
  Fe  Fe142     1.0  0.83823  0.52809  0.84523  1.0000
  S   S279      1.0  0.79364  0.50492  0.84566  1.0000
  Fe  Fe143     1.0  0.88718  0.51961  0.84221  1.0000
  C   C807      1.0  0.92405  0.70853  0.94565  1.0000
  S   S280      1.0  0.86122  0.57172  0.84136  1.0000
  S   S281      1.0  0.91380  0.56348  0.83788  1.0000
  C   C808      1.0  0.74894  0.92983  0.94663  1.0000
  H   H805      1.0  0.78944  0.94080  0.95441  1.0000
  H   H806      1.0  0.80697  0.98266  0.93591  1.0000
  H   H807      1.0  0.71136  0.51217  0.84386  1.0000
  H   H808      1.0  0.74157  0.91173  0.95480  1.0000
  S   S282      1.0  0.70776  0.66788  0.96148  1.0000
  H   H809      1.0  0.90437  0.70130  0.95223  1.0000
  S   S283      1.0  0.75606  0.74579  0.97647  1.0000
  H   H810      1.0  0.85821  0.57866  0.74751  1.0000
  H   H811      1.0  0.73780  0.48769  0.84273  1.0000
  H   H812      1.0  0.87039  0.73902  0.96571  1.0000
  H   H813      1.0  0.73919  0.59114  0.91281  1.0000
  H   H814      1.0  0.93327  0.73052  0.94604  1.0000
  C   C809      1.0  0.92115  0.67651  0.88830  1.0000
  C   C810      1.0  0.81807  0.80456  0.97888  1.0000
  H   H815      1.0  0.88433  0.66542  0.92884  1.0000
  C   C811      1.0  0.80158  0.81049  0.99052  1.0000
  C   C812      1.0  0.62169  0.54681  0.74752  1.0000
  H   H816      1.0  0.93401  0.65481  0.95098  1.0000
  C   C813      1.0  0.77420  0.58839  0.80411  1.0000
  C   C814      1.0  0.88760  0.57194  0.76314  1.0000
  C   C815      1.0  0.90940  0.56731  0.76094  1.0000
  H   H817      1.0  0.93622  0.70238  0.95503  1.0000
  H   H818      1.0  0.91956  0.56529  0.77387  1.0000
  H   H819      1.0  0.92115  0.66728  0.87419  1.0000
  C   C816      1.0  0.92721  0.62365  0.90582  1.0000
  C   C817      1.0  0.95228  0.64027  0.89888  1.0000
  N   N69       1.0  0.92236  0.69818  0.92551  1.0000
  H   H820      1.0  0.95750  0.63650  0.88438  1.0000
  C   C818      1.0  0.93929  0.65097  0.93652  1.0000
  C   C819      1.0  0.92108  0.62903  0.92485  1.0000
  S   S284      1.0  0.70697  0.94861  0.98971  1.0000
  H   H821      1.0  0.60278  0.49751  0.80471  1.0000
  C   C820      1.0  0.63671  0.55125  0.76513  1.0000
  H   H822      1.0  0.90190  0.61628  0.93052  1.0000
  S   S285      1.0  0.69998  0.98453  0.94384  1.0000
  H   H823      1.0  0.67531  0.56179  0.77736  1.0000
  H   H824      1.0  0.69814  0.90967  0.95236  1.0000
  C   C821      1.0  0.66341  0.62303  0.90381  1.0000
  C   C822      1.0  0.66512  0.64788  0.90892  1.0000
  C   C823      1.0  0.67831  0.66181  0.92650  1.0000
  C   C824      1.0  0.68977  0.65092  0.93942  1.0000
  C   C825      1.0  0.68756  0.62580  0.93452  1.0000
  C   C826      1.0  0.67466  0.61203  0.91682  1.0000
  H   H825      1.0  0.65640  0.65659  0.89908  1.0000
  H   H826      1.0  0.67967  0.68101  0.92998  1.0000
  H   H827      1.0  0.69616  0.61702  0.94439  1.0000
  H   H828      1.0  0.67337  0.59288  0.91327  1.0000
  C   C827      1.0  0.74514  0.55023  0.84902  1.0000
  C   C828      1.0  0.77266  0.56372  0.85161  1.0000
  C   C829      1.0  0.78762  0.54997  0.85088  1.0000
  C   C830      1.0  0.77518  0.52254  0.84757  1.0000
  C   C831      1.0  0.74759  0.50894  0.84522  1.0000
  C   C832      1.0  0.73257  0.52274  0.84591  1.0000
  H   H829      1.0  0.78253  0.58499  0.85397  1.0000
  H   H830      1.0  0.80876  0.56062  0.85295  1.0000
  C   C833      1.0  0.74185  0.63783  0.90925  1.0000
  N   N70       1.0  0.73198  0.61802  0.89507  1.0000
  C   C834      1.0  0.71954  0.62057  0.87849  1.0000
  H   H831      1.0  0.82545  0.54284  0.80707  1.0000
  C   C835      1.0  0.71595  0.64300  0.87602  1.0000
  C   C836      1.0  0.73865  0.66060  0.90726  1.0000
  C   C837      1.0  0.72546  0.66306  0.89057  1.0000
  C   C838      1.0  0.96406  0.66804  0.92934  1.0000
  H   H832      1.0  0.71180  0.60490  0.86727  1.0000
  H   H833      1.0  0.75158  0.63584  0.92249  1.0000
  H   H834      1.0  0.70482  0.64421  0.86330  1.0000
  H   H835      1.0  0.74533  0.67569  0.91898  1.0000
  H   H836      1.0  0.72180  0.68003  0.88923  1.0000
  N   N71       1.0  0.73189  0.93695  0.93732  1.0000
  H   H837      1.0  0.65412  0.95333  0.97262  1.0000
  H   H838      1.0  0.69721  0.90419  0.92596  1.0000
  S   S286      1.0  0.72708  0.79946  0.98437  1.0000
  H   H839      1.0  0.88300  0.64576  0.89579  1.0000
  Fe  Fe144     1.0  0.72085  0.70587  0.98107  1.0000
  H   H840      1.0  0.76565  0.60168  0.80630  1.0000
  H   H841      1.0  0.69219  0.93094  0.93630  1.0000
  H   H842      1.0  0.81314  0.79931  0.96340  1.0000
  C   C839      1.0  0.94326  0.69953  0.89492  1.0000
  C   C840      1.0  0.70344  0.91953  0.93796  1.0000
  C   C841      1.0  0.74129  0.95963  0.92679  1.0000
  H   H843      1.0  0.96057  0.70837  0.88599  1.0000
  S   S287      1.0  0.90109  0.48806  0.83777  1.0000
  C   C842      1.0  0.90060  0.67558  0.91915  1.0000
  C   C843      1.0  0.67513  0.56114  0.74546  1.0000
  C   C844      1.0  0.76841  0.97635  0.92603  1.0000
  C   C845      1.0  0.66348  0.55821  0.76398  1.0000
  N   N72       1.0  0.79591  0.55398  0.79986  1.0000
  C   C846      1.0  0.81203  0.58072  0.80065  1.0000
  C   C847      1.0  0.76916  0.54407  0.80070  1.0000
  C   C848      1.0  0.80144  0.59833  0.80292  1.0000
  C   C849      1.0  0.75791  0.56111  0.80280  1.0000
  H   H844      1.0  0.73675  0.55322  0.80413  1.0000
  H   H845      1.0  0.79388  0.51558  0.80180  1.0000
  H   H846      1.0  0.72781  0.96518  0.91922  1.0000
  H   H847      1.0  0.75639  0.52287  0.80030  1.0000
  C   C850      1.0  0.80754  0.53604  0.79744  1.0000
  H   H848      1.0  0.96142  0.72706  0.91926  1.0000
  C   C851      1.0  0.73533  0.59418  0.89723  1.0000
  H   H849      1.0  0.81431  0.61951  0.80387  1.0000
  H   H850      1.0  0.71718  0.57626  0.89205  1.0000
  H   H851      1.0  0.75187  0.59560  0.88816  1.0000
  H   H852      1.0  0.83324  0.58850  0.79970  1.0000
  C   C852      1.0  0.87491  0.57483  0.74607  1.0000
  H   H853      1.0  0.69593  0.56695  0.74475  1.0000
  C   C853      1.0  0.94358  0.71007  0.91373  1.0000
  H   H854      1.0  0.56640  0.50606  0.79297  1.0000
  H   H855      1.0  0.81336  0.53588  0.78196  1.0000
  C   C854      1.0  0.89963  0.66445  0.90043  1.0000
  C   C855      1.0  0.84458  0.74181  0.98746  1.0000
  C   C856      1.0  0.77616  0.94612  0.94626  1.0000
  C   C857      1.0  0.64517  0.95761  0.98571  1.0000
  H   H856      1.0  0.82975  0.74031  0.97671  1.0000
  C   C858      1.0  0.86779  0.74115  0.98124  1.0000
  H   H857      1.0  0.78379  0.80995  0.98411  1.0000
  H   H858      1.0  0.60101  0.54154  0.74822  1.0000
  S   S288      1.0  0.91688  0.74278  0.98589  1.0000
  C   C859      1.0  0.78592  0.96957  0.93593  1.0000
  C   C860      1.0  0.97048  0.66223  0.91055  1.0000
  H   H859      1.0  0.62350  0.94864  0.98325  1.0000
  H   H860      1.0  0.66919  0.98055  0.90869  1.0000
  H   H861      1.0  0.65841  0.64373  0.98347  1.0000
  C   C861      1.0  0.73708  0.83423  0.98871  1.0000
  C   C862      1.0  0.71986  0.84453  0.98302  1.0000
  H   H862      1.0  0.71344  0.87912  0.98107  1.0000
  C   C863      1.0  0.72714  0.87188  0.98541  1.0000
  H   H863      1.0  0.85300  0.79958  0.97843  1.0000
  H   H864      1.0  0.70061  0.83116  0.97676  1.0000
  C   C864      1.0  0.56229  0.48622  0.79715  1.0000
