data_image0
_chemical_formula_structural       CFeS2FeS2FeSFeS3H2SCFeSC2S2Fe2SHSFeS2FeSHFeSFeS3C8H2CHNFeCHCHC6H4C6H4C6H5C4HSH3NC6H6NC6H8CH2CHC6H3CHCH3SHNFeCHSHCH3CHSFeC2H4CHCH4FeS2FeSCFeSFeSHFeS2FeS2Fe2S3HFeS2FeSFeS4HFeS2FeSFeHS2C4HC2HCH3CHC4H2C7H4C6H4CH3CHC6H5C4SHC4HCSCN2S2NC6H2CH5NC6H8NC6H8FeNFeHCHCH2CH3CHC2HC2HCSH2C4HCHCHSCNH4SCH3FeH2SCHC4H3FeSCHFeS2FeS2FeSFeS3H2C3HC2HCH2C6H5SHSHSHC6H4SHCHCHC4H2NCH2CH4CH2C3HCHCSH2NC7H3C2H2C3H3C2HNCH4CHCNHCHCHSHNC3HSH2CH2CHSCHC3SCH2FeH2C2SH2CFeSHCFeS2FeS2FeSFeS3HS2HSH2CSCSC6H4C6H4C6H5C6H3NC6H3C3H5CH5CNCSC2SHCH2SH4NCH3CH2CNC2SCHCH2C2H2SCH5CHC2HFeHCFeH2CFeSC2FeCHSHC2HCFeNH5CHS2CSH2SCFeSNCH2FeS2FeS2FeSFeS3HC3SC2H2CFeC6H3C6H4C2HC2SC3HC6H4SHNFeHC2SHC2H2CHCSH2CSCH4CFeCH2C3HCNH4NC2HSH2C2H3SC2HCFeSC2H3NCHC2HCHSNHCHCH4CH2C2FeHC4H3CH2C2FeS2FeHCFeSHCSHFeS2FeS2FeSFeS3C6H5C6H3C6H4C2SH2SHC3HCH3CH3CHC4NHCHSNHCH2C3HC2H3C3H4C2HC2HC2NC2HSHC2HC2H4CNH2CNHCH9C2FeSH2SHFeS2NHSHFeS2FeHFeS2FeSFeS2FeSFeS3FeS2FeCHCHFeS2HFeH2C3H2C6H4SHC6H4C2HC4FeH2C6H4C4H2C4HC2HCH4NCSNC6H8CHFeCH5SC3H4NC3HFeCHFeSHNC2HCH4CNC6H3SH4CH2CSCSC2HFeSH4C3H2NSCHCHC3HFeSFeS2FeSFeS3FeS2CH2SCS2FeS2FeSHCFeS2C2SHFeH3SHCFeHCFe2NHC5H2SHCH2CSNC2H3CH3SCHC3HC3HC9H4C6H4C6H5CH4C2HCH3C2NSH4S2CHCH4CNC3H3NC5SCHCH2NCHCHCH3CHC2HCNSHCNHFeH4FeCHCH2C2H2C3HCHCFeS2FeSFeS2FeSFeS3FeHCFeS2HCFeS3H2CH3SC2SHFeSHSHC2H2CHFeSHC2HCNCHSH2C6H4C6H4CFeCHSH3C7H5C2HC3H3NC6H8NC6SC5H2CHCHFeHCFeC2H4C2NC4H4NH2SCHCSC2FeC3HNH4C2HC2HNH2CHSCHSHCFeC2HCHFeS2FeHSFeCFeCS2FeS2FeS2Fe2S3FeS2FeHFeSCSC2NHFeCS2FeSNSHCH2SNH2S2C2HFeH3C6H4C6H4C6H5C6H4C4HCH3NHSH2CHC2FeCH3C4H10C5SC3HC3SCSCHC2HC2H6CH3NHC5HSHC2NCSHSCFeC4H6CHC2HCSCHCHSCS2FeHFeSHFeS2FeS2FeSFeS3HC5H4C3H2C6H5C7H5SC2FeCH2C2NC6H8CHNH2SC3H3C2HC2H3SCH2NC6H8NCH2CH2S2HC2S2C2H4C4HC2H2NH4CS2FeCSH2CHCHNS2FeS2FeS2FeSFeS3C4HC3H4C4H3C4HSH2CHC6H5C6H4FeCHSCHCHCHSC2SCHCNH2C3H2CNC6H9SHSFeHCHCHC3H2CFeN2H3FeCHC2HC2HCH2CNHFeHCH3CS2CHSHCFeC2H2CH5CSFeS2FeS2FeS2FeSFeS3HCFeS6C6H4C6H4C6H4CH2C2SCHCSC3HC2H3NC6H4SH2NH2SH7C2HCH4C2HC2H2C4NH4NH2CHCHCFeCH3CHNCHCFeHFeCSNH2CHCHC3H3C2HCH2FeS2FeS2FeSFeS4H3FeCSHNH3SFeHCHC6HCH2C6H4C6H4C7H6NCH2C2SNH3CH2C2HC2HCFeCHNC6H9CH2SHC2H2CHNH3C2SH2C3NH2C6HCSH3CH3SCH3SHFe2S2CH2CFeHSFeS2FeS2FeCFeS3FeS2FeSFeSFeS5FeS2H2CFeSCNSHC2H4C4HCH3C6H4C3H2SH2C7H5C7H2C6H6CSCHNH2FeCHCHSHCHC2NCHC2HC3NC6H9CHCSC2HC2H2CH2C2H3C2FeH5CNC6H2CFeCHC3H5CNCHSH2FeCNHFeC2HC2NCHSHFeS2HSCFeHFeSCS2HSC2FeSCFeS2FeS2Fe2S3FeS2HSHFeSFeS3CH3C2H2FeCHCNC4H3C6H4SC6H5NHSC6H4CH2CSH3NC6H8CH6C7H2C2HNC6H8NC6H6CH3SHC3HFeH2C2H
_chemical_formula_sum              "C1152 Fe192 S384 H1152 N96"
_cell_length_a       62.2138
_cell_length_b       61.9375
_cell_length_c       61.8065
_cell_angle_alpha    79.7751
_cell_angle_beta     79.7758
_cell_angle_gamma    79.723

_space_group_name_H-M_alt    "P 1"
_space_group_IT_number       1

loop_
  _space_group_symop_operation_xyz
  'x, y, z'

loop_
  _atom_site_type_symbol
  _atom_site_label
  _atom_site_symmetry_multiplicity
  _atom_site_fract_x
  _atom_site_fract_y
  _atom_site_fract_z
  _atom_site_occupancy
  C   C1        1.0  0.20575  0.26930  0.48090  1.0000
  Fe  Fe1       1.0  0.09585  0.23827  0.21284  1.0000
  S   S1        1.0  0.07803  0.21443  0.20211  1.0000
  S   S2        1.0  0.11875  0.26095  0.19200  1.0000
  Fe  Fe2       1.0  0.08337  0.22148  0.26209  1.0000
  S   S3        1.0  0.06392  0.19648  0.25567  1.0000
  S   S4        1.0  0.08725  0.22633  0.29656  1.0000
  Fe  Fe3       1.0  0.09275  0.18956  0.22878  1.0000
  S   S5        1.0  0.10892  0.15506  0.22263  1.0000
  Fe  Fe4       1.0  0.05055  0.22344  0.22969  1.0000
  S   S6        1.0  0.01478  0.23551  0.22378  1.0000
  S   S7        1.0  0.11271  0.21271  0.23707  1.0000
  S   S8        1.0  0.06774  0.24921  0.23856  1.0000
  H   H1        1.0  0.10386  0.16675  0.26966  1.0000
  H   H2        1.0  0.15841  0.32004  0.16295  1.0000
  S   S9        1.0  0.20893  0.12337  0.23600  1.0000
  C   C2        1.0  0.15692  0.14535  0.30673  1.0000
  Fe  Fe5       1.0  0.21818  0.27816  0.07118  1.0000
  S   S10       1.0  0.19063  0.27489  0.05355  1.0000
  C   C3        1.0  0.15025  0.15824  0.32380  1.0000
  C   C4        1.0  0.14150  0.14290  0.29372  1.0000
  S   S11       1.0  0.21068  0.22130  0.05680  1.0000
  S   S12       1.0  0.20678  0.33534  0.17600  1.0000
  Fe  Fe6       1.0  0.21600  0.25286  0.03309  1.0000
  Fe  Fe7       1.0  0.18745  0.24398  0.07833  1.0000
  S   S13       1.0  0.15422  0.23579  0.09584  1.0000
  H   H3        1.0  0.13169  0.27956  0.48269  1.0000
  S   S14       1.0  0.21300  0.24904  0.09740  1.0000
  Fe  Fe8       1.0  0.18861  0.23257  0.34892  1.0000
  S   S15       1.0  0.16345  0.25804  0.36466  1.0000
  S   S16       1.0  0.18003  0.20752  0.33057  1.0000
  Fe  Fe9       1.0  0.23665  0.22902  0.07423  1.0000
  S   S17       1.0  0.20495  0.28126  0.37169  1.0000
  H   H4        1.0  0.15584  0.30172  0.45471  1.0000
  Fe  Fe10      1.0  0.18608  0.25423  0.39041  1.0000
  S   S18       1.0  0.17328  0.24942  0.42758  1.0000
  Fe  Fe11      1.0  0.18478  0.28234  0.34458  1.0000
  S   S19       1.0  0.17139  0.31070  0.32013  1.0000
  S   S20       1.0  0.20966  0.22633  0.37623  1.0000
  S   S21       1.0  0.20870  0.25708  0.32748  1.0000
  C   C5        1.0  0.16356  0.32602  0.11083  1.0000
  C   C6        1.0  0.12833  0.16845  0.32765  1.0000
  C   C7        1.0  0.22903  0.34205  0.27752  1.0000
  C   C8        1.0  0.21147  0.32515  0.31335  1.0000
  C   C9        1.0  0.19330  0.32320  0.30380  1.0000
  C   C10       1.0  0.19287  0.33090  0.28110  1.0000
  C   C11       1.0  0.21091  0.33998  0.26787  1.0000
  C   C12       1.0  0.22640  0.33616  0.10972  1.0000
  H   H5        1.0  0.14686  0.13289  0.28044  1.0000
  H   H6        1.0  0.17878  0.32957  0.27367  1.0000
  C   C13       1.0  0.13144  0.29898  0.11601  1.0000
  H   H7        1.0  0.23343  0.34736  0.09584  1.0000
  N   N1        1.0  0.12012  0.15326  0.29740  1.0000
  Fe  Fe12      1.0  0.23049  0.35485  0.18533  1.0000
  C   C14       1.0  0.21305  0.32779  0.14917  1.0000
  H   H8        1.0  0.08766  0.15102  0.29203  1.0000
  C   C15       1.0  0.20734  0.30795  0.14550  1.0000
  H   H9        1.0  0.00960  0.18875  0.23913  1.0000
  C   C16       1.0  0.11362  0.22279  0.30467  1.0000
  C   C17       1.0  0.11530  0.22819  0.32534  1.0000
  C   C18       1.0  0.13585  0.22465  0.33287  1.0000
  C   C19       1.0  0.15484  0.21529  0.31994  1.0000
  C   C20       1.0  0.15326  0.21023  0.29909  1.0000
  C   C21       1.0  0.13275  0.21415  0.29138  1.0000
  H   H10       1.0  0.10058  0.23481  0.33576  1.0000
  H   H11       1.0  0.13683  0.22827  0.34913  1.0000
  H   H12       1.0  0.16786  0.20282  0.28908  1.0000
  H   H13       1.0  0.13174  0.20976  0.27554  1.0000
  C   C22       1.0  0.13693  0.14669  0.22583  1.0000
  C   C23       1.0  0.14870  0.12772  0.21734  1.0000
  C   C24       1.0  0.17102  0.12066  0.21985  1.0000
  C   C25       1.0  0.18152  0.13236  0.23120  1.0000
  C   C26       1.0  0.16980  0.15133  0.23960  1.0000
  C   C27       1.0  0.14763  0.15851  0.23685  1.0000
  H   H14       1.0  0.14054  0.11842  0.20885  1.0000
  H   H15       1.0  0.17990  0.10588  0.21347  1.0000
  H   H16       1.0  0.17783  0.16042  0.24844  1.0000
  H   H17       1.0  0.13882  0.17284  0.24384  1.0000
  C   C28       1.0  0.12898  0.25314  0.16572  1.0000
  C   C29       1.0  0.15000  0.25727  0.15513  1.0000
  C   C30       1.0  0.15805  0.25180  0.13378  1.0000
  C   C31       1.0  0.14500  0.24243  0.12281  1.0000
  C   C32       1.0  0.12397  0.23834  0.13345  1.0000
  C   C33       1.0  0.11602  0.24356  0.15489  1.0000
  H   H18       1.0  0.16005  0.26480  0.16339  1.0000
  H   H19       1.0  0.17407  0.25537  0.12571  1.0000
  H   H20       1.0  0.11366  0.23135  0.12498  1.0000
  H   H21       1.0  0.09957  0.24082  0.16273  1.0000
  H   H22       1.0  0.17619  0.33659  0.10855  1.0000
  C   C34       1.0  0.21102  0.27825  0.45840  1.0000
  C   C35       1.0  0.20156  0.27200  0.44181  1.0000
  C   C36       1.0  0.18642  0.25699  0.44765  1.0000
  C   C37       1.0  0.18103  0.24815  0.47015  1.0000
  H   H23       1.0  0.11903  0.28814  0.11835  1.0000
  S   S22       1.0  0.22422  0.31088  0.07848  1.0000
  H   H24       1.0  0.20575  0.27903  0.42456  1.0000
  H   H25       1.0  0.16932  0.23651  0.47480  1.0000
  H   H26       1.0  0.21074  0.34548  0.25028  1.0000
  N   N2        1.0  0.15331  0.18043  0.15906  1.0000
  C   C38       1.0  0.15827  0.18707  0.13665  1.0000
  C   C39       1.0  0.16976  0.17100  0.17136  1.0000
  C   C40       1.0  0.18023  0.18513  0.12616  1.0000
  C   C41       1.0  0.19189  0.16840  0.16134  1.0000
  C   C42       1.0  0.19710  0.17575  0.13864  1.0000
  C   C43       1.0  0.13028  0.18265  0.17002  1.0000
  H   H27       1.0  0.14528  0.19416  0.12671  1.0000
  H   H28       1.0  0.16582  0.16542  0.18902  1.0000
  H   H29       1.0  0.18408  0.19094  0.10847  1.0000
  H   H30       1.0  0.11894  0.19360  0.15927  1.0000
  H   H31       1.0  0.12483  0.16607  0.17446  1.0000
  H   H32       1.0  0.12853  0.19006  0.18548  1.0000
  N   N3        1.0  0.13542  0.27898  0.28682  1.0000
  C   C44       1.0  0.15512  0.28306  0.27427  1.0000
  C   C45       1.0  0.11953  0.27284  0.27742  1.0000
  C   C46       1.0  0.15947  0.28067  0.25172  1.0000
  C   C47       1.0  0.12341  0.27007  0.25500  1.0000
  C   C48       1.0  0.14351  0.27401  0.24210  1.0000
  C   C49       1.0  0.13130  0.28192  0.31029  1.0000
  H   H33       1.0  0.16754  0.28828  0.28173  1.0000
  H   H34       1.0  0.10379  0.26980  0.28727  1.0000
  H   H35       1.0  0.17507  0.28404  0.24181  1.0000
  H   H36       1.0  0.11090  0.26490  0.24766  1.0000
  H   H37       1.0  0.14658  0.27198  0.22465  1.0000
  H   H38       1.0  0.11605  0.27558  0.31931  1.0000
  H   H39       1.0  0.14532  0.27276  0.31878  1.0000
  H   H40       1.0  0.12972  0.29981  0.31167  1.0000
  C   C50       1.0  0.22283  0.34174  0.13125  1.0000
  H   H41       1.0  0.17975  0.32388  0.46709  1.0000
  H   H42       1.0  0.10955  0.13698  0.27413  1.0000
  C   C51       1.0  0.99478  0.19740  0.23276  1.0000
  H   H43       1.0  0.21416  0.17413  0.13071  1.0000
  C   C52       1.0  0.99357  0.21982  0.22352  1.0000
  C   C53       1.0  0.14142  0.28983  0.48822  1.0000
  C   C54       1.0  0.10454  0.15188  0.28265  1.0000
  C   C55       1.0  0.22058  0.31644  0.10598  1.0000
  C   C56       1.0  0.14580  0.30152  0.09596  1.0000
  C   C57       1.0  0.21128  0.30217  0.12398  1.0000
  H   H44       1.0  0.13665  0.34261  0.15621  1.0000
  H   H45       1.0  0.21178  0.31949  0.33090  1.0000
  H   H46       1.0  0.12314  0.17900  0.34048  1.0000
  C   C58       1.0  0.11349  0.16613  0.31394  1.0000
  H   H47       1.0  0.22257  0.29004  0.45377  1.0000
  C   C59       1.0  0.19070  0.25418  0.48671  1.0000
  H   H48       1.0  0.12335  0.30662  0.14933  1.0000
  H   H49       1.0  0.20654  0.28703  0.12127  1.0000
  H   H50       1.0  0.19972  0.29710  0.15930  1.0000
  S   S23       1.0  0.21953  0.26140  0.99512  1.0000
  H   H51       1.0  0.09680  0.17519  0.31625  1.0000
  N   N4        1.0  0.14988  0.32285  0.13071  1.0000
  Fe  Fe13      1.0  0.22717  0.25364  0.35603  1.0000
  C   C60       1.0  0.15259  0.33308  0.14953  1.0000
  H   H52       1.0  0.16214  0.16088  0.33364  1.0000
  S   S24       1.0  0.22181  0.08073  0.19004  1.0000
  H   H53       1.0  0.17401  0.13760  0.30335  1.0000
  C   C61       1.0  0.13394  0.30955  0.13344  1.0000
  H   H54       1.0  0.14461  0.29261  0.08267  1.0000
  H   H55       1.0  0.20488  0.16069  0.17112  1.0000
  H   H56       1.0  0.16499  0.34468  0.14477  1.0000
  C   C62       1.0  0.16193  0.31520  0.09328  1.0000
  H   H57       1.0  0.17337  0.31719  0.07783  1.0000
  S   S25       1.0  0.22359  0.38147  0.20746  1.0000
  Fe  Fe14      1.0  0.23032  0.09998  0.21406  1.0000
  C   C63       1.0  0.22901  0.33505  0.30037  1.0000
  C   C64       1.0  0.15504  0.30237  0.47229  1.0000
  H   H58       1.0  0.23512  0.13774  0.09172  1.0000
  H   H59       1.0  0.22690  0.35726  0.13383  1.0000
  H   H60       1.0  0.20637  0.21785  0.99657  1.0000
  H   H61       1.0  0.21146  0.21638  0.42898  1.0000
  C   C65       1.0  0.16846  0.31479  0.47922  1.0000
  H   H62       1.0  0.23613  0.22314  0.46651  1.0000
  C   C66       1.0  0.22855  0.20821  0.43096  1.0000
  H   H63       1.0  0.22786  0.19620  0.44664  1.0000
  H   H64       1.0  0.23514  0.19859  0.41700  1.0000
  H   H65       1.0  0.24103  0.17647  0.07638  1.0000
  H   H66       1.0  0.11119  0.27590  0.52119  1.0000
  Fe  Fe15      1.0  0.19687  0.23652  0.57995  1.0000
  S   S26       1.0  0.17700  0.25371  0.55305  1.0000
  S   S27       1.0  0.19295  0.20167  0.59648  1.0000
  Fe  Fe16      1.0  0.21438  0.27826  0.58403  1.0000
  S   S28       1.0  0.19619  0.29925  0.55740  1.0000
  C   C67       1.0  0.02669  0.23126  0.67597  1.0000
  Fe  Fe17      1.0  0.16801  0.28113  0.57368  1.0000
  S   S29       1.0  0.13328  0.29829  0.58096  1.0000
  Fe  Fe18      1.0  0.20675  0.27018  0.53838  1.0000
  S   S30       1.0  0.18505  0.26268  0.60181  1.0000
  H   H67       1.0  0.17904  0.32355  0.50748  1.0000
  Fe  Fe19      1.0  0.07429  0.25294  0.68850  1.0000
  S   S31       1.0  0.04713  0.28175  0.69122  1.0000
  S   S32       1.0  0.08509  0.23530  0.65894  1.0000
  Fe  Fe20      1.0  0.08513  0.25114  0.73495  1.0000
  S   S33       1.0  0.05829  0.27973  0.74227  1.0000
  S   S34       1.0  0.11127  0.23011  0.75429  1.0000
  Fe  Fe21      1.0  0.03685  0.26382  0.72538  1.0000
  Fe  Fe22      1.0  0.07059  0.29527  0.70744  1.0000
  S   S35       1.0  0.07890  0.32978  0.69535  1.0000
  S   S36       1.0  0.06280  0.23383  0.72140  1.0000
  S   S37       1.0  0.09860  0.26786  0.70140  1.0000
  H   H68       1.0  0.17249  0.47113  0.63989  1.0000
  Fe  Fe23      1.0  0.18087  0.37457  0.71873  1.0000
  S   S38       1.0  0.18062  0.40282  0.69049  1.0000
  S   S39       1.0  0.15514  0.35406  0.73822  1.0000
  Fe  Fe24      1.0  0.21247  0.38392  0.67576  1.0000
  S   S40       1.0  0.21584  0.38207  0.63913  1.0000
  Fe  Fe25      1.0  0.20210  0.41781  0.70793  1.0000
  S   S41       1.0  0.21109  0.35462  0.70259  1.0000
  S   S42       1.0  0.19931  0.39100  0.73765  1.0000
  S   S43       1.0  0.22771  0.25058  0.56370  1.0000
  S   S44       1.0  0.23418  0.40039  0.69133  1.0000
  H   H69       1.0  0.23698  0.45539  0.71705  1.0000
  Fe  Fe26      1.0  0.17967  0.24509  0.84091  1.0000
  S   S45       1.0  0.18156  0.21150  0.86202  1.0000
  S   S46       1.0  0.14876  0.26438  0.82830  1.0000
  Fe  Fe27      1.0  0.20164  0.22490  0.88226  1.0000
  S   S47       1.0  0.19861  0.21366  0.91975  1.0000
  Fe  Fe28      1.0  0.21347  0.20374  0.83949  1.0000
  H   H70       1.0  0.99543  0.28167  0.69488  1.0000
  S   S48       1.0  0.19690  0.25934  0.86300  1.0000
  S   S49       1.0  0.21023  0.23630  0.81696  1.0000
  C   C68       1.0  0.17858  0.46484  0.65600  1.0000
  C   C69       1.0  0.20144  0.22827  0.94113  1.0000
  C   C70       1.0  0.20144  0.21683  0.96295  1.0000
  C   C71       1.0  0.23887  0.46573  0.65490  1.0000
  H   H71       1.0  0.23765  0.26190  0.88534  1.0000
  C   C72       1.0  0.20928  0.26065  0.95383  1.0000
  C   C73       1.0  0.20496  0.25041  0.93674  1.0000
  H   H72       1.0  0.19861  0.19973  0.96655  1.0000
  C   C74       1.0  0.00949  0.20967  0.70964  1.0000
  H   H73       1.0  0.18284  0.28441  0.79963  1.0000
  H   H74       1.0  0.20474  0.25950  0.92012  1.0000
  H   H75       1.0  0.20500  0.16350  0.68200  1.0000
  C   C75       1.0  0.21160  0.30055  0.79303  1.0000
  H   H76       1.0  0.23609  0.33872  0.65877  1.0000
  C   C76       1.0  0.20862  0.15432  0.76333  1.0000
  C   C77       1.0  0.20071  0.17552  0.76925  1.0000
  C   C78       1.0  0.20565  0.18103  0.78882  1.0000
  C   C79       1.0  0.22828  0.47222  0.71578  1.0000
  H   H77       1.0  0.19102  0.18772  0.75860  1.0000
  H   H78       1.0  0.19971  0.19741  0.79323  1.0000
  C   C80       1.0  0.21591  0.47182  0.65769  1.0000
  C   C81       1.0  0.12343  0.24221  0.77193  1.0000
  C   C82       1.0  0.14348  0.23138  0.77877  1.0000
  C   C83       1.0  0.15188  0.23858  0.79548  1.0000
  C   C84       1.0  0.14025  0.25668  0.80541  1.0000
  C   C85       1.0  0.12079  0.26817  0.79780  1.0000
  C   C86       1.0  0.11242  0.26103  0.78102  1.0000
  H   H79       1.0  0.15219  0.21693  0.77165  1.0000
  H   H80       1.0  0.16693  0.22966  0.80117  1.0000
  H   H81       1.0  0.11174  0.28224  0.80538  1.0000
  H   H82       1.0  0.09697  0.26950  0.77584  1.0000
  C   C87       1.0  0.09965  0.33694  0.70756  1.0000
  C   C88       1.0  0.11056  0.35489  0.69710  1.0000
  C   C89       1.0  0.12784  0.36021  0.70615  1.0000
  C   C90       1.0  0.13392  0.34785  0.72595  1.0000
  C   C91       1.0  0.12300  0.32992  0.73636  1.0000
  C   C92       1.0  0.10609  0.32432  0.72708  1.0000
  H   H83       1.0  0.10572  0.36460  0.68189  1.0000
  H   H84       1.0  0.13615  0.37408  0.69803  1.0000
  H   H85       1.0  0.12765  0.32021  0.75161  1.0000
  H   H86       1.0  0.09787  0.31038  0.73519  1.0000
  C   C93       1.0  0.21516  0.18679  0.60955  1.0000
  H   H87       1.0  0.13607  0.25887  0.52955  1.0000
  H   H88       1.0  0.17123  0.35442  0.77987  1.0000
  H   H89       1.0  0.20696  0.01173  0.70597  1.0000
  C   C94       1.0  0.21801  0.16512  0.80271  1.0000
  H   H90       1.0  0.23717  0.32131  0.78549  1.0000
  C   C95       1.0  0.11903  0.28072  0.60187  1.0000
  C   C96       1.0  0.10112  0.28967  0.61645  1.0000
  C   C97       1.0  0.09080  0.27577  0.63420  1.0000
  C   C98       1.0  0.09772  0.25281  0.63675  1.0000
  C   C99       1.0  0.11512  0.24380  0.62173  1.0000
  C   C100      1.0  0.12605  0.25778  0.60456  1.0000
  H   H91       1.0  0.09556  0.30739  0.61436  1.0000
  H   H92       1.0  0.07733  0.28281  0.64574  1.0000
  H   H93       1.0  0.12048  0.22604  0.62363  1.0000
  H   H94       1.0  0.13982  0.25072  0.59335  1.0000
  H   H95       1.0  0.14178  0.33407  0.78472  1.0000
  C   C101      1.0  0.18898  0.30013  0.79460  1.0000
  C   C102      1.0  0.21373  0.35323  0.61090  1.0000
  C   C103      1.0  0.22035  0.35562  0.63081  1.0000
  C   C104      1.0  0.22556  0.14396  0.79687  1.0000
  S   S50       1.0  0.00164  0.25675  0.73877  1.0000
  H   H96       1.0  0.02044  0.21580  0.71883  1.0000
  C   C105      1.0  0.23540  0.19465  0.60601  1.0000
  C   C106      1.0  0.20625  0.47647  0.71213  1.0000
  C   C107      1.0  0.21181  0.43992  0.64335  1.0000
  C   C108      1.0  0.23509  0.02786  0.70573  1.0000
  H   H97       1.0  0.17195  0.17206  0.83812  1.0000
  C   C109      1.0  0.23076  0.33701  0.64352  1.0000
  S   S51       1.0  0.22477  0.17076  0.82740  1.0000
  C   C110      1.0  0.20499  0.34020  0.78210  1.0000
  N   N5        1.0  0.20268  0.45870  0.65240  1.0000
  N   N6        1.0  0.17474  0.31928  0.78988  1.0000
  S   S52       1.0  0.19184  0.45521  0.70855  1.0000
  S   S53       1.0  0.20289  0.14722  0.73880  1.0000
  N   N7        1.0  0.12356  0.19886  0.82208  1.0000
  C   C111      1.0  0.14065  0.19307  0.83422  1.0000
  C   C112      1.0  0.12317  0.18815  0.80461  1.0000
  C   C113      1.0  0.15814  0.17635  0.82877  1.0000
  C   C114      1.0  0.14042  0.17140  0.79868  1.0000
  C   C115      1.0  0.15789  0.16539  0.81097  1.0000
  C   C116      1.0  0.10518  0.21607  0.82839  1.0000
  H   H98       1.0  0.14095  0.20161  0.84802  1.0000
  H   H99       1.0  0.10981  0.19300  0.79473  1.0000
  C   C117      1.0  0.20574  0.22709  0.98005  1.0000
  H   H100      1.0  0.14039  0.16335  0.78445  1.0000
  H   H101      1.0  0.20578  0.36758  0.60094  1.0000
  H   H102      1.0  0.09710  0.22448  0.81381  1.0000
  H   H103      1.0  0.09273  0.20862  0.84136  1.0000
  H   H104      1.0  0.11113  0.22923  0.83491  1.0000
  N   N8        1.0  0.18508  0.19513  0.68038  1.0000
  C   C118      1.0  0.18094  0.20641  0.66003  1.0000
  C   C119      1.0  0.16899  0.19605  0.69860  1.0000
  C   C120      1.0  0.16034  0.21916  0.65754  1.0000
  C   C121      1.0  0.14826  0.20891  0.69678  1.0000
  C   C122      1.0  0.14392  0.22042  0.67606  1.0000
  C   C123      1.0  0.20641  0.18103  0.68256  1.0000
  H   H105      1.0  0.19354  0.20562  0.64552  1.0000
  H   H106      1.0  0.17217  0.18673  0.71465  1.0000
  H   H107      1.0  0.15714  0.22783  0.64126  1.0000
  H   H108      1.0  0.13557  0.20984  0.71130  1.0000
  H   H109      1.0  0.12783  0.23018  0.67430  1.0000
  H   H110      1.0  0.21963  0.18627  0.66900  1.0000
  H   H111      1.0  0.21178  0.18178  0.69861  1.0000
  H   H112      1.0  0.17067  0.45021  0.66451  1.0000
  N   N9        1.0  0.15997  0.31632  0.67044  1.0000
  C   C124      1.0  0.17057  0.32299  0.64962  1.0000
  C   C125      1.0  0.13944  0.31025  0.67319  1.0000
  C   C126      1.0  0.16066  0.32373  0.63084  1.0000
  C   C127      1.0  0.12884  0.31118  0.65482  1.0000
  C   C128      1.0  0.13957  0.31798  0.63353  1.0000
  C   C129      1.0  0.17059  0.31646  0.68976  1.0000
  H   H113      1.0  0.18676  0.32788  0.64747  1.0000
  H   H114      1.0  0.13095  0.30495  0.68964  1.0000
  H   H115      1.0  0.16920  0.32887  0.61432  1.0000
  H   H116      1.0  0.11229  0.30692  0.65716  1.0000
  H   H117      1.0  0.13154  0.31896  0.61913  1.0000
  H   H118      1.0  0.17123  0.33386  0.69161  1.0000
  H   H119      1.0  0.16141  0.30868  0.70547  1.0000
  H   H120      1.0  0.18770  0.30730  0.68766  1.0000
  Fe  Fe29      1.0  0.22778  0.24754  0.84068  1.0000
  N   N10       1.0  0.00824  0.22333  0.68783  1.0000
  Fe  Fe30      1.0  0.22973  0.37241  0.71988  1.0000
  H   H121      1.0  0.21253  0.27761  0.95014  1.0000
  C   C130      1.0  0.22480  0.00973  0.70419  1.0000
  H   H122      1.0  0.04065  0.25067  0.64590  1.0000
  C   C131      1.0  0.15402  0.30215  0.51735  1.0000
  H   H123      1.0  0.17143  0.15250  0.80648  1.0000
  H   H124      1.0  0.14411  0.31455  0.81002  1.0000
  C   C132      1.0  0.21010  0.24895  0.97547  1.0000
  H   H125      1.0  0.00538  0.25910  0.63011  1.0000
  H   H126      1.0  0.21118  0.35592  0.77699  1.0000
  H   H127      1.0  0.22285  0.28536  0.79671  1.0000
  C   C133      1.0  0.15107  0.31826  0.79215  1.0000
  H   H128      1.0  0.04213  0.22764  0.68267  1.0000
  C   C134      1.0  0.22828  0.31386  0.61618  1.0000
  C   C135      1.0  0.12712  0.27611  0.52684  1.0000
  H   H129      1.0  0.15397  0.30197  0.53494  1.0000
  C   C136      1.0  0.02595  0.24425  0.65508  1.0000
  C   C137      1.0  0.18245  0.33920  0.78376  1.0000
  H   H130      1.0  0.20135  0.42953  0.63907  1.0000
  C   C138      1.0  0.22956  0.15553  0.63562  1.0000
  S   S54       1.0  0.23388  0.21414  0.86126  1.0000
  H   H131      1.0  0.23773  0.20978  0.59473  1.0000
  H   H132      1.0  0.21247  0.33070  0.58826  1.0000
  C   C139      1.0  0.21962  0.32073  0.78679  1.0000
  C   C140      1.0  0.00623  0.24885  0.64620  1.0000
  C   C141      1.0  0.23496  0.31628  0.63606  1.0000
  C   C142      1.0  0.23474  0.43356  0.63990  1.0000
  H   H133      1.0  0.17324  0.47770  0.66715  1.0000
  C   C143      1.0  0.21742  0.33236  0.60373  1.0000
  H   H134      1.0  0.12306  0.28239  0.54310  1.0000
  C   C144      1.0  0.21227  0.16720  0.62436  1.0000
  H   H135      1.0  0.19661  0.16109  0.62717  1.0000
  S   S55       1.0  0.21850  0.27729  0.50104  1.0000
  C   C145      1.0  0.22107  0.13865  0.77720  1.0000
  N   N11       1.0  0.14085  0.29006  0.51043  1.0000
  H   H136      1.0  0.18659  0.24708  0.50393  1.0000
  H   H137      1.0  0.14841  0.30495  0.78346  1.0000
  H   H138      1.0  0.22520  0.04355  0.70886  1.0000
  H   H139      1.0  0.01600  0.19215  0.70759  1.0000
  S   S56       1.0  0.23453  0.28772  0.60708  1.0000
  C   C146      1.0  0.16805  0.31463  0.50189  1.0000
  H   H140      1.0  0.22685  0.12218  0.77304  1.0000
  H   H141      1.0  0.20870  0.48669  0.66492  1.0000
  H   H142      1.0  0.23501  0.13155  0.80760  1.0000
  Fe  Fe31      1.0  0.23291  0.12616  0.72261  1.0000
  H   H143      1.0  0.22730  0.14035  0.64691  1.0000
  H   H144      1.0  0.99303  0.21055  0.72026  1.0000
  S   S57       1.0  0.23575  0.10894  0.69260  1.0000
  C   C147      1.0  0.23900  0.48977  0.71814  1.0000
  H   H145      1.0  0.22564  0.80717  0.04236  1.0000
  C   C148      1.0  0.18777  0.95964  0.19711  1.0000
  C   C149      1.0  0.22555  0.80719  0.43234  1.0000
  C   C150      1.0  0.21476  0.80733  0.41428  1.0000
  C   C151      1.0  0.20710  0.57140  0.23722  1.0000
  H   H146      1.0  0.08559  0.74878  0.30350  1.0000
  H   H147      1.0  0.03328  0.73150  0.27710  1.0000
  H   H148      1.0  0.18465  0.76941  0.29408  1.0000
  Fe  Fe32      1.0  0.21880  0.86650  0.19615  1.0000
  S   S58       1.0  0.18392  0.86131  0.21032  1.0000
  C   C152      1.0  0.99286  0.73602  0.23125  1.0000
  H   H149      1.0  0.17888  0.78040  0.23596  1.0000
  Fe  Fe33      1.0  0.13353  0.70475  0.22356  1.0000
  S   S59       1.0  0.10750  0.70924  0.25352  1.0000
  S   S60       1.0  0.14573  0.67319  0.20872  1.0000
  Fe  Fe34      1.0  0.13692  0.75368  0.21202  1.0000
  S   S61       1.0  0.11108  0.76244  0.24059  1.0000
  S   S62       1.0  0.15791  0.77502  0.18640  1.0000
  Fe  Fe35      1.0  0.12869  0.73262  0.26035  1.0000
  S   S63       1.0  0.13323  0.73715  0.29486  1.0000
  Fe  Fe36      1.0  0.09170  0.73854  0.23154  1.0000
  S   S64       1.0  0.05443  0.75017  0.23189  1.0000
  S   S65       1.0  0.15589  0.72550  0.23229  1.0000
  S   S66       1.0  0.11637  0.73248  0.20109  1.0000
  H   H150      1.0  0.17033  0.69367  0.16942  1.0000
  H   H151      1.0  0.20744  0.73894  0.10413  1.0000
  C   C153      1.0  0.03255  0.73544  0.23086  1.0000
  C   C154      1.0  0.01085  0.74704  0.23141  1.0000
  C   C155      1.0  0.17416  0.78343  0.25349  1.0000
  H   H152      1.0  0.23274  0.82975  0.13835  1.0000
  C   C156      1.0  0.01805  0.70160  0.23002  1.0000
  C   C157      1.0  0.03603  0.71261  0.23022  1.0000
  H   H153      1.0  0.00791  0.76469  0.23200  1.0000
  C   C158      1.0  0.18005  0.92197  0.20618  1.0000
  H   H154      1.0  0.02099  0.68394  0.22944  1.0000
  H   H155      1.0  0.05258  0.70341  0.22983  1.0000
  C   C159      1.0  0.15965  0.73249  0.30327  1.0000
  C   C160      1.0  0.16199  0.73916  0.32322  1.0000
  C   C161      1.0  0.18291  0.73627  0.33005  1.0000
  C   C162      1.0  0.20158  0.72625  0.31717  1.0000
  C   C163      1.0  0.19915  0.71932  0.29739  1.0000
  C   C164      1.0  0.17835  0.72263  0.29034  1.0000
  H   H156      1.0  0.14760  0.74674  0.33338  1.0000
  H   H157      1.0  0.17479  0.90814  0.21822  1.0000
  H   H158      1.0  0.18932  0.67605  0.13653  1.0000
  H   H159      1.0  0.17676  0.71722  0.27508  1.0000
  H   H160      1.0  0.04968  0.77602  0.29574  1.0000
  S   S67       1.0  0.22243  0.76877  0.36747  1.0000
  H   H161      1.0  0.20269  0.58816  0.24123  1.0000
  S   S68       1.0  0.23856  0.61701  0.22479  1.0000
  H   H162      1.0  0.22010  0.67964  0.99502  1.0000
  S   S69       1.0  0.23570  0.75277  0.42802  1.0000
  H   H163      1.0  0.19736  0.77053  0.12144  1.0000
  C   C165      1.0  0.17638  0.83769  0.20326  1.0000
  C   C166      1.0  0.19009  0.82607  0.18729  1.0000
  C   C167      1.0  0.18410  0.80701  0.18210  1.0000
  C   C168      1.0  0.16460  0.79921  0.19312  1.0000
  C   C169      1.0  0.15088  0.81081  0.20911  1.0000
  C   C170      1.0  0.15671  0.83011  0.21408  1.0000
  H   H164      1.0  0.20520  0.83188  0.17874  1.0000
  H   H165      1.0  0.19472  0.79824  0.16958  1.0000
  H   H166      1.0  0.13568  0.80505  0.21747  1.0000
  H   H167      1.0  0.14601  0.83912  0.22638  1.0000
  S   S70       1.0  0.23606  0.82397  0.33314  1.0000
  H   H168      1.0  0.24072  0.86382  0.25706  1.0000
  C   C171      1.0  0.20345  0.64961  0.23282  1.0000
  H   H169      1.0  0.21518  0.81723  0.37900  1.0000
  C   C172      1.0  0.19458  0.56430  0.22387  1.0000
  H   H170      1.0  0.09829  0.70924  0.31630  1.0000
  C   C173      1.0  0.18291  0.66231  0.22935  1.0000
  C   C174      1.0  0.17200  0.65847  0.21279  1.0000
  C   C175      1.0  0.18195  0.64223  0.19940  1.0000
  C   C176      1.0  0.05165  0.76605  0.28207  1.0000
  H   H171      1.0  0.17527  0.67468  0.23984  1.0000
  H   H172      1.0  0.17355  0.63920  0.18658  1.0000
  N   N12       1.0  0.19393  0.95708  0.17521  1.0000
  C   C177      1.0  0.19312  0.93740  0.16845  1.0000
  H   H173      1.0  0.20654  0.98796  0.16637  1.0000
  H   H174      1.0  0.18528  0.90402  0.17845  1.0000
  C   C178      1.0  0.21892  0.52922  0.22544  1.0000
  H   H175      1.0  0.22423  0.51293  0.22038  1.0000
  H   H176      1.0  0.04562  0.69178  0.28929  1.0000
  H   H177      1.0  0.19815  0.93529  0.15112  1.0000
  H   H178      1.0  0.20953  0.64108  0.06474  1.0000
  C   C179      1.0  0.18096  0.94208  0.21295  1.0000
  H   H179      1.0  0.22180  0.85380  0.29551  1.0000
  H   H180      1.0  0.21902  0.79903  0.44858  1.0000
  C   C180      1.0  0.22964  0.65695  0.08017  1.0000
  C   C181      1.0  0.23300  0.80687  0.11557  1.0000
  C   C182      1.0  0.23755  0.75509  0.47180  1.0000
  H   H181      1.0  0.23699  0.81561  0.24671  1.0000
  C   C183      1.0  0.18923  0.69360  0.13659  1.0000
  H   H182      1.0  0.21016  0.61729  0.19224  1.0000
  C   C184      1.0  0.19635  0.77908  0.28346  1.0000
  S   S71       1.0  0.22814  0.72177  0.32514  1.0000
  H   H183      1.0  0.18069  0.57543  0.21771  1.0000
  H   H184      1.0  0.17013  0.73367  0.16922  1.0000
  N   N13       1.0  0.05842  0.74248  0.29002  1.0000
  C   C185      1.0  0.07644  0.73635  0.30083  1.0000
  C   C186      1.0  0.04731  0.72673  0.28606  1.0000
  C   C187      1.0  0.08367  0.71397  0.30816  1.0000
  C   C188      1.0  0.05420  0.70418  0.29297  1.0000
  C   C189      1.0  0.07249  0.69780  0.30414  1.0000
  C   C190      1.0  0.20735  0.80102  0.24903  1.0000
  C   C191      1.0  0.20266  0.62981  0.20260  1.0000
  H   H185      1.0  0.18454  0.74146  0.34543  1.0000
  H   H186      1.0  0.03575  0.76897  0.27537  1.0000
  H   H187      1.0  0.21158  0.65232  0.24598  1.0000
  C   C192      1.0  0.21468  0.78252  0.29187  1.0000
  C   C193      1.0  0.17859  0.70346  0.15505  1.0000
  H   H188      1.0  0.20030  0.79915  0.41658  1.0000
  H   H189      1.0  0.20779  0.69896  0.10367  1.0000
  C   C194      1.0  0.21331  0.63332  0.21950  1.0000
  C   C195      1.0  0.17854  0.72611  0.15483  1.0000
  C   C196      1.0  0.20025  0.97586  0.15867  1.0000
  H   H190      1.0  0.16076  0.79786  0.25441  1.0000
  H   H191      1.0  0.18583  0.98450  0.15061  1.0000
  H   H192      1.0  0.06430  0.77202  0.26828  1.0000
  C   C197      1.0  0.22577  0.80505  0.25699  1.0000
  C   C198      1.0  0.19962  0.70645  0.11817  1.0000
  H   H193      1.0  0.22074  0.75164  0.47488  1.0000
  N   N14       1.0  0.18883  0.73857  0.13672  1.0000
  C   C199      1.0  0.19930  0.72906  0.11852  1.0000
  H   H194      1.0  0.19655  0.76439  0.15104  1.0000
  H   H195      1.0  0.21685  0.60467  0.08826  1.0000
  H   H196      1.0  0.17119  0.77089  0.13932  1.0000
  H   H197      1.0  0.21348  0.71139  0.28743  1.0000
  C   C200      1.0  0.18852  0.76223  0.13704  1.0000
  H   H198      1.0  0.19135  0.53748  0.20720  1.0000
  C   C201      1.0  0.22400  0.61855  0.09084  1.0000
  N   N15       1.0  0.19324  0.78771  0.26211  1.0000
  H   H199      1.0  0.16756  0.76842  0.26310  1.0000
  C   C202      1.0  0.22958  0.79542  0.27843  1.0000
  H   H200      1.0  0.18842  0.97525  0.20249  1.0000
  C   C203      1.0  0.18604  0.91962  0.18379  1.0000
  H   H201      1.0  0.17640  0.94404  0.23034  1.0000
  S   S72       1.0  0.22516  0.68201  0.06211  1.0000
  H   H202      1.0  0.07827  0.68035  0.30926  1.0000
  N   N16       1.0  0.22491  0.55761  0.24469  1.0000
  C   C204      1.0  0.21992  0.63913  0.07748  1.0000
  C   C205      1.0  0.20057  0.54305  0.21797  1.0000
  C   C206      1.0  0.23098  0.53683  0.23884  1.0000
  H   H203      1.0  0.21517  0.80874  0.11738  1.0000
  S   S73       1.0  0.23021  0.88023  0.16056  1.0000
  H   H204      1.0  0.22963  0.58048  0.26509  1.0000
  H   H205      1.0  0.21726  0.77521  0.30871  1.0000
  C   C207      1.0  0.99635  0.71318  0.23058  1.0000
  H   H206      1.0  0.20441  0.80859  0.23237  1.0000
  H   H207      1.0  0.21387  0.97007  0.14572  1.0000
  C   C208      1.0  0.23847  0.97525  0.20997  1.0000
  H   H208      1.0  0.99867  0.70738  0.18328  1.0000
  S   S74       1.0  0.23442  0.88949  0.21088  1.0000
  C   C209      1.0  0.23839  0.56538  0.25806  1.0000
  H   H209      1.0  0.22918  0.79170  0.00710  1.0000
  C   C210      1.0  0.24080  0.95698  0.19858  1.0000
  C   C211      1.0  0.23883  0.84669  0.29076  1.0000
  C   C212      1.0  0.23743  0.61575  0.10732  1.0000
  S   S75       1.0  0.23328  0.77852  0.08599  1.0000
  C   C213      1.0  0.22328  0.81720  0.39318  1.0000
  H   H210      1.0  0.23604  0.94141  0.20733  1.0000
  H   H211      1.0  0.23199  0.97358  0.22753  1.0000
  Fe  Fe37      1.0  0.23922  0.74226  0.34699  1.0000
  H   H212      1.0  0.99507  0.74815  0.17985  1.0000
  H   H213      1.0  0.03475  0.73562  0.76377  1.0000
  C   C214      1.0  0.22932  0.69968  0.61923  1.0000
  C   C215      1.0  0.18411  0.82981  0.79404  1.0000
  S   S76       1.0  0.21672  0.85376  0.73354  1.0000
  H   H214      1.0  0.01675  0.71454  0.74319  1.0000
  H   H215      1.0  0.18586  0.94593  0.64920  1.0000
  C   C216      1.0  0.15059  0.70040  0.63452  1.0000
  Fe  Fe38      1.0  0.20009  0.61383  0.72008  1.0000
  S   S77       1.0  0.16513  0.62939  0.73058  1.0000
  H   H216      1.0  0.16426  0.70896  0.80294  1.0000
  C   C217      1.0  0.13913  0.68665  0.65125  1.0000
  Fe  Fe39      1.0  0.07853  0.77775  0.73122  1.0000
  S   S78       1.0  0.10001  0.78390  0.69798  1.0000
  S   S79       1.0  0.04114  0.78726  0.73949  1.0000
  Fe  Fe40      1.0  0.11866  0.76196  0.75560  1.0000
  S   S80       1.0  0.14306  0.76648  0.72457  1.0000
  S   S81       1.0  0.12910  0.74930  0.78931  1.0000
  Fe  Fe41      1.0  0.12119  0.79851  0.71575  1.0000
  S   S82       1.0  0.13501  0.82995  0.69958  1.0000
  Fe  Fe42      1.0  0.12033  0.75139  0.70939  1.0000
  S   S83       1.0  0.13805  0.72811  0.68561  1.0000
  S   S84       1.0  0.09822  0.79527  0.74811  1.0000
  S   S85       1.0  0.09742  0.74391  0.74137  1.0000
  H   H217      1.0  0.15285  0.80348  0.80455  1.0000
  S   S86       1.0  0.21932  0.72698  0.60816  1.0000
  S   S87       1.0  0.22592  0.63589  0.70797  1.0000
  H   H218      1.0  0.18779  0.84597  0.79668  1.0000
  S   S88       1.0  0.23676  0.66755  0.83505  1.0000
  H   H219      1.0  0.14273  0.68699  0.78772  1.0000
  H   H220      1.0  0.22312  0.73283  0.96124  1.0000
  C   C218      1.0  0.17111  0.69187  0.62356  1.0000
  S   S89       1.0  0.22172  0.72220  0.85782  1.0000
  C   C219      1.0  0.14938  0.81737  0.79160  1.0000
  S   S90       1.0  0.22367  0.96642  0.69965  1.0000
  C   C220      1.0  0.15810  0.65710  0.71847  1.0000
  C   C221      1.0  0.17199  0.66687  0.70051  1.0000
  C   C222      1.0  0.16606  0.68895  0.69096  1.0000
  C   C223      1.0  0.14620  0.70134  0.69929  1.0000
  C   C224      1.0  0.13240  0.69171  0.71743  1.0000
  C   C225      1.0  0.13826  0.66954  0.72688  1.0000
  H   H221      1.0  0.18692  0.65726  0.69347  1.0000
  H   H222      1.0  0.17662  0.69629  0.67678  1.0000
  H   H223      1.0  0.11687  0.70108  0.72373  1.0000
  H   H224      1.0  0.12734  0.66201  0.74066  1.0000
  C   C226      1.0  0.19283  0.76730  0.80355  1.0000
  C   C227      1.0  0.17916  0.75571  0.82029  1.0000
  C   C228      1.0  0.15955  0.75044  0.81575  1.0000
  C   C229      1.0  0.15368  0.75644  0.79438  1.0000
  C   C230      1.0  0.16753  0.76777  0.77755  1.0000
  C   C231      1.0  0.18702  0.77329  0.78217  1.0000
  H   H225      1.0  0.18342  0.75123  0.83690  1.0000
  H   H226      1.0  0.14886  0.74174  0.82888  1.0000
  H   H227      1.0  0.16317  0.77245  0.76105  1.0000
  H   H228      1.0  0.19769  0.78204  0.76913  1.0000
  C   C232      1.0  0.15923  0.83531  0.70735  1.0000
  C   C233      1.0  0.17042  0.82024  0.72279  1.0000
  C   C234      1.0  0.18879  0.82565  0.72982  1.0000
  C   C235      1.0  0.19604  0.84614  0.72157  1.0000
  C   C236      1.0  0.18537  0.86088  0.70553  1.0000
  C   C237      1.0  0.16700  0.85545  0.69843  1.0000
  H   H229      1.0  0.16455  0.80471  0.72979  1.0000
  H   H230      1.0  0.19706  0.81419  0.74216  1.0000
  H   H231      1.0  0.19076  0.87677  0.69916  1.0000
  H   H232      1.0  0.15842  0.86715  0.68645  1.0000
  H   H233      1.0  0.17457  0.62238  0.64448  1.0000
  C   C238      1.0  0.24072  0.63179  0.78502  1.0000
  C   C239      1.0  0.17153  0.66955  0.76961  1.0000
  C   C240      1.0  0.02468  0.76500  0.71216  1.0000
  C   C241      1.0  0.02018  0.78055  0.72687  1.0000
  C   C242      1.0  0.17225  0.78776  0.67040  1.0000
  C   C243      1.0  0.20782  0.70828  0.79564  1.0000
  H   H234      1.0  0.16709  0.79282  0.68666  1.0000
  H   H235      1.0  0.04157  0.75771  0.70712  1.0000
  H   H236      1.0  0.17407  0.62849  0.67216  1.0000
  N   N17       1.0  0.19540  0.69480  0.78664  1.0000
  C   C244      1.0  0.20617  0.68047  0.77234  1.0000
  C   C245      1.0  0.17289  0.69731  0.79199  1.0000
  C   C246      1.0  0.16061  0.68481  0.78351  1.0000
  C   C247      1.0  0.21601  0.95937  0.64725  1.0000
  C   C248      1.0  0.21361  0.92765  0.63053  1.0000
  C   C249      1.0  0.22799  0.51182  0.71664  1.0000
  H   H237      1.0  0.20590  0.72553  0.78668  1.0000
  H   H238      1.0  0.22046  0.66243  0.66634  1.0000
  H   H239      1.0  0.99448  0.80198  0.74453  1.0000
  C   C250      1.0  0.20338  0.94453  0.64282  1.0000
  C   C251      1.0  0.00676  0.72552  0.75421  1.0000
  C   C252      1.0  0.15907  0.85016  0.76842  1.0000
  H   H240      1.0  0.13747  0.86558  0.74437  1.0000
  H   H241      1.0  0.14369  0.71772  0.63033  1.0000
  H   H242      1.0  0.20301  0.65570  0.75287  1.0000
  H   H243      1.0  0.17532  0.75270  0.68282  1.0000
  H   H244      1.0  0.22226  0.84430  0.63763  1.0000
  C   C253      1.0  0.12628  0.83638  0.76443  1.0000
  H   H245      1.0  0.19617  0.66328  0.62140  1.0000
  H   H246      1.0  0.01078  0.74601  0.69346  1.0000
  H   H247      1.0  0.23296  0.55213  0.80171  1.0000
  H   H248      1.0  0.19771  0.63227  0.65154  1.0000
  H   H249      1.0  0.01169  0.76231  0.78706  1.0000
  C   C254      1.0  0.00718  0.75838  0.70449  1.0000
  N   N18       1.0  0.16342  0.83277  0.78488  1.0000
  C   C255      1.0  0.22720  0.66883  0.64963  1.0000
  S   S91       1.0  0.21969  0.59052  0.74431  1.0000
  C   C256      1.0  0.14871  0.66466  0.65730  1.0000
  C   C257      1.0  0.14041  0.85228  0.75802  1.0000
  S   S92       1.0  0.21676  0.77511  0.80926  1.0000
  H   H250      1.0  0.19795  0.82237  0.78228  1.0000
  C   C258      1.0  0.13070  0.81884  0.78141  1.0000
  H   H251      1.0  0.18649  0.82959  0.61421  1.0000
  H   H252      1.0  0.14004  0.65434  0.67093  1.0000
  S   S93       1.0  0.21021  0.59288  0.69264  1.0000
  H   H253      1.0  0.23781  0.75824  0.50615  1.0000
  H   H254      1.0  0.18347  0.81859  0.81026  1.0000
  H   H255      1.0  0.17057  0.86198  0.76259  1.0000
  H   H256      1.0  0.11221  0.83745  0.75589  1.0000
  N   N19       1.0  0.16923  0.65668  0.64706  1.0000
  C   C259      1.0  0.18011  0.66973  0.62989  1.0000
  H   H257      1.0  0.18025  0.70242  0.61054  1.0000
  H   H258      1.0  0.12005  0.80612  0.78632  1.0000
  H   H259      1.0  0.18693  0.74169  0.64528  1.0000
  C   C260      1.0  0.19444  0.66744  0.76381  1.0000
  H   H260      1.0  0.19732  0.53291  0.71152  1.0000
  H   H261      1.0  0.12338  0.69331  0.66020  1.0000
  C   C261      1.0  0.20607  0.51611  0.71263  1.0000
  N   N20       1.0  0.18040  0.79754  0.63076  1.0000
  C   C262      1.0  0.17380  0.80376  0.65138  1.0000
  C   C263      1.0  0.18516  0.77553  0.62847  1.0000
  S   S94       1.0  0.22968  0.90525  0.68354  1.0000
  C   C264      1.0  0.18345  0.75911  0.64715  1.0000
  H   H262      1.0  0.21390  0.66654  0.95916  1.0000
  C   C265      1.0  0.18090  0.81453  0.61097  1.0000
  H   H263      1.0  0.16952  0.82117  0.65329  1.0000
  H   H264      1.0  0.19027  0.77053  0.61213  1.0000
  C   C266      1.0  0.24053  0.73409  0.95710  1.0000
  C   C267      1.0  0.17697  0.76530  0.66823  1.0000
  H   H265      1.0  0.16421  0.81914  0.60599  1.0000
  H   H266      1.0  0.19284  0.80856  0.59683  1.0000
  S   S95       1.0  0.23386  0.82513  0.59745  1.0000
  C   C268      1.0  0.22093  0.69118  0.64104  1.0000
  H   H267      1.0  0.17826  0.50206  0.70766  1.0000
  H   H268      1.0  0.20799  0.97222  0.65714  1.0000
  H   H269      1.0  0.20940  0.70186  0.65123  1.0000
  H   H270      1.0  0.22571  0.70148  0.79417  1.0000
  H   H271      1.0  0.21996  0.63596  0.81640  1.0000
  C   C269      1.0  0.17934  0.63382  0.65410  1.0000
  H   H272      1.0  0.16227  0.65936  0.76335  1.0000
  C   C270      1.0  0.23804  0.84883  0.62942  1.0000
  C   C271      1.0  0.19529  0.49853  0.71048  1.0000
  H   H273      1.0  0.20413  0.91580  0.62721  1.0000
  Fe  Fe43      1.0  0.23547  0.88111  0.71451  1.0000
  H   H274      1.0  0.22398  0.67876  0.76776  1.0000
  C   C272      1.0  0.00386  0.75234  0.77889  1.0000
  Fe  Fe44      1.0  0.23216  0.57100  0.71571  1.0000
  H   H275      1.0  0.22998  0.67777  0.93385  1.0000
  H   H276      1.0  0.20183  0.70848  0.81369  1.0000
  C   C273      1.0  0.99810  0.78986  0.73324  1.0000
  Fe  Fe45      1.0  0.23535  0.74836  0.83182  1.0000
  S   S96       1.0  0.23651  0.77722  0.56314  1.0000
  C   C274      1.0  0.22365  0.68005  0.95144  1.0000
  C   C275      1.0  0.01686  0.73730  0.76578  1.0000
  Fe  Fe46      1.0  0.23765  0.61353  0.68224  1.0000
  C   C276      1.0  0.23414  0.64088  0.80492  1.0000
  H   H277      1.0  0.21265  0.69633  0.95100  1.0000
  S   S97       1.0  0.23601  0.72748  0.91541  1.0000
  H   H278      1.0  0.23174  0.61980  0.78131  1.0000
  C   C277      1.0  0.23735  0.98901  0.70080  1.0000
  C   C278      1.0  0.23687  0.68002  0.98645  1.0000
  H   H279      1.0  0.24048  0.86864  0.65405  1.0000
  C   C279      1.0  0.23625  0.92574  0.62294  1.0000
  Fe  Fe47      1.0  0.24062  0.93057  0.69987  1.0000
  N   N21       1.0  0.23820  0.95747  0.63957  1.0000
  H   H280      1.0  0.24082  0.98771  0.65064  1.0000
  H   H281      1.0  0.25196  0.30151  0.16916  1.0000
  H   H282      1.0  0.28620  0.40633  0.13736  1.0000
  H   H283      1.0  0.25124  0.47900  0.15040  1.0000
  H   H284      1.0  0.28193  0.29703  0.16356  1.0000
  C   C280      1.0  0.26676  0.12455  0.24762  1.0000
  H   H285      1.0  0.33514  0.41505  0.20628  1.0000
  S   S98       1.0  0.26373  0.25445  0.35120  1.0000
  S   S99       1.0  0.27584  0.06597  0.17640  1.0000
  C   C281      1.0  0.24457  0.23082  0.45092  1.0000
  S   S100      1.0  0.27825  0.37788  0.20294  1.0000
  H   H286      1.0  0.27206  0.26074  0.39548  1.0000
  H   H287      1.0  0.31449  0.13048  0.26372  1.0000
  S   S101      1.0  0.25538  0.37190  0.16070  1.0000
  C   C282      1.0  0.25685  0.45518  0.17959  1.0000
  Fe  Fe48      1.0  0.28008  0.35189  0.18137  1.0000
  S   S102      1.0  0.30992  0.33170  0.16465  1.0000
  N   N22       1.0  0.26608  0.29074  0.13807  1.0000
  C   C283      1.0  0.27265  0.28750  0.09917  1.0000
  H   H288      1.0  0.48068  0.15203  0.22457  1.0000
  H   H289      1.0  0.26590  0.14052  0.14789  1.0000
  Fe  Fe49      1.0  0.36307  0.19374  0.22119  1.0000
  S   S103      1.0  0.37356  0.17070  0.25096  1.0000
  S   S104      1.0  0.34782  0.18318  0.19469  1.0000
  Fe  Fe50      1.0  0.36744  0.23473  0.24016  1.0000
  S   S105      1.0  0.37735  0.21473  0.27190  1.0000
  S   S106      1.0  0.36266  0.27195  0.23802  1.0000
  Fe  Fe51      1.0  0.39959  0.19251  0.24934  1.0000
  S   S107      1.0  0.43388  0.17657  0.25766  1.0000
  Fe  Fe52      1.0  0.35081  0.19500  0.27061  1.0000
  S   S108      1.0  0.32376  0.18265  0.29667  1.0000
  S   S109      1.0  0.39106  0.21370  0.21740  1.0000
  S   S110      1.0  0.33900  0.21698  0.24099  1.0000
  H   H290      1.0  0.35850  0.12342  0.16660  1.0000
  C   C284      1.0  0.45722  0.19044  0.25341  1.0000
  C   C285      1.0  0.45892  0.20984  0.23811  1.0000
  C   C286      1.0  0.47867  0.21909  0.23358  1.0000
  S   S111      1.0  0.24255  0.01754  0.21443  1.0000
  C   C287      1.0  0.29914  0.13515  0.25685  1.0000
  C   C288      1.0  0.47521  0.18083  0.26464  1.0000
  H   H291      1.0  0.44520  0.21740  0.22935  1.0000
  H   H292      1.0  0.31878  0.26396  0.26002  1.0000
  C   C289      1.0  0.31821  0.14175  0.12370  1.0000
  Fe  Fe53      1.0  0.25114  0.39685  0.18434  1.0000
  C   C290      1.0  0.30724  0.20275  0.31173  1.0000
  C   C291      1.0  0.31547  0.22150  0.31451  1.0000
  C   C292      1.0  0.30210  0.23715  0.32695  1.0000
  C   C293      1.0  0.28029  0.23440  0.33612  1.0000
  C   C294      1.0  0.27192  0.21587  0.33299  1.0000
  C   C295      1.0  0.28548  0.19993  0.32104  1.0000
  H   H293      1.0  0.33227  0.22373  0.30741  1.0000
  H   H294      1.0  0.30859  0.25152  0.32928  1.0000
  H   H295      1.0  0.27907  0.18542  0.31894  1.0000
  C   C296      1.0  0.32475  0.31485  0.18475  1.0000
  C   C297      1.0  0.32956  0.32405  0.20207  1.0000
  C   C298      1.0  0.34197  0.31084  0.21776  1.0000
  C   C299      1.0  0.34854  0.28811  0.21699  1.0000
  C   C300      1.0  0.34344  0.27876  0.19987  1.0000
  C   C301      1.0  0.33192  0.29225  0.18348  1.0000
  H   H296      1.0  0.32405  0.34143  0.20317  1.0000
  H   H297      1.0  0.34626  0.31822  0.23070  1.0000
  H   H298      1.0  0.34865  0.26125  0.19908  1.0000
  H   H299      1.0  0.32832  0.28509  0.17004  1.0000
  C   C302      1.0  0.34566  0.15022  0.14274  1.0000
  C   C303      1.0  0.25709  0.18021  0.10333  1.0000
  H   H300      1.0  0.25457  0.26330  0.16029  1.0000
  C   C304      1.0  0.32905  0.41158  0.19205  1.0000
  C   C305      1.0  0.32630  0.38631  0.16743  1.0000
  S   S112      1.0  0.24401  0.25868  0.04908  1.0000
  C   C306      1.0  0.30738  0.42327  0.16215  1.0000
  C   C307      1.0  0.28829  0.25214  0.27488  1.0000
  C   C308      1.0  0.26716  0.25749  0.28655  1.0000
  H   H301      1.0  0.34521  0.37754  0.19467  1.0000
  C   C309      1.0  0.32080  0.11715  0.20746  1.0000
  C   C310      1.0  0.30943  0.13622  0.19626  1.0000
  C   C311      1.0  0.31752  0.15656  0.19295  1.0000
  C   C312      1.0  0.33670  0.15811  0.20125  1.0000
  C   C313      1.0  0.34746  0.13930  0.21333  1.0000
  C   C314      1.0  0.33969  0.11885  0.21617  1.0000
  H   H302      1.0  0.29498  0.13515  0.18934  1.0000
  H   H303      1.0  0.30915  0.17105  0.18351  1.0000
  H   H304      1.0  0.36234  0.14028  0.21967  1.0000
  H   H305      1.0  0.34858  0.10419  0.22486  1.0000
  S   S113      1.0  0.24651  0.10860  0.13085  1.0000
  H   H306      1.0  0.47993  0.23387  0.22139  1.0000
  N   N23       1.0  0.24234  0.22503  0.43115  1.0000
  Fe  Fe54      1.0  0.24835  0.05345  0.20182  1.0000
  H   H307      1.0  0.30315  0.37968  0.13865  1.0000
  C   C315      1.0  0.27474  0.29445  0.28578  1.0000
  C   C316      1.0  0.25197  0.23568  0.41145  1.0000
  S   S114      1.0  0.25045  0.43307  0.16820  1.0000
  H   H308      1.0  0.32771  0.29832  0.26569  1.0000
  C   C317      1.0  0.26333  0.45202  0.20063  1.0000
  C   C318      1.0  0.26924  0.46985  0.20853  1.0000
  H   H309      1.0  0.46688  0.21789  0.29513  1.0000
  H   H310      1.0  0.27429  0.46721  0.22479  1.0000
  C   C319      1.0  0.26400  0.16996  0.12356  1.0000
  H   H311      1.0  0.30792  0.31674  0.28119  1.0000
  C   C320      1.0  0.26724  0.25808  0.43131  1.0000
  S   S115      1.0  0.25473  0.07202  0.22779  1.0000
  H   H312      1.0  0.26612  0.32120  0.14994  1.0000
  H   H313      1.0  0.26565  0.25729  0.09094  1.0000
  C   C321      1.0  0.26599  0.26660  0.10418  1.0000
  S   S116      1.0  0.25599  0.11604  0.18966  1.0000
  C   C322      1.0  0.33467  0.39056  0.18557  1.0000
  H   H314      1.0  0.25794  0.01315  0.16752  1.0000
  H   H315      1.0  0.29400  0.23547  0.27098  1.0000
  H   H316      1.0  0.25671  0.11202  0.24729  1.0000
  H   H317      1.0  0.26937  0.31100  0.28994  1.0000
  C   C323      1.0  0.26028  0.27881  0.29198  1.0000
  Fe  Fe55      1.0  0.27989  0.08682  0.20140  1.0000
  C   C324      1.0  0.33090  0.15689  0.12739  1.0000
  H   H318      1.0  0.25509  0.21366  0.34000  1.0000
  H   H319      1.0  0.25429  0.24156  0.13017  1.0000
  C   C325      1.0  0.25308  0.99758  0.17623  1.0000
  C   C326      1.0  0.28648  0.11870  0.25649  1.0000
  C   C327      1.0  0.26027  0.14823  0.13246  1.0000
  H   H320      1.0  0.27675  0.27114  0.43136  1.0000
  C   C328      1.0  0.30353  0.39775  0.13751  1.0000
  N   N24       1.0  0.29250  0.15674  0.24820  1.0000
  H   H321      1.0  0.29213  0.10146  0.26265  1.0000
  H   H322      1.0  0.26387  0.43584  0.21076  1.0000
  H   H323      1.0  0.31095  0.44455  0.18502  1.0000
  H   H324      1.0  0.27707  0.29472  0.08197  1.0000
  N   N25       1.0  0.31242  0.40244  0.15633  1.0000
  C   C329      1.0  0.24475  0.99558  0.19892  1.0000
  C   C330      1.0  0.31003  0.30596  0.26815  1.0000
  H   H325      1.0  0.30587  0.31650  0.25249  1.0000
  S   S117      1.0  0.31284  0.09074  0.20975  1.0000
  H   H326      1.0  0.32907  0.17378  0.11862  1.0000
  H   H327      1.0  0.25855  0.25209  0.46705  1.0000
  C   C331      1.0  0.25000  0.13644  0.12095  1.0000
  C   C332      1.0  0.26459  0.25231  0.41122  1.0000
  H   H328      1.0  0.31379  0.40353  0.12166  1.0000
  H   H329      1.0  0.26784  0.17978  0.23288  1.0000
  H   H330      1.0  0.29763  0.18396  0.26214  1.0000
  S   S118      1.0  0.25568  0.33327  0.20462  1.0000
  C   C333      1.0  0.27278  0.29934  0.11644  1.0000
  C   C334      1.0  0.30233  0.26823  0.26898  1.0000
  H   H331      1.0  0.29667  0.43617  0.15311  1.0000
  C   C335      1.0  0.31548  0.42812  0.18017  1.0000
  Fe  Fe56      1.0  0.25115  0.36091  0.22459  1.0000
  S   S119      1.0  0.25228  0.35250  0.26140  1.0000
  C   C336      1.0  0.25999  0.14664  0.23911  1.0000
  C   C337      1.0  0.25971  0.27016  0.14314  1.0000
  H   H332      1.0  0.31484  0.08822  0.13206  1.0000
  H   H333      1.0  0.27777  0.31567  0.11238  1.0000
  H   H334      1.0  0.33063  0.36989  0.16259  1.0000
  N   N26       1.0  0.31999  0.12062  0.13517  1.0000
  C   C338      1.0  0.33424  0.11401  0.15043  1.0000
  H   H335      1.0  0.32263  0.16672  0.25231  1.0000
  C   C339      1.0  0.25724  0.24724  0.45132  1.0000
  C   C340      1.0  0.34756  0.12857  0.15414  1.0000
  H   H336      1.0  0.30672  0.14712  0.11178  1.0000
  C   C341      1.0  0.30565  0.10532  0.13220  1.0000
  H   H337      1.0  0.33499  0.09758  0.16026  1.0000
  S   S120      1.0  0.26301  0.20697  0.09207  1.0000
  N   N27       1.0  0.29552  0.28898  0.27473  1.0000
  H   H338      1.0  0.35519  0.16194  0.14629  1.0000
  C   C342      1.0  0.25622  0.47636  0.16670  1.0000
  H   H339      1.0  0.29872  0.11041  0.11633  1.0000
  C   C343      1.0  0.27314  0.16263  0.23955  1.0000
  H   H340      1.0  0.29156  0.10499  0.14600  1.0000
  H   H341      1.0  0.24268  0.33713  0.30806  1.0000
  H   H342      1.0  0.30755  0.18501  0.23258  1.0000
  H   H343      1.0  0.27233  0.17882  0.13233  1.0000
  C   C344      1.0  0.30566  0.17395  0.24885  1.0000
  H   H344      1.0  0.47399  0.16587  0.27657  1.0000
  H   H345      1.0  0.48283  0.24898  0.27054  1.0000
  C   C345      1.0  0.26659  0.30315  0.15606  1.0000
  C   C346      1.0  0.25953  0.25780  0.12627  1.0000
  Fe  Fe57      1.0  0.24979  0.09463  0.16659  1.0000
  H   H346      1.0  0.24464  0.15123  0.23222  1.0000
  C   C347      1.0  0.49110  0.24011  0.28430  1.0000
  C   C348      1.0  0.24302  0.14677  0.10075  1.0000
  C   C349      1.0  0.48207  0.22244  0.29810  1.0000
  C   C350      1.0  0.24629  0.16871  0.09208  1.0000
  H   H347      1.0  0.24991  0.23144  0.39573  1.0000
  H   H348      1.0  0.48654  0.19627  0.32573  1.0000
  H   H349      1.0  0.25631  0.24502  0.29182  1.0000
  C   C351      1.0  0.26868  0.49102  0.19557  1.0000
  H   H350      1.0  0.24400  0.28321  0.30119  1.0000
  H   H351      1.0  0.28950  0.28859  0.80012  1.0000
  C   C352      1.0  0.27093  0.22103  0.78168  1.0000
  C   C353      1.0  0.34554  0.17756  0.66049  1.0000
  Fe  Fe58      1.0  0.28255  0.12100  0.72170  1.0000
  S   S121      1.0  0.25821  0.14782  0.70678  1.0000
  S   S122      1.0  0.30966  0.12905  0.73776  1.0000
  Fe  Fe59      1.0  0.26191  0.08407  0.70863  1.0000
  H   H352      1.0  0.34741  0.19462  0.65365  1.0000
  C   C354      1.0  0.24831  0.44644  0.64595  1.0000
  Fe  Fe60      1.0  0.26335  0.12872  0.67846  1.0000
  S   S123      1.0  0.27212  0.14864  0.64492  1.0000
  H   H353      1.0  0.29651  0.24172  0.77465  1.0000
  C   C355      1.0  0.48657  0.24208  0.73020  1.0000
  S   S124      1.0  0.28969  0.10313  0.69219  1.0000
  H   H354      1.0  0.27882  0.33624  0.67249  1.0000
  Fe  Fe61      1.0  0.40692  0.24615  0.73338  1.0000
  S   S125      1.0  0.38688  0.25958  0.70561  1.0000
  S   S126      1.0  0.44440  0.23692  0.72665  1.0000
  Fe  Fe62      1.0  0.36586  0.24289  0.76757  1.0000
  S   S127      1.0  0.34251  0.25640  0.74315  1.0000
  S   S128      1.0  0.35281  0.22903  0.80252  1.0000
  Fe  Fe63      1.0  0.36485  0.23425  0.72112  1.0000
  S   S129      1.0  0.34648  0.21947  0.70039  1.0000
  Fe  Fe64      1.0  0.36574  0.28091  0.72945  1.0000
  S   S130      1.0  0.35303  0.31564  0.71408  1.0000
  S   S131      1.0  0.38663  0.21851  0.74665  1.0000
  S   S132      1.0  0.38742  0.26958  0.75625  1.0000
  C   C356      1.0  0.31858  0.15511  0.72881  1.0000
  C   C357      1.0  0.33710  0.15951  0.73640  1.0000
  C   C358      1.0  0.34511  0.17981  0.72876  1.0000
  C   C359      1.0  0.33484  0.19562  0.71316  1.0000
  C   C360      1.0  0.31609  0.19142  0.70594  1.0000
  C   C361      1.0  0.30797  0.17128  0.71377  1.0000
  H   H355      1.0  0.34551  0.14703  0.74792  1.0000
  H   H356      1.0  0.35975  0.18282  0.73422  1.0000
  H   H357      1.0  0.30813  0.20353  0.69381  1.0000
  H   H358      1.0  0.29387  0.16813  0.70766  1.0000
  H   H359      1.0  0.36817  0.13460  0.69597  1.0000
  C   C362      1.0  0.28057  0.25869  0.82085  1.0000
  C   C363      1.0  0.29529  0.27159  0.80681  1.0000
  C   C364      1.0  0.31751  0.26254  0.80117  1.0000
  C   C365      1.0  0.32523  0.24074  0.81007  1.0000
  C   C366      1.0  0.31062  0.22794  0.82445  1.0000
  C   C367      1.0  0.28822  0.23678  0.82954  1.0000
  H   H360      1.0  0.32874  0.27257  0.79018  1.0000
  H   H361      1.0  0.31653  0.21102  0.83123  1.0000
  H   H362      1.0  0.27699  0.22666  0.84026  1.0000
  C   C368      1.0  0.27986  0.34101  0.73447  1.0000
  C   C369      1.0  0.29048  0.32253  0.74726  1.0000
  C   C370      1.0  0.31294  0.31470  0.74114  1.0000
  C   C371      1.0  0.32497  0.32547  0.72232  1.0000
  C   C372      1.0  0.31445  0.34421  0.70971  1.0000
  C   C373      1.0  0.29185  0.35190  0.71567  1.0000
  H   H363      1.0  0.28132  0.31423  0.76197  1.0000
  H   H364      1.0  0.32102  0.30064  0.75128  1.0000
  H   H365      1.0  0.32379  0.35272  0.69528  1.0000
  H   H366      1.0  0.28378  0.36631  0.70591  1.0000
  C   C374      1.0  0.26002  0.22776  0.95375  1.0000
  C   C375      1.0  0.25543  0.25651  0.88672  1.0000
  S   S133      1.0  0.25154  0.34963  0.74255  1.0000
  H   H367      1.0  0.46981  0.20508  0.77315  1.0000
  H   H368      1.0  0.28849  0.00287  0.69818  1.0000
  S   S134      1.0  0.25278  0.27049  0.82719  1.0000
  H   H369      1.0  0.26965  0.15447  0.80132  1.0000
  C   C376      1.0  0.46388  0.24949  0.73601  1.0000
  C   C377      1.0  0.45734  0.26550  0.75021  1.0000
  C   C378      1.0  0.25479  0.22479  0.91668  1.0000
  H   H370      1.0  0.31727  0.32201  0.65712  1.0000
  C   C379      1.0  0.31254  0.18135  0.64243  1.0000
  H   H371      1.0  0.43996  0.27138  0.75480  1.0000
  H   H372      1.0  0.29605  0.18449  0.65274  1.0000
  H   H373      1.0  0.32700  0.21002  0.77158  1.0000
  C   C380      1.0  0.28693  0.32028  0.67975  1.0000
  H   H374      1.0  0.25961  0.31482  0.70585  1.0000
  H   H375      1.0  0.31826  0.17187  0.77662  1.0000
  H   H376      1.0  0.33719  0.11815  0.68829  1.0000
  C   C381      1.0  0.27610  0.30819  0.69843  1.0000
  H   H377      1.0  0.24915  0.47574  0.66005  1.0000
  C   C382      1.0  0.35741  0.14387  0.68439  1.0000
  C   C383      1.0  0.44498  0.24190  0.80715  1.0000
  C   C384      1.0  0.34003  0.13463  0.68008  1.0000
  C   C385      1.0  0.27065  0.00605  0.75404  1.0000
  N   N28       1.0  0.32852  0.16835  0.65636  1.0000
  H   H378      1.0  0.46808  0.28556  0.77027  1.0000
  C   C386      1.0  0.45670  0.21503  0.78276  1.0000
  H   H379      1.0  0.31086  0.17201  0.62916  1.0000
  S   S135      1.0  0.27205  0.04661  0.70831  1.0000
  N   N29       1.0  0.31904  0.29221  0.68051  1.0000
  H   H380      1.0  0.35325  0.29369  0.67694  1.0000
  C   C387      1.0  0.30849  0.28015  0.69875  1.0000
  H   H381      1.0  0.31681  0.26447  0.70631  1.0000
  H   H382      1.0  0.43101  0.20405  0.77000  1.0000
  C   C388      1.0  0.27067  0.00489  0.69978  1.0000
  C   C389      1.0  0.34198  0.28435  0.67150  1.0000
  C   C390      1.0  0.47333  0.27353  0.75892  1.0000
  H   H383      1.0  0.27885  0.27876  0.72289  1.0000
  C   C391      1.0  0.30865  0.31214  0.67114  1.0000
  C   C392      1.0  0.43475  0.21432  0.78095  1.0000
  H   H384      1.0  0.40966  0.25225  0.81448  1.0000
  H   H385      1.0  0.34433  0.28675  0.65305  1.0000
  H   H386      1.0  0.25048  0.21516  0.90547  1.0000
  C   C393      1.0  0.26295  0.24983  0.94650  1.0000
  C   C394      1.0  0.25812  0.02547  0.70375  1.0000
  C   C395      1.0  0.25594  0.21512  0.93877  1.0000
  H   H387      1.0  0.26714  0.15870  0.77205  1.0000
  H   H388      1.0  0.25977  0.22088  0.97120  1.0000
  H   H389      1.0  0.31748  0.19757  0.63428  1.0000
  H   H390      1.0  0.26321  0.27637  0.91898  1.0000
  C   C396      1.0  0.26173  0.25898  0.92426  1.0000
  C   C397      1.0  0.32570  0.14716  0.66588  1.0000
  H   H391      1.0  0.26493  0.26007  0.95836  1.0000
  C   C398      1.0  0.41775  0.22761  0.79259  1.0000
  C   C399      1.0  0.30991  0.20716  0.77483  1.0000
  H   H392      1.0  0.34687  0.26637  0.67733  1.0000
  C   C400      1.0  0.28692  0.28801  0.70805  1.0000
  C   C401      1.0  0.48460  0.22853  0.79826  1.0000
  N   N30       1.0  0.28335  0.18197  0.78186  1.0000
  C   C402      1.0  0.29279  0.22496  0.77662  1.0000
  C   C403      1.0  0.26648  0.19928  0.78417  1.0000
  H   H393      1.0  0.24947  0.19628  0.78810  1.0000
  S   S136      1.0  0.25702  0.09999  0.73976  1.0000
  H   H394      1.0  0.29313  0.14702  0.78089  1.0000
  C   C404      1.0  0.27811  0.15943  0.78420  1.0000
  C   C405      1.0  0.24993  0.16319  0.63169  1.0000
  H   H395      1.0  0.40065  0.22730  0.79125  1.0000
  C   C406      1.0  0.30486  0.18562  0.77770  1.0000
  C   C407      1.0  0.36030  0.16543  0.67446  1.0000
  H   H396      1.0  0.37326  0.17311  0.67834  1.0000
  H   H397      1.0  0.26858  0.18868  0.61371  1.0000
  H   H398      1.0  0.31203  0.14000  0.66285  1.0000
  H   H399      1.0  0.26421  0.27114  0.88119  1.0000
  C   C408      1.0  0.25285  0.18270  0.61682  1.0000
  N   N31       1.0  0.46157  0.22874  0.79572  1.0000
  H   H400      1.0  0.25758  0.23472  0.78391  1.0000
  H   H401      1.0  0.48903  0.21621  0.81275  1.0000
  C   C409      1.0  0.42284  0.24160  0.80569  1.0000
  N   N32       1.0  0.25791  0.24639  0.90963  1.0000
  H   H402      1.0  0.44885  0.25292  0.81724  1.0000
  C   C410      1.0  0.29358  0.00464  0.74928  1.0000
  H   H403      1.0  0.24349  0.30204  0.64566  1.0000
  H   H404      1.0  0.26607  0.44136  0.64392  1.0000
  H   H405      1.0  0.25593  0.48621  0.72128  1.0000
  H   H406      1.0  0.26051  0.02177  0.75689  1.0000
  H   H407      1.0  0.30123  0.01925  0.74860  1.0000
  H   H408      1.0  0.48735  0.24520  0.80059  1.0000
  H   H409      1.0  0.25248  0.19831  0.94449  1.0000
  H   H410      1.0  0.26252  0.24455  0.87494  1.0000
  H   H411      1.0  0.24184  0.41840  0.63307  1.0000
  C   C411      1.0  0.28997  0.94997  0.21197  1.0000
  C   C412      1.0  0.24720  0.75877  0.48961  1.0000
  Fe  Fe65      1.0  0.25436  0.75062  0.06940  1.0000
  S   S137      1.0  0.28997  0.74726  0.05321  1.0000
  H   H412      1.0  0.25737  0.63164  0.12297  1.0000
  H   H413      1.0  0.27353  0.80985  0.44467  1.0000
  S   S138      1.0  0.28392  0.69779  0.04492  1.0000
  H   H414      1.0  0.29107  0.65398  0.23602  1.0000
  Fe  Fe66      1.0  0.29223  0.71268  0.07249  1.0000
  S   S139      1.0  0.31768  0.69317  0.09332  1.0000
  S   S140      1.0  0.25738  0.71703  0.09019  1.0000
  N   N33       1.0  0.29449  0.93048  0.20336  1.0000
  H   H415      1.0  0.48567  0.70122  0.15322  1.0000
  S   S141      1.0  0.25153  0.93687  0.16058  1.0000
  H   H416      1.0  0.26805  0.66773  0.15213  1.0000
  Fe  Fe67      1.0  0.30065  0.58819  0.17106  1.0000
  S   S142      1.0  0.29182  0.56161  0.15504  1.0000
  S   S143      1.0  0.33181  0.60360  0.15967  1.0000
  Fe  Fe68      1.0  0.25988  0.58468  0.15240  1.0000
  H   H417      1.0  0.28776  0.68413  0.99679  1.0000
  Fe  Fe69      1.0  0.27503  0.54885  0.18909  1.0000
  S   S144      1.0  0.26996  0.61209  0.16549  1.0000
  S   S145      1.0  0.28703  0.57345  0.20544  1.0000
  Fe  Fe70      1.0  0.42264  0.70870  0.19914  1.0000
  S   S146      1.0  0.40458  0.74298  0.18907  1.0000
  Fe  Fe71      1.0  0.37961  0.68823  0.20883  1.0000
  S   S147      1.0  0.35892  0.72088  0.19961  1.0000
  S   S148      1.0  0.35979  0.66027  0.22329  1.0000
  Fe  Fe72      1.0  0.38561  0.72621  0.17083  1.0000
  S   S149      1.0  0.37416  0.74344  0.13851  1.0000
  Fe  Fe73      1.0  0.37915  0.73465  0.21883  1.0000
  S   S150      1.0  0.35927  0.76072  0.23873  1.0000
  S   S151      1.0  0.40528  0.69238  0.17842  1.0000
  S   S152      1.0  0.39822  0.70157  0.23040  1.0000
  Fe  Fe74      1.0  0.28504  0.75029  0.35125  1.0000
  S   S153      1.0  0.27250  0.77785  0.37188  1.0000
  S   S154      1.0  0.32012  0.73504  0.34017  1.0000
  Fe  Fe75      1.0  0.24794  0.78894  0.34795  1.0000
  C   C413      1.0  0.47781  0.73544  0.20287  1.0000
  H   H418      1.0  0.27726  0.96588  0.24101  1.0000
  C   C414      1.0  0.28125  0.80263  0.02668  1.0000
  H   H419      1.0  0.31353  0.67404  0.20799  1.0000
  Fe  Fe76      1.0  0.24827  0.90109  0.17555  1.0000
  S   S155      1.0  0.26274  0.76366  0.32582  1.0000
  S   S156      1.0  0.26247  0.72720  0.37157  1.0000
  H   H420      1.0  0.25061  0.66807  0.09888  1.0000
  Fe  Fe77      1.0  0.25966  0.85355  0.16381  1.0000
  H   H421      1.0  0.28438  0.63155  0.22478  1.0000
  H   H422      1.0  0.29309  0.80151  0.17673  1.0000
  C   C415      1.0  0.27157  0.84329  0.26288  1.0000
  C   C416      1.0  0.28280  0.82836  0.27846  1.0000
  C   C417      1.0  0.27194  0.82227  0.30006  1.0000
  H   H423      1.0  0.29990  0.82139  0.27384  1.0000
  H   H424      1.0  0.28068  0.81064  0.31198  1.0000
  C   C418      1.0  0.34901  0.75348  0.26705  1.0000
  C   C419      1.0  0.35852  0.73443  0.27987  1.0000
  C   C420      1.0  0.34976  0.72910  0.30242  1.0000
  C   C421      1.0  0.33128  0.74259  0.31213  1.0000
  C   C422      1.0  0.32179  0.76162  0.29927  1.0000
  C   C423      1.0  0.33074  0.76713  0.27685  1.0000
  H   H425      1.0  0.37276  0.72395  0.27251  1.0000
  H   H426      1.0  0.35726  0.71445  0.31234  1.0000
  H   H427      1.0  0.30786  0.77238  0.30670  1.0000
  H   H428      1.0  0.32345  0.78200  0.26706  1.0000
  S   S157      1.0  0.28552  0.85082  0.23600  1.0000
  H   H429      1.0  0.29743  0.81543  0.21055  1.0000
  C   C424      1.0  0.33932  0.61947  0.17741  1.0000
  C   C425      1.0  0.35356  0.63514  0.16855  1.0000
  C   C426      1.0  0.36007  0.64772  0.18244  1.0000
  C   C427      1.0  0.35273  0.64434  0.20534  1.0000
  C   C428      1.0  0.33853  0.62863  0.21419  1.0000
  C   C429      1.0  0.33163  0.61643  0.20024  1.0000
  H   H430      1.0  0.35967  0.63753  0.15092  1.0000
  H   H431      1.0  0.37097  0.65982  0.17546  1.0000
  H   H432      1.0  0.33286  0.62589  0.23190  1.0000
  H   H433      1.0  0.32089  0.60421  0.20725  1.0000
  C   C430      1.0  0.27783  0.93035  0.24822  1.0000
  C   C431      1.0  0.24935  0.75600  0.45006  1.0000
  H   H434      1.0  0.28043  0.89486  0.24996  1.0000
  C   C432      1.0  0.26594  0.81690  0.12480  1.0000
  C   C433      1.0  0.27895  0.80275  0.11050  1.0000
  C   C434      1.0  0.26907  0.79041  0.09908  1.0000
  C   C435      1.0  0.28142  0.95024  0.23446  1.0000
  Fe  Fe78      1.0  0.24894  0.70536  0.06105  1.0000
  H   H435      1.0  0.29676  0.80140  0.10811  1.0000
  H   H436      1.0  0.27928  0.77951  0.08819  1.0000
  C   C436      1.0  0.33301  0.70749  0.10593  1.0000
  C   C437      1.0  0.34553  0.69564  0.12223  1.0000
  C   C438      1.0  0.35786  0.70658  0.13264  1.0000
  C   C439      1.0  0.35824  0.72936  0.12633  1.0000
  C   C440      1.0  0.34582  0.74118  0.10995  1.0000
  C   C441      1.0  0.33299  0.73035  0.09999  1.0000
  H   H437      1.0  0.34574  0.67792  0.12686  1.0000
  H   H438      1.0  0.36749  0.69731  0.14515  1.0000
  H   H439      1.0  0.34617  0.75877  0.10487  1.0000
  H   H440      1.0  0.32347  0.73961  0.08741  1.0000
  C   C442      1.0  0.24298  0.65436  0.09678  1.0000
  C   C443      1.0  0.29145  0.91085  0.21684  1.0000
  C   C444      1.0  0.27310  0.65959  0.18653  1.0000
  C   C445      1.0  0.24949  0.85228  0.26897  1.0000
  H   H441      1.0  0.32296  0.69133  0.16908  1.0000
  H   H442      1.0  0.24951  0.83388  0.37380  1.0000
  C   C446      1.0  0.27798  0.66935  0.16435  1.0000
  C   C447      1.0  0.30873  0.68266  0.17385  1.0000
  C   C448      1.0  0.25000  0.83159  0.30630  1.0000
  C   C449      1.0  0.28092  0.64981  0.22470  1.0000
  H   H443      1.0  0.29687  0.91813  0.17282  1.0000
  C   C450      1.0  0.28080  0.76397  0.46423  1.0000
  C   C451      1.0  0.27110  0.76042  0.44639  1.0000
  H   H444      1.0  0.32648  0.76217  0.15306  1.0000
  C   C452      1.0  0.26890  0.76335  0.48593  1.0000
  H   H445      1.0  0.31339  0.77246  0.00339  1.0000
  H   H446      1.0  0.29762  0.76741  0.46117  1.0000
  H   H447      1.0  0.28045  0.76110  0.42983  1.0000
  H   H448      1.0  0.24393  0.79809  0.28472  1.0000
  N   N34       1.0  0.28582  0.66123  0.20190  1.0000
  C   C453      1.0  0.35102  0.79540  0.19328  1.0000
  S   S158      1.0  0.27917  0.83187  0.13894  1.0000
  N   N35       1.0  0.30562  0.69999  0.30173  1.0000
  C   C454      1.0  0.32218  0.68251  0.29873  1.0000
  C   C455      1.0  0.30247  0.71722  0.28481  1.0000
  C   C456      1.0  0.33631  0.68212  0.27843  1.0000
  C   C457      1.0  0.31637  0.71741  0.26433  1.0000
  C   C458      1.0  0.33339  0.69974  0.26121  1.0000
  C   C459      1.0  0.29074  0.69974  0.32298  1.0000
  H   H449      1.0  0.32468  0.66890  0.31217  1.0000
  H   H450      1.0  0.28955  0.73123  0.28730  1.0000
  H   H451      1.0  0.34963  0.66841  0.27602  1.0000
  H   H452      1.0  0.31453  0.73153  0.25125  1.0000
  H   H453      1.0  0.34464  0.69986  0.24566  1.0000
  H   H454      1.0  0.27830  0.68865  0.32392  1.0000
  H   H455      1.0  0.30024  0.69428  0.33715  1.0000
  H   H456      1.0  0.28405  0.64109  0.06036  1.0000
  C   C460      1.0  0.32481  0.78054  0.14912  1.0000
  H   H457      1.0  0.47986  0.73004  0.15494  1.0000
  Fe  Fe79      1.0  0.26347  0.86232  0.20985  1.0000
  C   C461      1.0  0.33270  0.80549  0.20643  1.0000
  H   H458      1.0  0.29555  0.89528  0.21021  1.0000
  H   H459      1.0  0.36233  0.77898  0.16463  1.0000
  H   H460      1.0  0.28175  0.71656  0.32510  1.0000
  H   H461      1.0  0.32187  0.92636  0.17778  1.0000
  H   H462      1.0  0.29885  0.94680  0.16968  1.0000
  S   S159      1.0  0.46027  0.69841  0.19778  1.0000
  C   C462      1.0  0.34808  0.78736  0.17442  1.0000
  C   C463      1.0  0.28297  0.91049  0.23941  1.0000
  C   C464      1.0  0.30359  0.93044  0.17980  1.0000
  H   H463      1.0  0.26156  0.98114  0.14718  1.0000
  H   H464      1.0  0.29233  0.96559  0.20134  1.0000
  H   H465      1.0  0.27622  0.60264  0.07452  1.0000
  H   H466      1.0  0.33468  0.81113  0.22152  1.0000
  N   N36       1.0  0.24455  0.81630  0.42936  1.0000
  C   C465      1.0  0.30334  0.67276  0.19588  1.0000
  C   C466      1.0  0.26055  0.80771  0.03936  1.0000
  C   C467      1.0  0.30944  0.79972  0.18127  1.0000
  H   H467      1.0  0.25919  0.65049  0.19138  1.0000
  Fe  Fe80      1.0  0.27828  0.73268  0.02696  1.0000
  C   C468      1.0  0.24291  0.81884  0.12742  1.0000
  H   H468      1.0  0.30003  0.68838  0.14085  1.0000
  Fe  Fe81      1.0  0.25560  0.59581  0.19881  1.0000
  S   S160      1.0  0.27878  0.87552  0.17564  1.0000
  H   H469      1.0  0.46129  0.74462  0.20284  1.0000
  N   N37       1.0  0.32750  0.78976  0.16855  1.0000
  C   C469      1.0  0.48152  0.71274  0.20150  1.0000
  C   C470      1.0  0.24606  0.79259  0.10142  1.0000
  H   H470      1.0  0.27110  0.93031  0.26567  1.0000
  C   C471      1.0  0.31177  0.80772  0.20039  1.0000
  H   H471      1.0  0.36729  0.79307  0.19818  1.0000
  H   H472      1.0  0.33769  0.78494  0.13484  1.0000
  H   H473      1.0  0.30847  0.78708  0.14377  1.0000
  H   H474      1.0  0.24555  0.52616  0.24411  1.0000
  C   C472      1.0  0.25520  0.97938  0.16478  1.0000
  N   N38       1.0  0.31946  0.62595  0.09805  1.0000
  C   C473      1.0  0.31498  0.60491  0.10614  1.0000
  C   C474      1.0  0.30851  0.63890  0.08183  1.0000
  C   C475      1.0  0.29956  0.59617  0.09761  1.0000
  C   C476      1.0  0.29307  0.63063  0.07286  1.0000
  C   C477      1.0  0.28868  0.60908  0.08077  1.0000
  C   C478      1.0  0.33504  0.63515  0.10776  1.0000
  H   H475      1.0  0.32321  0.59480  0.11938  1.0000
  H   H476      1.0  0.31157  0.65579  0.07587  1.0000
  H   H477      1.0  0.29560  0.57969  0.10439  1.0000
  S   S161      1.0  0.27651  0.51287  0.20620  1.0000
  H   H478      1.0  0.34313  0.64781  0.09552  1.0000
  H   H479      1.0  0.32615  0.64305  0.12229  1.0000
  H   H480      1.0  0.34834  0.62197  0.11351  1.0000
  H   H481      1.0  0.26318  0.65432  0.23143  1.0000
  C   C479      1.0  0.24917  0.95899  0.17590  1.0000
  H   H482      1.0  0.26149  0.51038  0.16447  1.0000
  H   H483      1.0  0.29588  0.80509  0.03266  1.0000
  C   C480      1.0  0.24257  0.82657  0.39030  1.0000
  S   S162      1.0  0.24680  0.83825  0.19830  1.0000
  C   C481      1.0  0.25311  0.82590  0.40867  1.0000
  S   S163      1.0  0.24382  0.58896  0.12190  1.0000
  C   C482      1.0  0.29596  0.68089  0.15802  1.0000
  C   C483      1.0  0.25564  0.81639  0.44838  1.0000
  H   H484      1.0  0.25369  0.83350  0.45232  1.0000
  Fe  Fe82      1.0  0.24802  0.75578  0.39047  1.0000
  S   S164      1.0  0.24258  0.73929  0.04152  1.0000
  H   H485      1.0  0.25913  0.81407  0.05493  1.0000
  H   H486      1.0  0.26828  0.83292  0.40626  1.0000
  H   H487      1.0  0.48875  0.72110  0.12798  1.0000
  H   H488      1.0  0.24885  0.80561  0.46352  1.0000
  C   C484      1.0  0.24668  0.63378  0.11055  1.0000
  C   C485      1.0  0.26202  0.49421  0.17464  1.0000
  C   C486      1.0  0.25343  0.68114  0.99868  1.0000
  H   H489      1.0  0.25388  0.56969  0.24748  1.0000
  H   H490      1.0  0.24948  0.68163  0.01644  1.0000
  N   N39       1.0  0.28306  0.79422  0.00729  1.0000
  S   S165      1.0  0.24238  0.57036  0.18534  1.0000
  C   C487      1.0  0.26463  0.79040  0.00019  1.0000
  H   H491      1.0  0.24262  0.55234  0.27213  1.0000
  C   C488      1.0  0.24370  0.79515  0.01256  1.0000
  H   H492      1.0  0.24398  0.73648  0.99077  1.0000
  C   C489      1.0  0.30506  0.78823  0.99481  1.0000
  C   C490      1.0  0.49106  0.71747  0.14572  1.0000
  C   C491      1.0  0.24170  0.80387  0.03227  1.0000
  H   H493      1.0  0.31531  0.80152  0.99334  1.0000
  Fe  Fe83      1.0  0.43085  0.77005  0.69360  1.0000
  S   S166      1.0  0.40631  0.75539  0.67984  1.0000
  Fe  Fe84      1.0  0.39501  0.80217  0.71569  1.0000
  S   S167      1.0  0.36755  0.79080  0.70412  1.0000
  S   S168      1.0  0.38978  0.82758  0.73850  1.0000
  Fe  Fe85      1.0  0.38532  0.75667  0.71320  1.0000
  S   S169      1.0  0.36293  0.73132  0.72753  1.0000
  Fe  Fe86      1.0  0.38995  0.79041  0.67156  1.0000
  S   S170      1.0  0.37506  0.80387  0.64011  1.0000
  S   S171      1.0  0.41116  0.76785  0.72792  1.0000
  S   S172      1.0  0.41626  0.80522  0.68224  1.0000
  Fe  Fe87      1.0  0.29116  0.75723  0.58826  1.0000
  S   S173      1.0  0.25853  0.76551  0.60911  1.0000
  S   S174      1.0  0.31872  0.74247  0.60850  1.0000
  C   C492      1.0  0.30648  0.98463  0.74469  1.0000
  H   H494      1.0  0.45624  0.75989  0.74321  1.0000
  H   H495      1.0  0.47872  0.81734  0.75468  1.0000
  S   S175      1.0  0.26062  0.59024  0.70295  1.0000
  C   C493      1.0  0.30284  0.77146  0.66852  1.0000
  S   S176      1.0  0.28662  0.78824  0.56334  1.0000
  S   S177      1.0  0.27810  0.73610  0.56893  1.0000
  Fe  Fe88      1.0  0.27792  0.89760  0.71749  1.0000
  S   S178      1.0  0.27642  0.92230  0.68639  1.0000
  S   S179      1.0  0.30208  0.89742  0.74048  1.0000
  Fe  Fe89      1.0  0.26597  0.89513  0.67269  1.0000
  S   S180      1.0  0.28074  0.88785  0.63823  1.0000
  H   H496      1.0  0.28216  0.60245  0.79939  1.0000
  C   C494      1.0  0.26318  0.94904  0.74739  1.0000
  Fe  Fe90      1.0  0.28250  0.72895  0.83730  1.0000
  S   S181      1.0  0.27290  0.70058  0.86357  1.0000
  S   S182      1.0  0.31661  0.73824  0.82641  1.0000
  C   C495      1.0  0.27087  0.65324  0.77546  1.0000
  C   C496      1.0  0.29233  0.59034  0.78893  1.0000
  S   S183      1.0  0.29070  0.73912  0.98975  1.0000
  H   H497      1.0  0.27183  0.94060  0.73312  1.0000
  Fe  Fe91      1.0  0.27085  0.76780  0.54507  1.0000
  H   H498      1.0  0.25984  0.83659  0.75073  1.0000
  H   H499      1.0  0.24282  0.80542  0.77467  1.0000
  H   H500      1.0  0.29366  0.86658  0.59921  1.0000
  S   S184      1.0  0.26046  0.72438  0.81395  1.0000
  H   H501      1.0  0.26617  0.93861  0.62248  1.0000
  C   C497      1.0  0.42051  0.74998  0.62031  1.0000
  Fe  Fe92      1.0  0.24645  0.61117  0.72974  1.0000
  H   H502      1.0  0.26146  0.65258  0.60421  1.0000
  C   C498      1.0  0.28391  0.65930  0.66075  1.0000
  Fe  Fe93      1.0  0.25276  0.79495  0.58308  1.0000
  Fe  Fe94      1.0  0.24848  0.69834  0.84128  1.0000
  N   N40       1.0  0.24160  0.67998  0.96396  1.0000
  H   H503      1.0  0.26183  0.71339  0.66229  1.0000
  C   C499      1.0  0.27365  0.73489  0.92999  1.0000
  C   C500      1.0  0.28543  0.73722  0.94678  1.0000
  C   C501      1.0  0.27494  0.73749  0.96889  1.0000
  C   C502      1.0  0.31690  0.83730  0.64890  1.0000
  C   C503      1.0  0.29756  0.80710  0.64529  1.0000
  H   H504      1.0  0.28207  0.73413  0.91318  1.0000
  H   H505      1.0  0.30288  0.73835  0.94266  1.0000
  S   S185      1.0  0.26932  0.62522  0.74630  1.0000
  H   H506      1.0  0.27602  0.84113  0.58348  1.0000
  C   C504      1.0  0.27829  0.86139  0.60787  1.0000
  H   H507      1.0  0.28198  0.71661  0.62387  1.0000
  H   H508      1.0  0.33766  0.80295  0.75678  1.0000
  C   C505      1.0  0.25115  0.73309  0.93512  1.0000
  S   S186      1.0  0.27124  0.86953  0.70260  1.0000
  N   N41       1.0  0.27849  0.57670  0.78206  1.0000
  C   C506      1.0  0.27141  0.69878  0.65602  1.0000
  C   C507      1.0  0.25029  0.66339  0.61460  1.0000
  H   H509      1.0  0.25045  0.69222  0.58910  1.0000
  H   H510      1.0  0.29018  0.81763  0.63174  1.0000
  H   H511      1.0  0.33117  0.82669  0.77141  1.0000
  C   C508      1.0  0.44298  0.80228  0.74805  1.0000
  H   H512      1.0  0.30617  0.95085  0.74072  1.0000
  H   H513      1.0  0.42993  0.79272  0.75762  1.0000
  H   H514      1.0  0.46873  0.80159  0.69499  1.0000
  S   S187      1.0  0.28146  0.76987  0.50729  1.0000
  C   C509      1.0  0.28281  0.70050  0.63427  1.0000
  H   H515      1.0  0.44040  0.80610  0.73035  1.0000
  C   C510      1.0  0.24806  0.84087  0.60959  1.0000
  C   C511      1.0  0.27962  0.68219  0.96480  1.0000
  C   C512      1.0  0.27301  0.79004  0.78712  1.0000
  H   H516      1.0  0.33447  0.83782  0.64993  1.0000
  C   C513      1.0  0.42080  0.77288  0.61667  1.0000
  C   C514      1.0  0.26830  0.86926  0.62776  1.0000
  C   C515      1.0  0.26039  0.98677  0.69838  1.0000
  H   H517      1.0  0.28383  0.64297  0.67067  1.0000
  C   C516      1.0  0.26017  0.80635  0.77422  1.0000
  C   C517      1.0  0.28461  0.56886  0.76214  1.0000
  C   C518      1.0  0.26396  0.66275  0.79507  1.0000
  C   C519      1.0  0.34978  0.73361  0.75484  1.0000
  C   C520      1.0  0.35701  0.74662  0.76761  1.0000
  C   C521      1.0  0.34690  0.74762  0.78967  1.0000
  C   C522      1.0  0.32914  0.73612  0.79887  1.0000
  C   C523      1.0  0.32152  0.72356  0.78594  1.0000
  C   C524      1.0  0.33199  0.72213  0.76402  1.0000
  H   H518      1.0  0.37075  0.75546  0.76068  1.0000
  H   H519      1.0  0.35291  0.75724  0.79968  1.0000
  H   H520      1.0  0.30797  0.71449  0.79298  1.0000
  H   H521      1.0  0.32640  0.71199  0.75422  1.0000
  C   C525      1.0  0.36539  0.84691  0.73798  1.0000
  C   C526      1.0  0.36004  0.86126  0.75387  1.0000
  C   C527      1.0  0.34059  0.87664  0.75436  1.0000
  C   C528      1.0  0.32633  0.87788  0.73892  1.0000
  C   C529      1.0  0.33158  0.86358  0.72289  1.0000
  C   C530      1.0  0.35114  0.84806  0.72244  1.0000
  H   H522      1.0  0.37096  0.86047  0.76590  1.0000
  H   H523      1.0  0.33662  0.88764  0.76676  1.0000
  H   H524      1.0  0.32075  0.86465  0.71074  1.0000
  H   H525      1.0  0.35537  0.83731  0.70987  1.0000
  C   C531      1.0  0.35995  0.78657  0.63091  1.0000
  C   C532      1.0  0.36009  0.76439  0.64066  1.0000
  C   C533      1.0  0.34771  0.75098  0.63331  1.0000
  C   C534      1.0  0.33473  0.75972  0.61648  1.0000
  C   C535      1.0  0.33459  0.78192  0.60667  1.0000
  C   C536      1.0  0.34736  0.79522  0.61373  1.0000
  H   H526      1.0  0.36961  0.75753  0.65398  1.0000
  H   H527      1.0  0.34790  0.73383  0.64099  1.0000
  H   H528      1.0  0.32475  0.78879  0.59358  1.0000
  H   H529      1.0  0.34722  0.81235  0.60603  1.0000
  H   H530      1.0  0.27035  0.97105  0.69560  1.0000
  C   C537      1.0  0.29303  0.78533  0.65140  1.0000
  H   H531      1.0  0.33500  0.79923  0.78666  1.0000
  H   H532      1.0  0.26410  0.93692  0.76290  1.0000
  H   H533      1.0  0.26573  0.77641  0.79768  1.0000
  H   H534      1.0  0.26264  0.97882  0.62944  1.0000
  C   C538      1.0  0.43633  0.73587  0.63169  1.0000
  C   C539      1.0  0.49030  0.75557  0.74744  1.0000
  H   H535      1.0  0.24447  0.91244  0.61371  1.0000
  C   C540      1.0  0.45225  0.74479  0.63918  1.0000
  H   H536      1.0  0.27307  0.67459  0.79888  1.0000
  H   H537      1.0  0.46425  0.77455  0.64152  1.0000
  H   H538      1.0  0.29887  0.57382  0.75074  1.0000
  C   C541      1.0  0.24830  0.86270  0.63869  1.0000
  C   C542      1.0  0.26022  0.57079  0.79621  1.0000
  N   N42       1.0  0.31173  0.81469  0.65573  1.0000
  S   S188      1.0  0.46757  0.75633  0.68789  1.0000
  H   H539      1.0  0.24409  0.53752  0.76574  1.0000
  H   H540      1.0  0.41892  0.81468  0.62154  1.0000
  H   H541      1.0  0.25531  0.57709  0.81194  1.0000
  H   H542      1.0  0.28537  0.65781  0.76427  1.0000
  S   S189      1.0  0.25824  0.75516  0.85320  1.0000
  S   S190      1.0  0.24960  0.62660  0.64642  1.0000
  C   C543      1.0  0.26837  0.84692  0.59898  1.0000
  H   H543      1.0  0.26605  0.78328  0.98507  1.0000
  C   C544      1.0  0.45195  0.76779  0.63538  1.0000
  H   H544      1.0  0.40839  0.78375  0.60787  1.0000
  H   H545      1.0  0.46444  0.73408  0.64841  1.0000
  H   H546      1.0  0.26133  0.96446  0.65771  1.0000
  H   H547      1.0  0.30096  0.60033  0.77427  1.0000
  C   C545      1.0  0.27207  0.67802  0.66935  1.0000
  N   N43       1.0  0.29462  0.68208  0.62607  1.0000
  C   C546      1.0  0.29498  0.66161  0.63888  1.0000
  C   C547      1.0  0.30569  0.68419  0.60295  1.0000
  C   C548      1.0  0.25924  0.63784  0.77031  1.0000
  H   H548      1.0  0.31962  0.67048  0.60042  1.0000
  H   H549      1.0  0.29367  0.68409  0.59167  1.0000
  H   H550      1.0  0.31273  0.69998  0.59817  1.0000
  N   N44       1.0  0.30462  0.80860  0.77321  1.0000
  C   C549      1.0  0.29534  0.79140  0.78637  1.0000
  C   C550      1.0  0.29216  0.82465  0.76045  1.0000
  C   C551      1.0  0.29613  0.96637  0.74449  1.0000
  C   C552      1.0  0.26975  0.82381  0.76080  1.0000
  C   C553      1.0  0.31667  0.77959  0.67957  1.0000
  S   S191      1.0  0.24259  0.90726  0.73195  1.0000
  C   C554      1.0  0.43611  0.80558  0.62057  1.0000
  H   H551      1.0  0.29950  0.83829  0.75000  1.0000
  C   C555      1.0  0.48513  0.79222  0.69512  1.0000
  H   H552      1.0  0.29609  0.68393  0.95600  1.0000
  H   H553      1.0  0.30513  0.77865  0.79650  1.0000
  N   N45       1.0  0.43611  0.78153  0.62458  1.0000
  C   C556      1.0  0.48912  0.77010  0.69150  1.0000
  H   H554      1.0  0.30341  0.64682  0.63209  1.0000
  C   C557      1.0  0.32078  0.80147  0.67301  1.0000
  H   H555      1.0  0.40785  0.74332  0.61462  1.0000
  C   C558      1.0  0.27492  0.68234  0.98771  1.0000
  H   H556      1.0  0.33175  0.80772  0.68131  1.0000
  H   H557      1.0  0.44049  0.81823  0.75468  1.0000
  H   H558      1.0  0.30603  0.84862  0.65972  1.0000
  C   C559      1.0  0.32824  0.80939  0.77195  1.0000
  H   H559      1.0  0.31467  0.84359  0.63134  1.0000
  C   C560      1.0  0.24756  0.55665  0.79058  1.0000
  C   C561      1.0  0.24422  0.68583  0.60609  1.0000
  H   H560      1.0  0.30483  0.57960  0.79843  1.0000
  C   C562      1.0  0.24568  0.65644  0.80999  1.0000
  N   N46       1.0  0.27358  0.96817  0.74843  1.0000
  S   S192      1.0  0.24222  0.53319  0.72035  1.0000
  H   H561      1.0  0.43610  0.71811  0.63497  1.0000
  C   C563      1.0  0.48168  0.79984  0.75320  1.0000
  N   N47       1.0  0.46503  0.78960  0.74984  1.0000
  H   H562      1.0  0.30006  0.75433  0.67292  1.0000
  Fe  Fe95      1.0  0.24708  0.72667  0.87809  1.0000
  H   H563      1.0  0.28253  0.77911  0.64245  1.0000
  H   H564      1.0  0.24296  0.98909  0.75635  1.0000
  H   H565      1.0  0.30410  0.78554  0.97769  1.0000
  H   H566      1.0  0.32431  0.98340  0.74088  1.0000
  Fe  Fe96      1.0  0.24495  0.74709  0.58807  1.0000
  C   C564      1.0  0.46915  0.76779  0.74684  1.0000
  H   H567      1.0  0.44537  0.81054  0.60386  1.0000
  C   C565      1.0  0.26266  0.68103  0.95310  1.0000
  H   H568      1.0  0.32465  0.76886  0.69272  1.0000
  H   H569      1.0  0.26626  0.68200  0.93513  1.0000
  C   C566      1.0  0.25234  0.73617  0.97391  1.0000
  C   C567      1.0  0.26084  0.98754  0.75355  1.0000
  H   H570      1.0  0.24563  0.95407  0.74478  1.0000
  H   H571      1.0  0.44377  0.81087  0.63333  1.0000
  C   C568      1.0  0.27235  0.55465  0.75602  1.0000
  C   C569      1.0  0.24842  0.94071  0.62787  1.0000
  C   C570      1.0  0.25139  0.97288  0.64453  1.0000
  H   H572      1.0  0.27701  0.54861  0.74011  1.0000
  C   C571      1.0  0.25380  0.54843  0.77042  1.0000
  H   H573      1.0  0.26304  0.67631  0.68613  1.0000
  C   C572      1.0  0.24177  0.65482  0.63637  1.0000
  Fe  Fe97      1.0  0.71469  0.08397  0.24024  1.0000
  S   S193      1.0  0.69048  0.10294  0.21820  1.0000
  S   S194      1.0  0.70707  0.06227  0.27296  1.0000
  Fe  Fe98      1.0  0.55314  0.20619  0.25194  1.0000
  S   S195      1.0  0.57324  0.22767  0.26362  1.0000
  Fe  Fe99      1.0  0.58448  0.16433  0.26380  1.0000
  S   S196      1.0  0.60677  0.18155  0.27705  1.0000
  S   S197      1.0  0.59228  0.12752  0.26484  1.0000
  Fe  Fe100     1.0  0.57591  0.20054  0.29279  1.0000
  S   S198      1.0  0.56987  0.20719  0.32816  1.0000
  Fe  Fe101     1.0  0.60293  0.20713  0.24679  1.0000
  S   S199      1.0  0.63598  0.21760  0.23185  1.0000
  S   S200      1.0  0.55347  0.18071  0.28251  1.0000
  S   S201      1.0  0.58284  0.18826  0.23213  1.0000
  Fe  Fe102     1.0  0.71468  0.21995  0.40157  1.0000
  H   H574      1.0  0.71645  0.00477  0.23692  1.0000
  C   C573      1.0  0.49687  0.20910  0.24431  1.0000
  Fe  Fe103     1.0  0.67582  0.21112  0.38168  1.0000
  S   S202      1.0  0.68927  0.22468  0.34704  1.0000
  S   S203      1.0  0.64441  0.19598  0.38940  1.0000
  H   H575      1.0  0.49697  0.12370  0.25304  1.0000
  C   C574      1.0  0.51980  0.26392  0.27256  1.0000
  Fe  Fe104     1.0  0.69794  0.25156  0.36241  1.0000
  S   S204      1.0  0.69040  0.28689  0.34569  1.0000
  S   S205      1.0  0.70776  0.18994  0.38940  1.0000
  S   S206      1.0  0.68142  0.23981  0.39687  1.0000
  H   H576      1.0  0.70387  0.46581  0.27287  1.0000
  H   H577      1.0  0.67398  0.29515  0.43232  1.0000
  C   C575      1.0  0.72266  0.33446  0.30689  1.0000
  H   H578      1.0  0.67750  0.11182  0.28565  1.0000
  H   H579      1.0  0.66237  0.14016  0.35273  1.0000
  H   H580      1.0  0.71689  0.27190  0.39223  1.0000
  S   S207      1.0  0.71855  0.26394  0.13956  1.0000
  C   C576      1.0  0.65646  0.15534  0.34155  1.0000
  C   C577      1.0  0.72330  0.31956  0.18515  1.0000
  S   S208      1.0  0.72138  0.23206  0.10130  1.0000
  H   H581      1.0  0.65276  0.19552  0.14136  1.0000
  Fe  Fe105     1.0  0.69649  0.25792  0.11708  1.0000
  S   S209      1.0  0.66100  0.25290  0.12954  1.0000
  H   H582      1.0  0.53700  0.23789  0.30677  1.0000
  S   S210      1.0  0.70519  0.28617  0.09040  1.0000
  H   H583      1.0  0.71324  0.15938  0.35628  1.0000
  C   C578      1.0  0.72667  0.47367  0.29176  1.0000
  C   C579      1.0  0.53782  0.11898  0.26381  1.0000
  H   H584      1.0  0.63675  0.18234  0.20185  1.0000
  H   H585      1.0  0.52639  0.10723  0.27248  1.0000
  C   C580      1.0  0.72221  0.12299  0.31895  1.0000
  H   H586      1.0  0.71507  0.42539  0.28145  1.0000
  Fe  Fe106     1.0  0.72150  0.20544  0.35529  1.0000
  S   S211      1.0  0.71691  0.34912  0.21455  1.0000
  H   H587      1.0  0.71602  0.26382  0.29301  1.0000
  C   C581      1.0  0.71138  0.30279  0.33322  1.0000
  C   C582      1.0  0.53172  0.16693  0.21803  1.0000
  H   H588      1.0  0.71312  0.30177  0.39000  1.0000
  C   C583      1.0  0.72403  0.22383  0.45799  1.0000
  N   N48       1.0  0.73903  0.42798  0.30133  1.0000
  C   C584      1.0  0.70662  0.32094  0.31678  1.0000
  H   H589      1.0  0.72055  0.19645  0.14598  1.0000
  S   S212      1.0  0.71727  0.09611  0.31758  1.0000
  H   H590      1.0  0.62699  0.19201  0.17588  1.0000
  H   H591      1.0  0.69043  0.32458  0.31167  1.0000
  C   C585      1.0  0.65357  0.24474  0.15831  1.0000
  C   C586      1.0  0.63165  0.24189  0.16697  1.0000
  C   C587      1.0  0.62574  0.23415  0.18972  1.0000
  C   C588      1.0  0.64180  0.22930  0.20382  1.0000
  C   C589      1.0  0.66352  0.23270  0.19525  1.0000
  C   C590      1.0  0.66943  0.24019  0.17257  1.0000
  H   H592      1.0  0.61928  0.24542  0.15601  1.0000
  H   H593      1.0  0.60889  0.23166  0.19627  1.0000
  H   H594      1.0  0.67602  0.22889  0.20609  1.0000
  H   H595      1.0  0.68639  0.24180  0.16612  1.0000
  C   C591      1.0  0.59183  0.20358  0.34377  1.0000
  C   C592      1.0  0.58757  0.19585  0.36654  1.0000
  C   C593      1.0  0.60395  0.19359  0.38002  1.0000
  C   C594      1.0  0.62466  0.19972  0.37114  1.0000
  C   C595      1.0  0.62907  0.20774  0.34830  1.0000
  C   C596      1.0  0.61274  0.20935  0.33453  1.0000
  H   H596      1.0  0.57148  0.19152  0.37387  1.0000
  H   H597      1.0  0.60038  0.18736  0.39757  1.0000
  H   H598      1.0  0.64498  0.21263  0.34129  1.0000
  H   H599      1.0  0.61602  0.21577  0.31701  1.0000
  C   C597      1.0  0.73235  0.29815  0.33973  1.0000
  Fe  Fe107     1.0  0.72793  0.08253  0.28505  1.0000
  C   C598      1.0  0.72711  0.31368  0.16371  1.0000
  H   H600      1.0  0.71793  0.30777  0.19935  1.0000
  S   S213      1.0  0.73304  0.10567  0.25312  1.0000
  H   H601      1.0  0.68968  0.28718  0.39631  1.0000
  H   H602      1.0  0.70407  0.12318  0.35205  1.0000
  H   H603      1.0  0.53295  0.26944  0.27937  1.0000
  C   C599      1.0  0.71401  0.13222  0.33849  1.0000
  C   C600      1.0  0.66354  0.10950  0.23205  1.0000
  C   C601      1.0  0.65106  0.12980  0.22496  1.0000
  C   C602      1.0  0.62942  0.13559  0.23547  1.0000
  C   C603      1.0  0.61984  0.12066  0.25259  1.0000
  C   C604      1.0  0.63228  0.10025  0.25969  1.0000
  C   C605      1.0  0.65427  0.09482  0.24967  1.0000
  H   H604      1.0  0.65831  0.14103  0.21139  1.0000
  H   H605      1.0  0.61994  0.15135  0.22995  1.0000
  H   H606      1.0  0.62495  0.08868  0.27297  1.0000
  H   H607      1.0  0.66376  0.07899  0.25507  1.0000
  H   H608      1.0  0.63818  0.16303  0.18259  1.0000
  C   C606      1.0  0.73287  0.32921  0.14516  1.0000
  C   C607      1.0  0.73591  0.35029  0.14831  1.0000
  H   H609      1.0  0.55328  0.10918  0.25638  1.0000
  C   C608      1.0  0.70491  0.24931  0.02679  1.0000
  C   C609      1.0  0.69276  0.24528  0.01109  1.0000
  C   C610      1.0  0.70154  0.22934  0.46582  1.0000
  H   H610      1.0  0.69695  0.25089  0.04360  1.0000
  H   H611      1.0  0.67546  0.24371  0.01601  1.0000
  H   H612      1.0  0.63833  0.15975  0.34651  1.0000
  N   N49       1.0  0.67745  0.34061  0.15472  1.0000
  C   C611      1.0  0.67289  0.33731  0.17746  1.0000
  C   C612      1.0  0.67636  0.32420  0.14295  1.0000
  C   C613      1.0  0.66737  0.31699  0.18901  1.0000
  C   C614      1.0  0.67062  0.30380  0.15396  1.0000
  C   C615      1.0  0.66616  0.30017  0.17713  1.0000
  C   C616      1.0  0.68249  0.36221  0.14277  1.0000
  H   H613      1.0  0.67415  0.35016  0.18687  1.0000
  H   H614      1.0  0.68023  0.32670  0.12493  1.0000
  H   H615      1.0  0.66430  0.31426  0.20705  1.0000
  H   H616      1.0  0.66976  0.29085  0.14455  1.0000
  H   H617      1.0  0.66185  0.28433  0.18584  1.0000
  H   H618      1.0  0.66722  0.37265  0.13776  1.0000
  H   H619      1.0  0.68970  0.37105  0.15326  1.0000
  H   H620      1.0  0.69495  0.36008  0.12766  1.0000
  N   N50       1.0  0.66207  0.18481  0.17364  1.0000
  C   C617      1.0  0.67885  0.18089  0.18615  1.0000
  C   C618      1.0  0.66604  0.19218  0.15130  1.0000
  C   C619      1.0  0.70012  0.18498  0.17640  1.0000
  C   C620      1.0  0.68709  0.19636  0.14102  1.0000
  C   C621      1.0  0.70420  0.19286  0.15369  1.0000
  C   C622      1.0  0.72570  0.34084  0.18821  1.0000
  S   S214      1.0  0.73155  0.23360  0.36766  1.0000
  C   C623      1.0  0.52146  0.23377  0.30428  1.0000
  C   C624      1.0  0.73299  0.16401  0.32395  1.0000
  C   C625      1.0  0.49776  0.15137  0.22676  1.0000
  C   C626      1.0  0.63992  0.18024  0.18399  1.0000
  C   C627      1.0  0.73945  0.22258  0.47248  1.0000
  H   H621      1.0  0.52198  0.20642  0.33133  1.0000
  H   H622      1.0  0.71880  0.34839  0.29420  1.0000
  C   C628      1.0  0.54056  0.15066  0.23423  1.0000
  H   H623      1.0  0.67573  0.17505  0.20387  1.0000
  C   C629      1.0  0.72271  0.43635  0.28858  1.0000
  H   H624      1.0  0.73383  0.39436  0.30268  1.0000
  Fe  Fe108     1.0  0.73182  0.26066  0.07604  1.0000
  H   H625      1.0  0.54212  0.12759  0.27645  1.0000
  C   C630      1.0  0.71617  0.45927  0.28376  1.0000
  Fe  Fe109     1.0  0.72956  0.28993  0.11192  1.0000
  C   C631      1.0  0.72716  0.25185  0.02052  1.0000
  C   C632      1.0  0.51299  0.21591  0.31829  1.0000
  H   H626      1.0  0.55728  0.15050  0.23717  1.0000
  H   H627      1.0  0.54123  0.17965  0.20892  1.0000
  H   H628      1.0  0.73623  0.28414  0.35229  1.0000
  H   H629      1.0  0.50872  0.18230  0.26864  1.0000
  C   C633      1.0  0.66777  0.13142  0.31241  1.0000
  C   C634      1.0  0.70694  0.28647  0.39928  1.0000
  N   N51       1.0  0.52819  0.13532  0.24653  1.0000
  C   C635      1.0  0.65859  0.17033  0.30197  1.0000
  C   C636      1.0  0.67212  0.12835  0.29007  1.0000
  C   C637      1.0  0.66276  0.16787  0.27945  1.0000
  C   C638      1.0  0.66960  0.14671  0.27352  1.0000
  H   H630      1.0  0.65304  0.18679  0.30650  1.0000
  H   H631      1.0  0.66038  0.18226  0.26671  1.0000
  H   H632      1.0  0.67287  0.14447  0.25617  1.0000
  H   H633      1.0  0.66478  0.16887  0.34437  1.0000
  N   N52       1.0  0.66131  0.15225  0.31809  1.0000
  H   H634      1.0  0.66992  0.11701  0.32511  1.0000
  H   H635      1.0  0.68948  0.23038  0.45488  1.0000
  S   S215      1.0  0.52170  0.22080  0.23728  1.0000
  C   C639      1.0  0.69464  0.23371  0.48784  1.0000
  H   H636      1.0  0.68987  0.20278  0.12342  1.0000
  C   C640      1.0  0.50703  0.13551  0.24301  1.0000
  S   S216      1.0  0.73384  0.21901  0.43021  1.0000
  C   C641      1.0  0.71922  0.15274  0.34092  1.0000
  C   C642      1.0  0.49494  0.19008  0.26013  1.0000
  Fe  Fe110     1.0  0.73908  0.04079  0.26185  1.0000
  C   C643      1.0  0.68999  0.29003  0.43782  1.0000
  C   C644      1.0  0.51018  0.16724  0.21430  1.0000
  C   C645      1.0  0.49316  0.21024  0.31515  1.0000
  H   H637      1.0  0.50284  0.18025  0.20237  1.0000
  N   N53       1.0  0.51046  0.24567  0.28762  1.0000
  H   H638      1.0  0.71327  0.28097  0.48510  1.0000
  H   H639      1.0  0.67677  0.29285  0.47221  1.0000
  H   H640      1.0  0.50676  0.27847  0.26973  1.0000
  H   H641      1.0  0.72334  0.25590  0.32051  1.0000
  C   C646      1.0  0.70413  0.30149  0.99620  1.0000
  C   C647      1.0  0.69146  0.28894  0.46035  1.0000
  H   H642      1.0  0.72688  0.23544  0.30227  1.0000
  C   C648      1.0  0.73528  0.13470  0.30163  1.0000
  C   C649      1.0  0.72814  0.25299  0.30298  1.0000
  H   H643      1.0  0.69853  0.30147  0.01388  1.0000
  N   N54       1.0  0.70843  0.28445  0.42298  1.0000
  H   H644      1.0  0.71330  0.18230  0.18640  1.0000
  H   H645      1.0  0.72486  0.29738  0.16160  1.0000
  C   C650      1.0  0.74067  0.15512  0.30416  1.0000
  H   H646      1.0  0.73430  0.37254  0.17202  1.0000
  S   S217      1.0  0.73503  0.32350  0.11783  1.0000
  C   C651      1.0  0.71197  0.28237  0.46758  1.0000
  H   H647      1.0  0.73994  0.29300  0.28952  1.0000
  S   S218      1.0  0.73083  0.38626  0.25524  1.0000
  H   H648      1.0  0.52711  0.25843  0.25630  1.0000
  C   C652      1.0  0.72859  0.27785  0.42996  1.0000
  Fe  Fe111     1.0  0.74010  0.36722  0.22629  1.0000
  C   C653      1.0  0.73259  0.35602  0.16980  1.0000
  C   C654      1.0  0.73722  0.24972  0.99857  1.0000
  H   H649      1.0  0.73749  0.30495  0.99825  1.0000
  C   C655      1.0  0.73068  0.27682  0.45231  1.0000
  H   H650      1.0  0.74037  0.36243  0.13405  1.0000
  Fe  Fe112     1.0  0.67315  0.24988  0.89019  1.0000
  S   S219      1.0  0.70503  0.24415  0.86717  1.0000
  S   S220      1.0  0.64035  0.26143  0.87789  1.0000
  Fe  Fe113     1.0  0.69564  0.24065  0.93212  1.0000
  H   H651      1.0  0.60770  0.22837  0.88568  1.0000
  S   S221      1.0  0.68593  0.24094  0.96944  1.0000
  Fe  Fe114     1.0  0.71791  0.26337  0.88819  1.0000
  C   C656      1.0  0.63919  0.19499  0.89260  1.0000
  Fe  Fe115     1.0  0.71358  0.21507  0.89297  1.0000
  C   C657      1.0  0.64637  0.16549  0.86222  1.0000
  S   S222      1.0  0.68527  0.27179  0.90923  1.0000
  S   S223      1.0  0.68056  0.21921  0.91475  1.0000
  Fe  Fe116     1.0  0.59374  0.26218  0.72320  1.0000
  S   S224      1.0  0.56841  0.29243  0.72784  1.0000
  S   S225      1.0  0.60443  0.25098  0.68961  1.0000
  Fe  Fe117     1.0  0.59747  0.25070  0.77227  1.0000
  S   S226      1.0  0.57226  0.27971  0.78097  1.0000
  S   S227      1.0  0.61790  0.22675  0.79560  1.0000
  Fe  Fe118     1.0  0.55258  0.27076  0.75732  1.0000
  Fe  Fe119     1.0  0.59008  0.29873  0.75088  1.0000
  S   S228      1.0  0.59657  0.33301  0.75304  1.0000
  S   S229      1.0  0.57656  0.23986  0.75117  1.0000
  S   S230      1.0  0.61666  0.27029  0.74372  1.0000
  Fe  Fe120     1.0  0.70800  0.39075  0.79441  1.0000
  S   S231      1.0  0.72432  0.36459  0.77361  1.0000
  S   S232      1.0  0.69349  0.38012  0.82975  1.0000
  Fe  Fe121     1.0  0.71194  0.42880  0.75672  1.0000
  H   H652      1.0  0.68054  0.19209  0.56747  1.0000
  Fe  Fe122     1.0  0.70317  0.38333  0.74865  1.0000
  S   S233      1.0  0.69255  0.35997  0.72971  1.0000
  C   C658      1.0  0.71413  0.48332  0.77909  1.0000
  S   S234      1.0  0.68476  0.40805  0.77056  1.0000
  C   C659      1.0  0.68986  0.29817  0.98247  1.0000
  C   C660      1.0  0.72605  0.30348  0.98739  1.0000
  N   N55       1.0  0.62493  0.19705  0.87759  1.0000
  H   H653      1.0  0.73057  0.32108  0.73147  1.0000
  Fe  Fe123     1.0  0.71966  0.23630  0.55859  1.0000
  C   C661      1.0  0.72928  0.34731  0.83369  1.0000
  S   S235      1.0  0.70042  0.23892  0.52958  1.0000
  S   S236      1.0  0.72942  0.23379  0.91232  1.0000
  Fe  Fe124     1.0  0.71325  0.24973  0.60503  1.0000
  S   S237      1.0  0.69530  0.26992  0.63176  1.0000
  N   N56       1.0  0.61957  0.32242  0.67503  1.0000
  S   S238      1.0  0.70315  0.22176  0.59241  1.0000
  H   H654      1.0  0.68640  0.19300  0.52680  1.0000
  C   C662      1.0  0.66279  0.18005  0.77699  1.0000
  H   H655      1.0  0.71140  0.04774  0.75438  1.0000
  H   H656      1.0  0.60926  0.31073  0.82092  1.0000
  S   S239      1.0  0.51511  0.27391  0.76750  1.0000
  N   N57       1.0  0.71921  0.29916  0.95141  1.0000
  H   H657      1.0  0.69196  0.20008  0.70385  1.0000
  H   H658      1.0  0.60784  0.33274  0.79772  1.0000
  S   S240      1.0  0.70754  0.46573  0.74280  1.0000
  S   S241      1.0  0.70714  0.10486  0.76557  1.0000
  C   C663      1.0  0.72792  0.31299  0.85973  1.0000
  C   C664      1.0  0.71641  0.17449  0.64735  1.0000
  H   H659      1.0  0.64775  0.33653  0.67763  1.0000
  Fe  Fe125     1.0  0.71575  0.12504  0.78880  1.0000
  H   H660      1.0  0.70777  0.18713  0.63615  1.0000
  H   H661      1.0  0.63410  0.35578  0.79649  1.0000
  H   H662      1.0  0.68680  0.29328  0.94973  1.0000
  C   C665      1.0  0.67172  0.26151  0.64912  1.0000
  C   C666      1.0  0.65803  0.24968  0.64171  1.0000
  C   C667      1.0  0.63758  0.24615  0.65453  1.0000
  C   C668      1.0  0.63083  0.25427  0.67485  1.0000
  C   C669      1.0  0.64495  0.26528  0.68270  1.0000
  C   C670      1.0  0.66531  0.26894  0.66982  1.0000
  H   H663      1.0  0.66279  0.24404  0.62570  1.0000
  H   H664      1.0  0.62674  0.23751  0.64846  1.0000
  H   H665      1.0  0.63994  0.27157  0.69832  1.0000
  H   H666      1.0  0.67585  0.27817  0.67556  1.0000
  C   C671      1.0  0.62356  0.33977  0.74731  1.0000
  C   C672      1.0  0.62700  0.36030  0.75158  1.0000
  C   C673      1.0  0.64826  0.36637  0.74698  1.0000
  C   C674      1.0  0.66607  0.35216  0.73748  1.0000
  C   C675      1.0  0.66263  0.33167  0.73310  1.0000
  C   C676      1.0  0.64151  0.32533  0.73831  1.0000
  H   H667      1.0  0.61314  0.37164  0.75836  1.0000
  H   H668      1.0  0.65073  0.38233  0.75012  1.0000
  H   H669      1.0  0.67637  0.32066  0.72567  1.0000
  H   H670      1.0  0.63913  0.30946  0.73500  1.0000
  C   C677      1.0  0.71009  0.23267  0.50225  1.0000
  C   C678      1.0  0.72175  0.17257  0.86196  1.0000
  C   C679      1.0  0.70430  0.18478  0.85147  1.0000
  C   C680      1.0  0.69585  0.17568  0.83607  1.0000
  C   C681      1.0  0.70480  0.15440  0.83109  1.0000
  C   C682      1.0  0.60745  0.32806  0.69636  1.0000
  H   H671      1.0  0.66905  0.32568  0.64228  1.0000
  H   H672      1.0  0.69694  0.20093  0.85569  1.0000
  H   H673      1.0  0.68194  0.18484  0.82850  1.0000
  H   H674      1.0  0.73803  0.17714  0.49396  1.0000
  H   H675      1.0  0.66381  0.16179  0.77810  1.0000
  C   C683      1.0  0.63586  0.25325  0.85345  1.0000
  C   C684      1.0  0.64993  0.23599  0.84405  1.0000
  C   C685      1.0  0.64456  0.22832  0.82589  1.0000
  C   C686      1.0  0.62543  0.23819  0.81675  1.0000
  C   C687      1.0  0.61184  0.25603  0.82563  1.0000
  C   C688      1.0  0.61690  0.26333  0.84412  1.0000
  H   H676      1.0  0.66451  0.22807  0.85125  1.0000
  H   H677      1.0  0.65512  0.21460  0.81897  1.0000
  H   H678      1.0  0.59689  0.26355  0.81892  1.0000
  H   H679      1.0  0.60581  0.27652  0.85153  1.0000
  C   C689      1.0  0.64017  0.19951  0.74855  1.0000
  C   C690      1.0  0.70568  0.32021  0.86724  1.0000
  C   C691      1.0  0.69541  0.34115  0.85840  1.0000
  C   C692      1.0  0.70714  0.35467  0.84154  1.0000
  H   H680      1.0  0.70687  0.99449  0.83277  1.0000
  C   C693      1.0  0.72736  0.29682  0.92805  1.0000
  H   H681      1.0  0.69639  0.30989  0.88005  1.0000
  H   H682      1.0  0.67823  0.34674  0.86437  1.0000
  H   H683      1.0  0.62550  0.19918  0.76099  1.0000
  N   N58       1.0  0.66060  0.19084  0.75422  1.0000
  H   H684      1.0  0.61246  0.34293  0.70071  1.0000
  S   S242      1.0  0.73166  0.18282  0.88247  1.0000
  H   H685      1.0  0.59097  0.20663  0.88909  1.0000
  H   H686      1.0  0.67721  0.23813  0.49368  1.0000
  C   C694      1.0  0.65734  0.17799  0.89285  1.0000
  H   H687      1.0  0.65275  0.30478  0.62024  1.0000
  C   C695      1.0  0.67900  0.19097  0.73840  1.0000
  C   C696      1.0  0.73974  0.32660  0.84299  1.0000
  Fe  Fe126     1.0  0.72407  0.12830  0.73858  1.0000
  C   C697      1.0  0.72504  0.24577  0.98284  1.0000
  H   H688      1.0  0.61909  0.30510  0.79277  1.0000
  H   H689      1.0  0.67309  0.29548  0.98937  1.0000
  H   H690      1.0  0.71559  0.46654  0.78794  1.0000
  C   C698      1.0  0.65510  0.30285  0.81349  1.0000
  C   C699      1.0  0.67637  0.30563  0.81579  1.0000
  C   C700      1.0  0.66713  0.34489  0.80358  1.0000
  C   C701      1.0  0.68244  0.32678  0.81055  1.0000
  H   H691      1.0  0.65052  0.28635  0.81743  1.0000
  H   H692      1.0  0.68800  0.29154  0.82175  1.0000
  H   H693      1.0  0.67161  0.36146  0.79982  1.0000
  H   H694      1.0  0.69890  0.32920  0.81209  1.0000
  H   H695      1.0  0.69509  0.18335  0.74264  1.0000
  H   H696      1.0  0.74006  0.35908  0.72403  1.0000
  H   H697      1.0  0.73290  0.24452  0.96594  1.0000
  H   H698      1.0  0.66889  0.17654  0.90450  1.0000
  H   H699      1.0  0.61737  0.18462  0.85018  1.0000
  H   H700      1.0  0.64947  0.15437  0.84986  1.0000
  C   C702      1.0  0.73149  0.16111  0.56098  1.0000
  C   C703      1.0  0.66074  0.16302  0.87775  1.0000
  C   C704      1.0  0.71188  0.17171  0.57175  1.0000
  C   C705      1.0  0.62840  0.18268  0.86241  1.0000
  C   C706      1.0  0.60510  0.21388  0.87859  1.0000
  S   S243      1.0  0.73393  0.41301  0.78219  1.0000
  C   C707      1.0  0.73683  0.16279  0.63959  1.0000
  C   C708      1.0  0.69904  0.18369  0.53629  1.0000
  C   C709      1.0  0.63786  0.20883  0.72658  1.0000
  H   H701      1.0  0.73178  0.27896  0.92631  1.0000
  C   C710      1.0  0.73443  0.16197  0.53787  1.0000
  C   C711      1.0  0.65659  0.20911  0.71040  1.0000
  C   C712      1.0  0.71987  0.03086  0.75708  1.0000
  S   S244      1.0  0.73005  0.14968  0.76180  1.0000
  C   C713      1.0  0.61066  0.31043  0.66323  1.0000
  S   S245      1.0  0.70483  0.14736  0.71186  1.0000
  C   C714      1.0  0.64317  0.31024  0.63532  1.0000
  H   H702      1.0  0.67498  0.14997  0.87752  1.0000
  C   C715      1.0  0.72298  0.14268  0.84072  1.0000
  C   C716      1.0  0.64030  0.32787  0.66777  1.0000
  H   H703      1.0  0.49610  0.22442  0.78309  1.0000
  C   C717      1.0  0.62222  0.30436  0.64310  1.0000
  C   C718      1.0  0.50258  0.25030  0.73872  1.0000
  H   H704      1.0  0.72000  0.15628  0.49841  1.0000
  H   H705      1.0  0.67799  0.18342  0.78209  1.0000
  H   H706      1.0  0.59480  0.30494  0.66966  1.0000
  H   H707      1.0  0.65505  0.21583  0.69321  1.0000
  H   H708      1.0  0.69050  0.17789  0.67515  1.0000
  H   H709      1.0  0.69480  0.01684  0.74646  1.0000
  C   C719      1.0  0.73256  0.22695  0.49449  1.0000
  H   H710      1.0  0.51995  0.24413  0.73442  1.0000
  H   H711      1.0  0.61539  0.29429  0.63414  1.0000
  H   H712      1.0  0.61065  0.31393  0.70974  1.0000
  N   N59       1.0  0.64022  0.32067  0.80647  1.0000
  H   H713      1.0  0.62164  0.21558  0.72208  1.0000
  C   C720      1.0  0.64591  0.34155  0.80175  1.0000
  C   C721      1.0  0.65236  0.32195  0.64776  1.0000
  C   C722      1.0  0.71779  0.15318  0.68428  1.0000
  C   C723      1.0  0.61802  0.31716  0.80442  1.0000
  C   C724      1.0  0.67731  0.20031  0.71634  1.0000
  H   H714      1.0  0.58936  0.33187  0.69599  1.0000
  S   S246      1.0  0.69166  0.14182  0.81475  1.0000
  H   H715      1.0  0.64861  0.18620  0.78914  1.0000
  C   C725      1.0  0.70672  0.16937  0.66951  1.0000
  C   C726      1.0  0.71049  0.01328  0.75262  1.0000
  N   N60       1.0  0.71830  0.17314  0.52585  1.0000
  C   C727      1.0  0.49601  0.26586  0.75338  1.0000
  S   S247      1.0  0.72742  0.26580  0.57113  1.0000
  H   H716      1.0  0.60082  0.22038  0.86168  1.0000
  S   S248      1.0  0.72812  0.40554  0.73232  1.0000
  C   C728      1.0  0.69559  0.18321  0.55935  1.0000
  Fe  Fe127     1.0  0.73715  0.20380  0.59693  1.0000
  C   C729      1.0  0.72149  0.17292  0.50180  1.0000
  C   C730      1.0  0.69777  0.29687  0.96002  1.0000
  C   C731      1.0  0.73854  0.14185  0.67670  1.0000
  C   C732      1.0  0.74010  0.02651  0.76510  1.0000
  H   H717      1.0  0.71462  0.30461  0.91732  1.0000
  H   H718      1.0  0.70908  0.18534  0.49354  1.0000
  H   H719      1.0  0.63668  0.20665  0.90436  1.0000
  H   H720      1.0  0.49181  0.22971  0.71921  1.0000
  H   H721      1.0  0.70948  0.17124  0.58967  1.0000
  H   H722      1.0  0.73844  0.35774  0.82071  1.0000
  C   C733      1.0  0.73137  0.15172  0.85621  1.0000
  H   H723      1.0  0.73000  0.12624  0.83696  1.0000
  C   C734      1.0  0.73340  0.30216  0.96483  1.0000
  C   C735      1.0  0.70265  0.24378  0.98898  1.0000
  H   H724      1.0  0.70764  0.00212  0.80318  1.0000
  C   C736      1.0  0.70950  0.48749  0.75727  1.0000
  S   S249      1.0  0.74120  0.28710  0.87119  1.0000
  C   C737      1.0  0.72120  0.99121  0.75607  1.0000
  H   H725      1.0  0.68910  0.66616  0.09386  1.0000
  C   C738      1.0  0.64043  0.75946  0.11187  1.0000
  H   H726      1.0  0.68264  0.81109  0.11421  1.0000
  S   S250      1.0  0.71689  0.86526  0.26205  1.0000
  C   C739      1.0  0.73397  0.82199  0.16761  1.0000
  S   S251      1.0  0.71604  0.92749  0.22775  1.0000
  S   S252      1.0  0.71386  0.87213  0.20849  1.0000
  Fe  Fe128     1.0  0.72664  0.88973  0.23169  1.0000
  H   H727      1.0  0.70741  0.66885  0.16806  1.0000
  Fe  Fe129     1.0  0.70692  0.84646  0.23828  1.0000
  S   S253      1.0  0.67689  0.82899  0.24827  1.0000
  H   H728      1.0  0.65293  0.73587  0.08917  1.0000
  Fe  Fe130     1.0  0.57688  0.74065  0.19920  1.0000
  S   S254      1.0  0.59852  0.75222  0.21948  1.0000
  S   S255      1.0  0.53914  0.75003  0.20388  1.0000
  Fe  Fe131     1.0  0.61671  0.72237  0.16791  1.0000
  S   S256      1.0  0.64121  0.73214  0.18513  1.0000
  S   S257      1.0  0.62602  0.70558  0.13754  1.0000
  Fe  Fe132     1.0  0.62028  0.71938  0.21633  1.0000
  S   S258      1.0  0.64078  0.70137  0.24261  1.0000
  Fe  Fe133     1.0  0.61830  0.76413  0.18690  1.0000
  S   S259      1.0  0.63531  0.79460  0.17644  1.0000
  S   S260      1.0  0.59717  0.70665  0.19901  1.0000
  S   S261      1.0  0.59522  0.75549  0.16668  1.0000
  H   H729      1.0  0.70715  0.80705  0.16180  1.0000
  C   C740      1.0  0.68388  0.67845  0.10493  1.0000
  C   C741      1.0  0.66149  0.68324  0.11372  1.0000
  C   C742      1.0  0.65452  0.69899  0.12816  1.0000
  C   C743      1.0  0.67015  0.71003  0.13369  1.0000
  C   C744      1.0  0.69254  0.70566  0.12439  1.0000
  H   H730      1.0  0.64954  0.67469  0.10930  1.0000
  H   H731      1.0  0.66493  0.72262  0.14430  1.0000
  H   H732      1.0  0.70444  0.71457  0.12832  1.0000
  H   H733      1.0  0.67121  0.73290  0.21650  1.0000
  C   C745      1.0  0.55842  0.71734  0.15034  1.0000
  C   C746      1.0  0.69940  0.68982  0.11000  1.0000
  C   C747      1.0  0.72437  0.94806  0.23995  1.0000
  H   H734      1.0  0.71763  0.65514  0.14415  1.0000
  H   H735      1.0  0.69339  0.73952  0.17979  1.0000
  C   C748      1.0  0.66568  0.81954  0.22800  1.0000
  C   C749      1.0  0.67192  0.82631  0.20526  1.0000
  C   C750      1.0  0.66237  0.81869  0.18958  1.0000
  C   C751      1.0  0.64697  0.80386  0.19651  1.0000
  C   C752      1.0  0.64105  0.79682  0.21923  1.0000
  C   C753      1.0  0.65012  0.80491  0.23491  1.0000
  H   H736      1.0  0.68387  0.83761  0.19976  1.0000
  H   H737      1.0  0.66698  0.82427  0.17203  1.0000
  H   H738      1.0  0.62912  0.78549  0.22476  1.0000
  H   H739      1.0  0.64519  0.79964  0.25247  1.0000
  H   H740      1.0  0.68944  0.74894  0.07836  1.0000
  C   C754      1.0  0.68100  0.77427  0.09972  1.0000
  C   C755      1.0  0.69091  0.64208  0.22301  1.0000
  C   C756      1.0  0.69387  0.65310  0.23990  1.0000
  C   C757      1.0  0.67912  0.67211  0.24499  1.0000
  C   C758      1.0  0.66130  0.68017  0.23328  1.0000
  C   C759      1.0  0.65905  0.66995  0.21552  1.0000
  C   C760      1.0  0.67379  0.65088  0.21047  1.0000
  H   H741      1.0  0.70694  0.64652  0.24971  1.0000
  H   H742      1.0  0.68109  0.68010  0.25858  1.0000
  H   H743      1.0  0.64540  0.67613  0.20630  1.0000
  H   H744      1.0  0.67148  0.64255  0.19725  1.0000
  H   H745      1.0  0.72411  0.83049  0.18071  1.0000
  S   S262      1.0  0.74058  0.74390  0.07916  1.0000
  C   C761      1.0  0.52095  0.71212  0.20271  1.0000
  C   C762      1.0  0.51726  0.73489  0.20385  1.0000
  Fe  Fe134     1.0  0.73538  0.60393  0.23814  1.0000
  C   C763      1.0  0.73899  0.94269  0.25556  1.0000
  H   H746      1.0  0.73089  0.81880  0.29467  1.0000
  H   H747      1.0  0.53748  0.70298  0.20262  1.0000
  C   C764      1.0  0.72441  0.80870  0.15693  1.0000
  C   C765      1.0  0.67740  0.74564  0.24445  1.0000
  N   N61       1.0  0.65127  0.63659  0.27699  1.0000
  C   C766      1.0  0.64643  0.65423  0.28852  1.0000
  C   C767      1.0  0.66928  0.62077  0.28022  1.0000
  C   C768      1.0  0.66021  0.65671  0.30324  1.0000
  C   C769      1.0  0.68331  0.62270  0.29491  1.0000
  C   C770      1.0  0.67882  0.64086  0.30635  1.0000
  C   C771      1.0  0.63669  0.63424  0.26160  1.0000
  H   H748      1.0  0.63227  0.66690  0.28579  1.0000
  H   H749      1.0  0.67327  0.60688  0.27094  1.0000
  H   H750      1.0  0.65666  0.67100  0.31192  1.0000
  H   H751      1.0  0.69780  0.61039  0.29722  1.0000
  H   H752      1.0  0.68991  0.64264  0.31746  1.0000
  H   H753      1.0  0.62828  0.65073  0.25452  1.0000
  H   H754      1.0  0.64630  0.62644  0.24725  1.0000
  H   H755      1.0  0.62400  0.62392  0.27038  1.0000
  C   C772      1.0  0.64524  0.77668  0.12124  1.0000
  H   H756      1.0  0.62475  0.75334  0.11720  1.0000
  N   N62       1.0  0.66519  0.78411  0.11485  1.0000
  H   H757      1.0  0.69707  0.77969  0.09512  1.0000
  H   H758      1.0  0.63297  0.78398  0.13376  1.0000
  S   S263      1.0  0.72724  0.68376  0.09821  1.0000
  C   C773      1.0  0.67006  0.80185  0.12524  1.0000
  C   C774      1.0  0.69412  0.75655  0.18273  1.0000
  C   C775      1.0  0.65627  0.74966  0.09609  1.0000
  H   H759      1.0  0.67661  0.79458  0.14095  1.0000
  H   H760      1.0  0.57560  0.71722  0.15176  1.0000
  H   H761      1.0  0.68023  0.76809  0.17602  1.0000
  C   C776      1.0  0.67981  0.74436  0.22176  1.0000
  C   C777      1.0  0.70294  0.77231  0.21323  1.0000
  H   H762      1.0  0.70483  0.97497  0.22147  1.0000
  C   C778      1.0  0.68816  0.76050  0.25149  1.0000
  C   C779      1.0  0.73750  0.98219  0.25769  1.0000
  H   H763      1.0  0.50629  0.68360  0.20051  1.0000
  H   H764      1.0  0.66698  0.73536  0.25637  1.0000
  H   H765      1.0  0.50946  0.75175  0.15071  1.0000
  S   S264      1.0  0.73994  0.82546  0.23242  1.0000
  C   C780      1.0  0.67677  0.75694  0.09009  1.0000
  H   H766      1.0  0.68614  0.76202  0.26899  1.0000
  H   H767      1.0  0.65496  0.81395  0.12919  1.0000
  N   N63       1.0  0.65620  0.88807  0.24847  1.0000
  C   C781      1.0  0.66633  0.90596  0.23854  1.0000
  C   C782      1.0  0.64668  0.87714  0.23616  1.0000
  C   C783      1.0  0.66781  0.91283  0.21557  1.0000
  C   C784      1.0  0.64811  0.88337  0.21312  1.0000
  C   C785      1.0  0.65881  0.90131  0.20279  1.0000
  C   C786      1.0  0.65475  0.88100  0.27255  1.0000
  H   H768      1.0  0.67371  0.91483  0.24826  1.0000
  H   H769      1.0  0.63852  0.86303  0.24406  1.0000
  H   H770      1.0  0.67645  0.92665  0.20774  1.0000
  H   H771      1.0  0.64127  0.87405  0.20338  1.0000
  H   H772      1.0  0.66036  0.90613  0.18489  1.0000
  H   H773      1.0  0.65718  0.86256  0.27652  1.0000
  H   H774      1.0  0.66785  0.88664  0.27934  1.0000
  H   H775      1.0  0.63833  0.88780  0.28107  1.0000
  N   N64       1.0  0.69260  0.75746  0.20650  1.0000
  C   C787      1.0  0.71620  0.97058  0.23347  1.0000
  H   H776      1.0  0.71789  0.78972  0.32489  1.0000
  H   H777      1.0  0.70995  0.76130  0.17323  1.0000
  C   C788      1.0  0.50320  0.70117  0.20153  1.0000
  H   H778      1.0  0.71243  0.78329  0.20112  1.0000
  H   H779      1.0  0.70893  0.78597  0.24109  1.0000
  S   S265      1.0  0.73645  0.61966  0.31258  1.0000
  S   S266      1.0  0.70767  0.61687  0.21784  1.0000
  H   H780      1.0  0.71399  0.63891  0.17128  1.0000
  C   C789      1.0  0.71909  0.65470  0.16191  1.0000
  C   C790      1.0  0.70108  0.77387  0.23582  1.0000
  S   S267      1.0  0.73172  0.58112  0.27074  1.0000
  S   S268      1.0  0.72479  0.78122  0.12671  1.0000
  C   C791      1.0  0.72273  0.98755  0.24223  1.0000
  C   C792      1.0  0.55123  0.69782  0.14829  1.0000
  H   H781      1.0  0.72871  0.49366  0.22682  1.0000
  H   H782      1.0  0.73386  0.65170  0.20027  1.0000
  H   H783      1.0  0.56285  0.68252  0.14801  1.0000
  H   H784      1.0  0.73493  0.72658  0.99632  1.0000
  C   C793      1.0  0.73714  0.79765  0.13993  1.0000
  C   C794      1.0  0.52118  0.73662  0.14954  1.0000
  C   C795      1.0  0.52894  0.69814  0.14692  1.0000
  C   C796      1.0  0.54333  0.73689  0.15094  1.0000
  H   H785      1.0  0.54856  0.75199  0.15335  1.0000
  C   C797      1.0  0.49555  0.74639  0.20407  1.0000
  C   C798      1.0  0.73538  0.78922  0.31887  1.0000
  H   H786      1.0  0.52340  0.68285  0.14558  1.0000
  H   H787      1.0  0.73005  0.65390  0.33985  1.0000
  N   N65       1.0  0.51422  0.71735  0.14774  1.0000
  H   H788      1.0  0.73900  0.67324  0.02956  1.0000
  H   H789      1.0  0.73799  0.65738  0.43229  1.0000
  H   H790      1.0  0.49244  0.76398  0.20503  1.0000
  H   H791      1.0  0.72240  0.49150  0.28733  1.0000
  C   C799      1.0  0.64346  0.64788  0.69736  1.0000
  S   S269      1.0  0.71057  0.86986  0.71640  1.0000
  S   S270      1.0  0.69617  0.90860  0.76413  1.0000
  Fe  Fe135     1.0  0.68932  0.62563  0.78279  1.0000
  C   C800      1.0  0.68616  0.96996  0.80336  1.0000
  S   S271      1.0  0.65857  0.64793  0.79510  1.0000
  H   H792      1.0  0.71155  0.60672  0.85379  1.0000
  H   H793      1.0  0.72267  0.66202  0.66357  1.0000
  C   C801      1.0  0.73271  0.70502  0.68466  1.0000
  H   H794      1.0  0.66353  0.69632  0.85666  1.0000
  C   C802      1.0  0.67204  0.66540  0.84353  1.0000
  H   H795      1.0  0.52404  0.75690  0.75050  1.0000
  N   N66       1.0  0.66997  0.66863  0.66143  1.0000
  S   S272      1.0  0.71277  0.60378  0.80400  1.0000
  S   S273      1.0  0.69278  0.60131  0.75899  1.0000
  Fe  Fe136     1.0  0.62076  0.79527  0.72769  1.0000
  S   S274      1.0  0.60386  0.81550  0.70000  1.0000
  S   S275      1.0  0.63232  0.81302  0.75172  1.0000
  Fe  Fe137     1.0  0.61930  0.75190  0.71142  1.0000
  S   S276      1.0  0.60264  0.76907  0.68216  1.0000
  S   S277      1.0  0.63223  0.71558  0.71105  1.0000
  Fe  Fe138     1.0  0.62667  0.79300  0.67847  1.0000
  S   S278      1.0  0.64927  0.80571  0.64815  1.0000
  Fe  Fe139     1.0  0.58109  0.78969  0.70658  1.0000
  S   S279      1.0  0.54410  0.80267  0.70794  1.0000
  S   S280      1.0  0.64489  0.77433  0.70573  1.0000
  S   S281      1.0  0.59629  0.77091  0.73640  1.0000
  C   C803      1.0  0.73235  0.67211  0.80897  1.0000
  C   C804      1.0  0.69147  0.71666  0.70866  1.0000
  C   C805      1.0  0.52383  0.79020  0.69974  1.0000
  C   C806      1.0  0.72389  0.85292  0.83331  1.0000
  H   H796      1.0  0.71965  0.76950  0.61118  1.0000
  C   C807      1.0  0.71718  0.50089  0.78940  1.0000
  C   C808      1.0  0.51068  0.75832  0.69132  1.0000
  C   C809      1.0  0.52795  0.76828  0.69547  1.0000
  H   H797      1.0  0.72108  0.49743  0.80616  1.0000
  H   H798      1.0  0.67458  0.68964  0.63012  1.0000
  H   H799      1.0  0.51397  0.74124  0.68841  1.0000
  H   H800      1.0  0.54434  0.75886  0.69583  1.0000
  C   C810      1.0  0.66736  0.78317  0.63823  1.0000
  C   C811      1.0  0.66055  0.76237  0.64165  1.0000
  C   C812      1.0  0.67471  0.74437  0.63355  1.0000
  C   C813      1.0  0.68868  0.78577  0.62713  1.0000
  H   H801      1.0  0.64412  0.76025  0.65009  1.0000
  H   H802      1.0  0.66903  0.72854  0.63584  1.0000
  H   H803      1.0  0.69404  0.80184  0.62449  1.0000
  C   C814      1.0  0.71581  0.52277  0.77800  1.0000
  C   C815      1.0  0.71062  0.52703  0.75638  1.0000
  C   C816      1.0  0.70748  0.50946  0.74609  1.0000
  C   C817      1.0  0.50241  0.80218  0.69919  1.0000
  H   H804      1.0  0.73889  0.66295  0.72178  1.0000
  S   S282      1.0  0.71786  0.63249  0.70425  1.0000
  H   H805      1.0  0.70948  0.54377  0.74742  1.0000
  H   H806      1.0  0.70380  0.51287  0.72925  1.0000
  C   C818      1.0  0.66440  0.63717  0.68968  1.0000
  H   H807      1.0  0.66453  0.95214  0.79203  1.0000
  C   C819      1.0  0.65105  0.66737  0.77219  1.0000
  C   C820      1.0  0.66089  0.66383  0.75072  1.0000
  C   C821      1.0  0.65536  0.67915  0.73232  1.0000
  C   C822      1.0  0.63967  0.69804  0.73508  1.0000
  C   C823      1.0  0.63001  0.70199  0.75655  1.0000
  C   C824      1.0  0.63564  0.68656  0.77514  1.0000
  H   H808      1.0  0.67257  0.64905  0.74816  1.0000
  H   H809      1.0  0.66345  0.67634  0.71588  1.0000
  H   H810      1.0  0.61787  0.71659  0.75879  1.0000
  H   H811      1.0  0.62798  0.68941  0.79172  1.0000
  H   H812      1.0  0.70469  0.75323  0.82113  1.0000
  C   C825      1.0  0.68970  0.85311  0.72702  1.0000
  C   C826      1.0  0.67565  0.85617  0.74692  1.0000
  C   C827      1.0  0.65817  0.84376  0.75430  1.0000
  C   C828      1.0  0.65465  0.82808  0.74196  1.0000
  C   C829      1.0  0.66883  0.82487  0.72214  1.0000
  C   C830      1.0  0.68633  0.83729  0.71475  1.0000
  H   H813      1.0  0.67796  0.86841  0.75645  1.0000
  H   H814      1.0  0.64715  0.84651  0.76954  1.0000
  H   H815      1.0  0.66631  0.81286  0.71245  1.0000
  H   H816      1.0  0.69711  0.83480  0.69933  1.0000
  Fe  Fe140     1.0  0.72103  0.93251  0.75700  1.0000
  C   C831      1.0  0.71925  0.83570  0.85071  1.0000
  H   H817      1.0  0.67542  0.72121  0.71823  1.0000
  S   S283      1.0  0.72274  0.54365  0.79072  1.0000
  C   C832      1.0  0.70854  0.94931  0.82962  1.0000
  H   H818      1.0  0.67578  0.91671  0.81629  1.0000
  C   C833      1.0  0.67734  0.80058  0.79562  1.0000
  H   H819      1.0  0.72871  0.77627  0.84582  1.0000
  C   C834      1.0  0.70317  0.76750  0.61962  1.0000
  H   H820      1.0  0.70242  0.83510  0.85885  1.0000
  S   S284      1.0  0.70262  0.87271  0.82320  1.0000
  C   C835      1.0  0.69631  0.72672  0.68669  1.0000
  C   C836      1.0  0.73643  0.81910  0.85744  1.0000
  S   S285      1.0  0.70810  0.96962  0.75124  1.0000
  C   C837      1.0  0.68296  0.93141  0.81651  1.0000
  H   H821      1.0  0.65846  0.66865  0.83393  1.0000
  C   C838      1.0  0.73732  0.69525  0.83531  1.0000
  N   N67       1.0  0.70212  0.96874  0.81635  1.0000
  H   H822      1.0  0.70436  0.91482  0.84015  1.0000
  H   H823      1.0  0.68472  0.63392  0.83282  1.0000
  C   C839      1.0  0.67651  0.95128  0.80306  1.0000
  C   C840      1.0  0.50302  0.78811  0.75392  1.0000
  C   C841      1.0  0.70742  0.70069  0.71818  1.0000
  H   H824      1.0  0.70335  0.69263  0.73515  1.0000
  H   H825      1.0  0.68399  0.73903  0.67912  1.0000
  C   C842      1.0  0.70108  0.77068  0.81438  1.0000
  N   N68       1.0  0.64550  0.86782  0.68907  1.0000
  C   C843      1.0  0.66011  0.88193  0.68908  1.0000
  C   C844      1.0  0.64896  0.85440  0.67303  1.0000
  C   C845      1.0  0.67910  0.88236  0.67312  1.0000
  C   C846      1.0  0.66775  0.85445  0.65680  1.0000
  C   C847      1.0  0.68295  0.86845  0.65695  1.0000
  C   C848      1.0  0.62575  0.86730  0.70599  1.0000
  H   H826      1.0  0.65764  0.89235  0.70195  1.0000
  H   H827      1.0  0.63736  0.84329  0.67287  1.0000
  H   H828      1.0  0.69108  0.89291  0.67379  1.0000
  H   H829      1.0  0.67058  0.84348  0.64435  1.0000
  H   H830      1.0  0.69779  0.86832  0.64470  1.0000
  H   H831      1.0  0.61091  0.87600  0.69867  1.0000
  H   H832      1.0  0.62338  0.84987  0.71269  1.0000
  H   H833      1.0  0.62726  0.87501  0.72047  1.0000
  H   H834      1.0  0.63342  0.64009  0.71182  1.0000
  S   S286      1.0  0.71340  0.72349  0.61347  1.0000
  H   H835      1.0  0.69546  0.68878  0.87752  1.0000
  S   S287      1.0  0.71491  0.64504  0.76276  1.0000
  Fe  Fe141     1.0  0.72029  0.61940  0.74023  1.0000
  H   H836      1.0  0.69382  0.63938  0.66593  1.0000
  C   C849      1.0  0.69267  0.67655  0.86813  1.0000
  H   H837      1.0  0.69244  0.69162  0.64951  1.0000
  C   C850      1.0  0.68231  0.77812  0.80397  1.0000
  H   H838      1.0  0.72100  0.72850  0.65744  1.0000
  C   C851      1.0  0.64967  0.67948  0.66920  1.0000
  C   C852      1.0  0.69903  0.93038  0.82993  1.0000
  C   C853      1.0  0.69606  0.74683  0.62262  1.0000
  H   H839      1.0  0.72042  0.81888  0.80977  1.0000
  H   H840      1.0  0.49910  0.81919  0.70234  1.0000
  C   C854      1.0  0.72021  0.62105  0.85336  1.0000
  Fe  Fe142     1.0  0.71993  0.88874  0.74065  1.0000
  N   N69       1.0  0.71470  0.78518  0.81608  1.0000
  N   N70       1.0  0.72786  0.69534  0.70627  1.0000
  H   H841      1.0  0.69729  0.66817  0.63478  1.0000
  H   H842      1.0  0.64412  0.69642  0.66197  1.0000
  H   H843      1.0  0.67083  0.62101  0.69812  1.0000
  Fe  Fe143     1.0  0.71662  0.88978  0.78982  1.0000
  C   C855      1.0  0.70985  0.80729  0.80812  1.0000
  H   H844      1.0  0.68732  0.83290  0.79156  1.0000
  C   C856      1.0  0.68704  0.64572  0.84293  1.0000
  C   C857      1.0  0.71704  0.72082  0.67456  1.0000
  H   H845      1.0  0.62013  0.67805  0.69345  1.0000
  C   C858      1.0  0.69113  0.81532  0.79776  1.0000
  C   C859      1.0  0.67487  0.68086  0.85628  1.0000
  H   H846      1.0  0.66273  0.80648  0.78764  1.0000
  C   C860      1.0  0.63598  0.66914  0.68701  1.0000
  H   H847      1.0  0.68131  0.98520  0.79249  1.0000
  H   H848      1.0  0.51644  0.79648  0.75559  1.0000
  C   C861      1.0  0.68424  0.68002  0.64312  1.0000
  N   N71       1.0  0.70437  0.64153  0.85473  1.0000
  H   H849      1.0  0.72123  0.94830  0.83987  1.0000
  Fe  Fe144     1.0  0.71899  0.58091  0.77807  1.0000
  H   H850      1.0  0.72252  0.66845  0.79770  1.0000
  C   C862      1.0  0.67745  0.64779  0.67152  1.0000
  H   H851      1.0  0.70927  0.70069  0.81786  1.0000
  H   H852      1.0  0.67160  0.76659  0.80246  1.0000
  H   H853      1.0  0.72177  0.65402  0.87551  1.0000
  C   C863      1.0  0.70750  0.65680  0.86696  1.0000
  S   S288      1.0  0.73916  0.91525  0.78508  1.0000
  S   S289      1.0  0.72710  0.71777  0.85016  1.0000
  C   C864      1.0  0.72487  0.69041  0.82042  1.0000
  H   H854      1.0  0.73055  0.98423  0.81362  1.0000
  S   S290      1.0  0.73861  0.86823  0.76685  1.0000
  H   H855      1.0  0.49366  0.73853  0.74424  1.0000
  C   C865      1.0  0.73899  0.65500  0.66722  1.0000
  Fe  Fe145     1.0  0.73870  0.62192  0.78223  1.0000
  C   C866      1.0  0.71223  0.98835  0.81655  1.0000
  C   C867      1.0  0.50732  0.76585  0.75099  1.0000
  H   H856      1.0  0.73293  0.80595  0.87101  1.0000
  H   H857      1.0  0.73196  0.62285  0.83759  1.0000
  C   C868      1.0  0.73391  0.77707  0.82759  1.0000
  H   H858      1.0  0.72990  0.61704  0.86740  1.0000
  H   H859      1.0  0.75445  0.25156  0.99360  1.0000
  H   H860      1.0  0.79526  0.27371  0.15520  1.0000
  H   H861      1.0  0.78940  0.16567  0.30360  1.0000
  H   H862      1.0  0.86073  0.19174  0.12561  1.0000
  C   C869      1.0  0.78823  0.30836  0.14258  1.0000
  S   S291      1.0  0.76318  0.34793  0.30269  1.0000
  Fe  Fe146     1.0  0.76307  0.08123  0.24424  1.0000
  S   S292      1.0  0.79659  0.09036  0.22833  1.0000
  S   S293      1.0  0.75933  0.05925  0.27722  1.0000
  Fe  Fe147     1.0  0.89863  0.19961  0.22627  1.0000
  S   S294      1.0  0.87453  0.20293  0.25773  1.0000
  S   S295      1.0  0.93373  0.18318  0.23056  1.0000
  Fe  Fe148     1.0  0.86341  0.22117  0.19732  1.0000
  S   S296      1.0  0.83722  0.22688  0.22638  1.0000
  S   S297      1.0  0.85447  0.23304  0.16296  1.0000
  Fe  Fe149     1.0  0.86369  0.23709  0.24061  1.0000
  S   S298      1.0  0.85613  0.26553  0.26002  1.0000
  Fe  Fe150     1.0  0.85019  0.19212  0.24063  1.0000
  S   S299      1.0  0.82331  0.17273  0.25935  1.0000
  S   S300      1.0  0.88917  0.23472  0.21026  1.0000
  S   S301      1.0  0.87499  0.18551  0.21048  1.0000
  H   H863      1.0  0.82457  0.26854  0.18821  1.0000
  C   C870      1.0  0.84873  0.18327  0.13748  1.0000
  Fe  Fe151     1.0  0.78863  0.37033  0.22238  1.0000
  S   S302      1.0  0.76807  0.34483  0.24061  1.0000
  S   S303      1.0  0.82057  0.35598  0.20334  1.0000
  S   S304      1.0  0.76115  0.39151  0.20577  1.0000
  S   S305      1.0  0.78395  0.38970  0.25080  1.0000
  S   S306      1.0  0.74259  0.18793  0.32797  1.0000
  S   S307      1.0  0.74525  0.06135  0.22811  1.0000
  C   C871      1.0  0.82796  0.22981  0.15902  1.0000
  C   C872      1.0  0.82112  0.23767  0.13825  1.0000
  C   C873      1.0  0.80060  0.23406  0.13424  1.0000
  C   C874      1.0  0.78700  0.22225  0.15090  1.0000
  C   C875      1.0  0.79360  0.21488  0.17186  1.0000
  C   C876      1.0  0.81399  0.21872  0.17594  1.0000
  H   H864      1.0  0.83189  0.24621  0.12507  1.0000
  H   H865      1.0  0.79577  0.23956  0.11794  1.0000
  H   H866      1.0  0.78314  0.20572  0.18480  1.0000
  H   H867      1.0  0.81920  0.21236  0.19193  1.0000
  C   C877      1.0  0.84699  0.29081  0.24406  1.0000
  C   C878      1.0  0.85169  0.29373  0.22083  1.0000
  C   C879      1.0  0.84437  0.31413  0.20836  1.0000
  C   C880      1.0  0.83162  0.33134  0.21907  1.0000
  C   C881      1.0  0.82668  0.32827  0.24228  1.0000
  C   C882      1.0  0.83470  0.30819  0.25477  1.0000
  H   H868      1.0  0.86118  0.28039  0.21244  1.0000
  H   H869      1.0  0.84815  0.31644  0.19040  1.0000
  H   H870      1.0  0.81689  0.34150  0.25065  1.0000
  H   H871      1.0  0.83111  0.30607  0.27274  1.0000
  C   C883      1.0  0.80370  0.11423  0.23551  1.0000
  C   C884      1.0  0.82538  0.11902  0.22920  1.0000
  C   C885      1.0  0.83148  0.13759  0.23550  1.0000
  C   C886      1.0  0.81583  0.15152  0.24798  1.0000
  C   C887      1.0  0.79406  0.14710  0.25362  1.0000
  C   C888      1.0  0.78804  0.12848  0.24754  1.0000
  H   H872      1.0  0.83762  0.10802  0.21993  1.0000
  H   H873      1.0  0.84844  0.14062  0.23146  1.0000
  H   H874      1.0  0.78191  0.15782  0.26324  1.0000
  H   H875      1.0  0.77132  0.12509  0.25240  1.0000
  C   C889      1.0  0.76815  0.24121  0.29417  1.0000
  H   H876      1.0  0.81677  0.15358  0.30926  1.0000
  H   H877      1.0  0.76206  0.39918  0.29543  1.0000
  C   C890      1.0  0.77189  0.46436  0.25132  1.0000
  C   C891      1.0  0.78724  0.32993  0.14680  1.0000
  S   S308      1.0  0.75710  0.26671  0.09564  1.0000
  C   C892      1.0  0.79738  0.31501  0.18297  1.0000
  H   H878      1.0  0.75293  0.99756  0.18741  1.0000
  C   C893      1.0  0.78971  0.24593  0.28709  1.0000
  S   S309      1.0  0.76307  0.21436  0.14513  1.0000
  C   C894      1.0  0.77743  0.09182  0.31967  1.0000
  C   C895      1.0  0.95685  0.19742  0.22667  1.0000
  C   C896      1.0  0.97653  0.18627  0.23425  1.0000
  H   H879      1.0  0.75119  0.16384  0.29095  1.0000
  C   C897      1.0  0.97413  0.23078  0.21532  1.0000
  C   C898      1.0  0.95584  0.21971  0.21696  1.0000
  H   H880      1.0  0.77081  0.07668  0.31988  1.0000
  H   H881      1.0  0.74198  0.12766  0.28666  1.0000
  H   H882      1.0  0.94094  0.22845  0.21085  1.0000
  N   N72       1.0  0.92502  0.25992  0.25324  1.0000
  C   C899      1.0  0.91698  0.24041  0.26120  1.0000
  C   C900      1.0  0.94626  0.26173  0.25495  1.0000
  C   C901      1.0  0.93048  0.22182  0.27056  1.0000
  C   C902      1.0  0.96015  0.24355  0.26447  1.0000
  C   C903      1.0  0.95222  0.22344  0.27213  1.0000
  C   C904      1.0  0.91047  0.27900  0.24331  1.0000
  H   H883      1.0  0.90014  0.23904  0.25994  1.0000
  H   H884      1.0  0.95281  0.27708  0.24846  1.0000
  H   H885      1.0  0.75235  0.47616  0.30998  1.0000
  H   H886      1.0  0.74659  0.27105  0.45789  1.0000
  S   S310      1.0  0.74766  0.00285  0.26809  1.0000
  H   H887      1.0  0.78270  0.34399  0.13440  1.0000
  H   H888      1.0  0.90150  0.27382  0.23150  1.0000
  N   N73       1.0  0.75056  0.25801  0.29474  1.0000
  H   H889      1.0  0.91980  0.29227  0.23384  1.0000
  H   H890      1.0  0.79725  0.17015  0.14268  1.0000
  S   S311      1.0  0.74242  0.44659  0.23277  1.0000
  H   H891      1.0  0.76888  0.13615  0.34705  1.0000
  H   H892      1.0  0.86815  0.17757  0.16408  1.0000
  H   H893      1.0  0.83994  0.15991  0.19157  1.0000
  H   H894      1.0  0.89801  0.28599  0.25652  1.0000
  H   H895      1.0  0.78334  0.15970  0.18081  1.0000
  H   H896      1.0  0.80377  0.13568  0.18719  1.0000
  H   H897      1.0  0.78420  0.30559  0.12699  1.0000
  C   C905      1.0  0.82877  0.18101  0.13145  1.0000
  C   C906      1.0  0.80016  0.15410  0.18540  1.0000
  H   H898      1.0  0.97753  0.16899  0.24166  1.0000
  C   C907      1.0  0.81303  0.17111  0.14734  1.0000
  H   H899      1.0  0.79057  0.35005  0.17087  1.0000
  H   H900      1.0  0.80609  0.27931  0.21106  1.0000
  H   H901      1.0  0.79298  0.47872  0.26723  1.0000
  H   H902      1.0  0.80366  0.23260  0.28643  1.0000
  C   C908      1.0  0.79158  0.33334  0.16721  1.0000
  C   C909      1.0  0.77900  0.48208  0.25830  1.0000
  H   H903      1.0  0.80035  0.08851  0.28940  1.0000
  C   C910      1.0  0.75361  0.46838  0.24004  1.0000
  C   C911      1.0  0.79318  0.26799  0.28111  1.0000
  H   H904      1.0  0.80069  0.31787  0.19876  1.0000
  H   H905      1.0  0.79528  0.16048  0.33170  1.0000
  C   C912      1.0  0.79429  0.29042  0.15865  1.0000
  C   C913      1.0  0.79885  0.15392  0.31562  1.0000
  C   C914      1.0  0.76897  0.10508  0.33618  1.0000
  C   C915      1.0  0.77653  0.12531  0.33491  1.0000
  N   N74       1.0  0.79252  0.13183  0.31797  1.0000
  H   H906      1.0  0.92438  0.20605  0.27576  1.0000
  H   H907      1.0  0.81422  0.12366  0.28881  1.0000
  H   H908      1.0  0.76560  0.22402  0.29925  1.0000
  H   H909      1.0  0.77775  0.30228  0.27776  1.0000
  N   N75       1.0  0.79899  0.29389  0.17845  1.0000
  H   H910      1.0  0.82512  0.18765  0.11481  1.0000
  H   H911      1.0  0.79708  0.26122  0.19588  1.0000
  C   C916      1.0  0.85287  0.17536  0.15915  1.0000
  H   H912      1.0  0.79384  0.03773  0.21828  1.0000
  C   C917      1.0  0.74335  0.33034  0.31391  1.0000
  H   H913      1.0  0.78537  0.02478  0.24627  1.0000
  C   C918      1.0  0.79388  0.09849  0.30257  1.0000
  Fe  Fe152     1.0  0.76082  0.36560  0.26778  1.0000
  C   C919      1.0  0.80701  0.27483  0.19424  1.0000
  H   H914      1.0  0.79976  0.15925  0.20183  1.0000
  H   H915      1.0  0.76422  0.30885  0.33575  1.0000
  H   H916      1.0  0.78032  0.44758  0.25493  1.0000
  C   C920      1.0  0.80147  0.11853  0.30216  1.0000
  H   H917      1.0  0.97308  0.24808  0.20803  1.0000
  N   N76       1.0  0.81700  0.16392  0.16873  1.0000
  C   C921      1.0  0.83677  0.16556  0.17464  1.0000
  H   H918      1.0  0.80982  0.27189  0.27596  1.0000
  C   C922      1.0  0.77519  0.28502  0.28202  1.0000
  Fe  Fe153     1.0  0.74427  0.24027  0.12198  1.0000
  H   H919      1.0  0.96316  0.20891  0.27849  1.0000
  Fe  Fe154     1.0  0.75447  0.40915  0.23593  1.0000
  C   C923      1.0  0.74962  0.44199  0.30901  1.0000
  S   S312      1.0  0.74250  0.25954  0.03884  1.0000
  N   N77       1.0  0.78720  0.00432  0.22176  1.0000
  H   H920      1.0  0.75573  0.10030  0.34916  1.0000
  H   H921      1.0  0.76763  0.02697  0.20004  1.0000
  C   C924      1.0  0.79522  0.02181  0.22993  1.0000
  H   H922      1.0  0.76309  0.43537  0.31846  1.0000
  C   C925      1.0  0.77295  0.00975  0.20644  1.0000
  H   H923      1.0  0.81288  0.01697  0.23201  1.0000
  C   C926      1.0  0.74285  0.49035  0.23553  1.0000
  C   C927      1.0  0.74817  0.31216  0.33036  1.0000
  C   C928      1.0  0.75385  0.27967  0.28880  1.0000
  H   H924      1.0  0.75690  0.21838  0.46656  1.0000
  H   H925      1.0  0.97731  0.24471  0.26483  1.0000
  H   H926      1.0  0.74825  0.39867  0.32371  1.0000
  C   C929      1.0  0.74610  0.40395  0.30599  1.0000
  C   C930      1.0  0.74356  0.46502  0.30443  1.0000
  H   H927      1.0  0.74311  0.27289  0.41831  1.0000
  C   C931      1.0  0.76466  0.99318  0.19912  1.0000
  H   H928      1.0  0.75734  0.29035  0.71615  1.0000
  H   H929      1.0  0.75136  0.44767  0.72386  1.0000
  Fe  Fe155     1.0  0.84446  0.26554  0.72272  1.0000
  S   S313      1.0  0.85902  0.28935  0.69474  1.0000
  S   S314      1.0  0.82416  0.27625  0.75414  1.0000
  Fe  Fe156     1.0  0.85722  0.22718  0.69607  1.0000
  S   S315      1.0  0.87305  0.24820  0.66608  1.0000
  S   S316      1.0  0.85136  0.19350  0.69156  1.0000
  Fe  Fe157     1.0  0.88780  0.26178  0.69085  1.0000
  S   S317      1.0  0.92233  0.27191  0.68221  1.0000
  Fe  Fe158     1.0  0.84318  0.27352  0.67296  1.0000
  S   S318      1.0  0.81944  0.29342  0.65067  1.0000
  S   S319      1.0  0.87411  0.23863  0.72055  1.0000
  S   S320      1.0  0.82659  0.25175  0.70130  1.0000
  S   S321      1.0  0.79391  0.25199  0.57359  1.0000
  H   H930      1.0  0.75103  0.26215  0.83124  1.0000
  H   H931      1.0  0.80482  0.33953  0.66437  1.0000
  H   H932      1.0  0.82898  0.22702  0.65487  1.0000
  Fe  Fe159     1.0  0.76216  0.12738  0.76377  1.0000
  C   C932      1.0  0.77138  0.45819  0.76534  1.0000
  S   S322      1.0  0.79035  0.14294  0.76963  1.0000
  H   H933      1.0  0.77428  0.44115  0.77351  1.0000
  N   N78       1.0  0.78636  0.33284  0.69640  1.0000
  H   H934      1.0  0.92442  0.33821  0.71181  1.0000
  H   H935      1.0  0.79274  0.29842  0.69339  1.0000
  H   H936      1.0  0.79016  0.24931  0.79399  1.0000
  S   S323      1.0  0.75792  0.10779  0.73780  1.0000
  Fe  Fe160     1.0  0.74810  0.38825  0.75881  1.0000
  H   H937      1.0  0.78484  0.19693  0.60076  1.0000
  C   C933      1.0  0.80697  0.33751  0.68213  1.0000
  H   H938      1.0  0.78126  0.44388  0.71825  1.0000
  C   C934      1.0  0.94426  0.26691  0.69817  1.0000
  C   C935      1.0  0.96322  0.27691  0.68959  1.0000
  C   C936      1.0  0.75159  0.34567  0.71749  1.0000
  C   C937      1.0  0.97993  0.26073  0.72265  1.0000
  C   C938      1.0  0.96097  0.25070  0.73126  1.0000
  C   C939      1.0  0.94324  0.25367  0.71905  1.0000
  H   H939      1.0  0.96418  0.28719  0.67345  1.0000
  C   C940      1.0  0.93071  0.32056  0.71011  1.0000
  H   H940      1.0  0.95998  0.24058  0.74749  1.0000
  H   H941      1.0  0.92875  0.24589  0.72588  1.0000
  C   C941      1.0  0.81250  0.27991  0.63058  1.0000
  C   C942      1.0  0.82893  0.27027  0.61507  1.0000
  C   C943      1.0  0.82305  0.26196  0.59752  1.0000
  C   C944      1.0  0.80076  0.26245  0.59586  1.0000
  C   C945      1.0  0.78434  0.27140  0.61183  1.0000
  C   C946      1.0  0.79021  0.28044  0.62890  1.0000
  H   H942      1.0  0.84615  0.27016  0.61599  1.0000
  H   H943      1.0  0.83583  0.25525  0.58512  1.0000
  H   H944      1.0  0.76710  0.27211  0.61057  1.0000
  H   H945      1.0  0.77740  0.28813  0.64065  1.0000
  C   C947      1.0  0.83289  0.18099  0.71297  1.0000
  C   C948      1.0  0.81978  0.16670  0.70820  1.0000
  C   C949      1.0  0.80565  0.15582  0.72535  1.0000
  C   C950      1.0  0.80534  0.15854  0.74739  1.0000
  C   C951      1.0  0.81840  0.17287  0.75211  1.0000
  C   C952      1.0  0.83179  0.18444  0.73489  1.0000
  H   H946      1.0  0.82062  0.16402  0.69122  1.0000
  H   H947      1.0  0.79560  0.14479  0.72163  1.0000
  H   H948      1.0  0.81850  0.17472  0.76917  1.0000
  H   H949      1.0  0.84201  0.19529  0.73867  1.0000
  C   C953      1.0  0.79505  0.35013  0.74896  1.0000
  C   C954      1.0  0.78367  0.33419  0.76304  1.0000
  C   C955      1.0  0.79268  0.31155  0.76459  1.0000
  C   C956      1.0  0.81291  0.30469  0.75175  1.0000
  C   C957      1.0  0.82420  0.32065  0.73761  1.0000
  C   C958      1.0  0.81540  0.34327  0.73637  1.0000
  C   C959      1.0  0.75085  0.00444  0.76849  1.0000
  H   H950      1.0  0.78395  0.29937  0.77576  1.0000
  H   H951      1.0  0.84005  0.31571  0.72813  1.0000
  H   H952      1.0  0.82440  0.35553  0.72565  1.0000
  H   H953      1.0  0.81038  0.20727  0.59161  1.0000
  H   H954      1.0  0.76651  0.00087  0.77468  1.0000
  H   H955      1.0  0.75381  0.18277  0.82183  1.0000
  N   N79       1.0  0.91959  0.30602  0.72839  1.0000
  C   C960      1.0  0.76128  0.30708  0.71311  1.0000
  H   H956      1.0  0.75064  0.30302  0.95828  1.0000
  H   H957      1.0  0.97428  0.22106  0.68839  1.0000
  C   C961      1.0  0.78454  0.19585  0.64379  1.0000
  C   C962      1.0  0.74791  0.14642  0.65424  1.0000
  S   S324      1.0  0.75248  0.04783  0.77163  1.0000
  N   N80       1.0  0.76677  0.46283  0.74400  1.0000
  H   H958      1.0  0.82056  0.32358  0.68514  1.0000
  H   H959      1.0  0.88931  0.26874  0.77687  1.0000
  H   H960      1.0  0.87094  0.28615  0.74423  1.0000
  C   C963      1.0  0.77174  0.34975  0.70468  1.0000
  H   H961      1.0  0.89071  0.30981  0.71315  1.0000
  H   H962      1.0  0.97205  0.24397  0.65161  1.0000
  C   C964      1.0  0.76671  0.44480  0.73152  1.0000
  C   C965      1.0  0.98100  0.27379  0.70169  1.0000
  H   H963      1.0  0.75696  0.32112  0.83714  1.0000
  C   C966      1.0  0.98761  0.24024  0.65816  1.0000
  C   C967      1.0  0.78506  0.21802  0.78692  1.0000
  H   H964      1.0  0.92736  0.27548  0.77829  1.0000
  C   C968      1.0  0.88749  0.28904  0.74496  1.0000
  Fe  Fe161     1.0  0.75925  0.24403  0.57809  1.0000
  C   C969      1.0  0.76184  0.19733  0.81564  1.0000
  H   H965      1.0  0.79519  0.21966  0.77065  1.0000
  N   N81       1.0  0.80598  0.06867  0.73634  1.0000
  C   C970      1.0  0.81710  0.08279  0.72049  1.0000
  C   C971      1.0  0.80345  0.07090  0.75834  1.0000
  C   C972      1.0  0.82675  0.09914  0.72658  1.0000
  C   C973      1.0  0.81272  0.08718  0.76498  1.0000
  C   C974      1.0  0.82466  0.10117  0.74899  1.0000
  C   C975      1.0  0.79549  0.05205  0.72957  1.0000
  H   H966      1.0  0.81839  0.08161  0.70299  1.0000
  H   H967      1.0  0.79395  0.06029  0.77088  1.0000
  H   H968      1.0  0.83539  0.11051  0.71403  1.0000
  H   H969      1.0  0.81018  0.08938  0.78234  1.0000
  H   H970      1.0  0.83164  0.11409  0.75394  1.0000
  H   H971      1.0  0.80479  0.04621  0.71409  1.0000
  H   H972      1.0  0.79465  0.03722  0.74266  1.0000
  H   H973      1.0  0.77829  0.05923  0.72687  1.0000
  H   H974      1.0  0.76819  0.33929  0.77314  1.0000
  C   C976      1.0  0.79988  0.21214  0.66916  1.0000
  H   H975      1.0  0.77208  0.18698  0.64078  1.0000
  H   H976      1.0  0.77105  0.19574  0.67851  1.0000
  S   S325      1.0  0.78436  0.37868  0.74646  1.0000
  H   H977      1.0  0.82960  0.21767  0.61749  1.0000
  C   C977      1.0  0.81659  0.21302  0.63076  1.0000
  C   C978      1.0  0.78130  0.31174  0.70030  1.0000
  H   H978      1.0  0.77566  0.36650  0.70168  1.0000
  H   H979      1.0  0.94892  0.31752  0.70982  1.0000
  C   C979      1.0  0.80169  0.19588  0.60490  1.0000
  H   H980      1.0  0.81034  0.17863  0.60458  1.0000
  N   N82       1.0  0.80066  0.20215  0.62688  1.0000
  H   H981      1.0  0.76373  0.13733  0.64825  1.0000
  H   H982      1.0  0.77679  0.18617  0.78458  1.0000
  H   H983      1.0  0.76725  0.42841  0.74236  1.0000
  C   C980      1.0  0.77198  0.47538  0.77709  1.0000
  C   C981      1.0  0.75937  0.21427  0.82857  1.0000
  S   S326      1.0  0.75288  0.21602  0.56250  1.0000
  H   H984      1.0  0.79984  0.21585  0.68568  1.0000
  H   H985      1.0  0.94638  0.29942  0.74715  1.0000
  C   C982      1.0  0.89781  0.27929  0.76334  1.0000
  C   C983      1.0  0.78386  0.20079  0.66516  1.0000
  C   C984      1.0  0.91907  0.28314  0.76417  1.0000
  N   N83       1.0  0.76967  0.23253  0.82091  1.0000
  H   H986      1.0  0.92775  0.31732  0.69380  1.0000
  H   H987      1.0  0.81218  0.35271  0.68545  1.0000
  C   C985      1.0  0.92973  0.29676  0.74650  1.0000
  C   C986      1.0  0.77478  0.19925  0.79471  1.0000
  C   C987      1.0  0.89869  0.30246  0.72753  1.0000
  C   C988      1.0  0.78220  0.23469  0.80027  1.0000
  C   C989      1.0  0.76625  0.25040  0.83445  1.0000
  C   C990      1.0  0.81633  0.21836  0.65186  1.0000
  H   H988      1.0  0.77493  0.47172  0.79423  1.0000
  C   C991      1.0  0.76277  0.48435  0.73385  1.0000
  S   S327      1.0  0.74834  0.10373  0.79251  1.0000
  H   H989      1.0  0.78043  0.25982  0.83082  1.0000
  H   H990      1.0  0.76443  0.24371  0.85253  1.0000
  H   H991      1.0  0.74463  0.22613  0.50536  1.0000
  C   C992      1.0  0.98896  0.22732  0.67903  1.0000
  H   H992      1.0  0.74502  0.14229  0.86414  1.0000
  H   H993      1.0  0.74922  0.21265  0.84481  1.0000
  H   H994      1.0  0.75838  0.48803  0.71722  1.0000
  S   S328      1.0  0.74566  0.23027  0.61260  1.0000
  C   C993      1.0  0.74633  0.32423  0.72171  1.0000
  H   H995      1.0  0.74973  0.15368  0.52961  1.0000
  H   H996      1.0  0.74215  0.30507  0.92145  1.0000
  H   H997      1.0  0.74706  0.12922  0.68800  1.0000
  S   S329      1.0  0.74861  0.16862  0.61161  1.0000
  H   H998      1.0  0.74436  0.15246  0.57054  1.0000
  Fe  Fe162     1.0  0.74131  0.08544  0.76662  1.0000
  Fe  Fe163     1.0  0.78350  0.60636  0.23926  1.0000
  S   S330      1.0  0.78386  0.58417  0.27216  1.0000
  S   S331      1.0  0.81108  0.62295  0.21786  1.0000
  C   C994      1.0  0.79313  0.98260  0.23049  1.0000
  H   H999      1.0  0.97631  0.74519  0.23168  1.0000
  H   H1000     1.0  0.97339  0.67659  0.19169  1.0000
  C   C995      1.0  0.74540  0.95965  0.26443  1.0000
  Fe  Fe164     1.0  0.76509  0.56299  0.25815  1.0000
  H   H1001     1.0  0.77472  0.66603  0.48883  1.0000
  S   S332      1.0  0.76723  0.58408  0.22442  1.0000
  Fe  Fe165     1.0  0.77953  0.71126  0.41540  1.0000
  S   S333      1.0  0.75977  0.70058  0.39291  1.0000
  S   S334      1.0  0.76443  0.70924  0.45196  1.0000
  Fe  Fe166     1.0  0.81521  0.72298  0.37665  1.0000
  S   S335      1.0  0.79849  0.71358  0.35126  1.0000
  S   S336      1.0  0.84854  0.73398  0.36662  1.0000
  Fe  Fe167     1.0  0.76770  0.73112  0.36929  1.0000
  C   C996      1.0  0.81808  0.69715  0.99740  1.0000
  Fe  Fe168     1.0  0.79219  0.68403  0.37674  1.0000
  S   S337      1.0  0.80102  0.65030  0.36568  1.0000
  S   S338      1.0  0.78493  0.74315  0.39284  1.0000
  S   S339      1.0  0.81141  0.69195  0.40113  1.0000
  Fe  Fe169     1.0  0.89383  0.68944  0.24387  1.0000
  S   S340      1.0  0.87323  0.72064  0.23044  1.0000
  S   S341      1.0  0.87620  0.66169  0.26373  1.0000
  Fe  Fe170     1.0  0.93712  0.70935  0.23041  1.0000
  S   S342      1.0  0.91952  0.74234  0.21591  1.0000
  Fe  Fe171     1.0  0.89379  0.73777  0.24611  1.0000
  S   S343      1.0  0.87364  0.76508  0.26366  1.0000
  Fe  Fe172     1.0  0.90014  0.72254  0.20137  1.0000
  S   S344      1.0  0.89148  0.73555  0.16692  1.0000
  S   S345      1.0  0.91257  0.70646  0.26203  1.0000
  S   S346      1.0  0.91958  0.68964  0.21330  1.0000
  S   S347      1.0  0.76837  0.84173  0.17347  1.0000
  S   S348      1.0  0.76141  0.87187  0.22501  1.0000
  Fe  Fe173     1.0  0.77718  0.73957  0.06768  1.0000
  S   S349      1.0  0.78377  0.70468  0.08562  1.0000
  S   S350      1.0  0.79228  0.74715  0.03125  1.0000
  H   H1002     1.0  0.77811  0.83163  0.32408  1.0000
  H   H1003     1.0  0.82140  0.70975  0.00671  1.0000
  C   C997      1.0  0.76534  0.80548  0.29452  1.0000
  Fe  Fe174     1.0  0.78817  0.72013  0.11456  1.0000
  S   S351      1.0  0.81002  0.70278  0.14015  1.0000
  C   C998      1.0  0.78534  0.96560  0.22337  1.0000
  N   N84       1.0  0.82980  0.54912  0.23406  1.0000
  S   S352      1.0  0.78481  0.75484  0.09574  1.0000
  H   H1004     1.0  0.74535  0.92548  0.26080  1.0000
  C   C999      1.0  0.82869  0.79487  0.34647  1.0000
  C   C1000     1.0  0.78422  0.65895  0.17105  1.0000
  H   H1005     1.0  0.84880  0.76187  0.18659  1.0000
  H   H1006     1.0  0.81893  0.51912  0.23074  1.0000
  H   H1007     1.0  0.83146  0.79465  0.24428  1.0000
  H   H1008     1.0  0.78523  0.80061  0.19878  1.0000
  C   C1001     1.0  0.78407  0.68511  0.99217  1.0000
  C   C1002     1.0  0.76878  0.81381  0.14378  1.0000
  C   C1003     1.0  0.75939  0.80006  0.13353  1.0000
  C   C1004     1.0  0.78877  0.68912  0.02849  1.0000
  H   H1009     1.0  0.81567  0.63981  0.44546  1.0000
  C   C1005     1.0  0.83911  0.55568  0.26824  1.0000
  H   H1010     1.0  0.78584  0.81611  0.13834  1.0000
  H   H1011     1.0  0.76922  0.79190  0.12022  1.0000
  H   H1012     1.0  0.79842  0.69371  0.03948  1.0000
  C   C1006     1.0  0.86822  0.72712  0.15993  1.0000
  C   C1007     1.0  0.85799  0.71020  0.17361  1.0000
  C   C1008     1.0  0.83997  0.70320  0.16741  1.0000
  C   C1009     1.0  0.83180  0.71327  0.14768  1.0000
  C   C1010     1.0  0.84158  0.73069  0.13429  1.0000
  C   C1011     1.0  0.85985  0.73749  0.14035  1.0000
  H   H1013     1.0  0.86426  0.70209  0.18872  1.0000
  H   H1014     1.0  0.83248  0.68974  0.17786  1.0000
  H   H1015     1.0  0.83547  0.73849  0.11900  1.0000
  H   H1016     1.0  0.86767  0.75063  0.12969  1.0000
  C   C1012     1.0  0.83158  0.80878  0.32613  1.0000
  C   C1013     1.0  0.77318  0.77200  0.32091  1.0000
  C   C1014     1.0  0.78051  0.78834  0.30375  1.0000
  H   H1017     1.0  0.79253  0.77684  0.17104  1.0000
  H   H1018     1.0  0.80577  0.63138  0.41110  1.0000
  S   S353      1.0  0.75192  0.62775  0.25008  1.0000
  H   H1019     1.0  0.78492  0.75917  0.32837  1.0000
  H   H1020     1.0  0.79800  0.78810  0.29810  1.0000
  C   C1015     1.0  0.84870  0.57976  0.23400  1.0000
  C   C1016     1.0  0.85547  0.74162  0.33781  1.0000
  C   C1017     1.0  0.83895  0.74965  0.32450  1.0000
  C   C1018     1.0  0.84461  0.75702  0.30174  1.0000
  C   C1019     1.0  0.86683  0.75569  0.29210  1.0000
  C   C1020     1.0  0.88339  0.74702  0.30524  1.0000
  C   C1021     1.0  0.87770  0.74037  0.32818  1.0000
  H   H1021     1.0  0.82183  0.75097  0.33193  1.0000
  H   H1022     1.0  0.83180  0.76355  0.29154  1.0000
  H   H1023     1.0  0.90060  0.74597  0.29783  1.0000
  H   H1024     1.0  0.89054  0.73418  0.33844  1.0000
  H   H1025     1.0  0.75675  0.95529  0.27645  1.0000
  C   C1022     1.0  0.78894  0.65740  0.47837  1.0000
  C   C1023     1.0  0.76133  0.65328  0.35060  1.0000
  C   C1024     1.0  0.78323  0.64281  0.35004  1.0000
  C   C1025     1.0  0.79108  0.62573  0.33715  1.0000
  C   C1026     1.0  0.77707  0.61909  0.32488  1.0000
  C   C1027     1.0  0.95022  0.72094  0.16368  1.0000
  C   C1028     1.0  0.79853  0.64323  0.44287  1.0000
  H   H1026     1.0  0.80802  0.61758  0.33667  1.0000
  H   H1027     1.0  0.78318  0.60579  0.31514  1.0000
  C   C1029     1.0  0.82764  0.63525  0.23109  1.0000
  C   C1030     1.0  0.82712  0.63081  0.25416  1.0000
  C   C1031     1.0  0.84203  0.63908  0.26404  1.0000
  C   C1032     1.0  0.85711  0.65231  0.25101  1.0000
  C   C1033     1.0  0.85715  0.65730  0.22804  1.0000
  C   C1034     1.0  0.84263  0.64856  0.21809  1.0000
  H   H1028     1.0  0.81564  0.62055  0.26432  1.0000
  H   H1029     1.0  0.84197  0.63514  0.28182  1.0000
  H   H1030     1.0  0.86881  0.66736  0.21786  1.0000
  H   H1031     1.0  0.84323  0.65192  0.20022  1.0000
  H   H1032     1.0  0.98482  0.67714  0.16257  1.0000
  H   H1033     1.0  0.80868  0.71761  0.45495  1.0000
  C   C1035     1.0  0.77948  0.74452  0.00851  1.0000
  S   S354      1.0  0.77513  0.82774  0.27581  1.0000
  C   C1036     1.0  0.75894  0.73729  0.01174  1.0000
  H   H1034     1.0  0.93731  0.71343  0.15950  1.0000
  N   N85       1.0  0.78258  0.65253  0.45821  1.0000
  H   H1035     1.0  0.77172  0.65418  0.20602  1.0000
  H   H1036     1.0  0.93326  0.75420  0.15545  1.0000
  Fe  Fe175     1.0  0.74760  0.71007  0.09865  1.0000
  C   C1037     1.0  0.80738  0.79396  0.35817  1.0000
  H   H1037     1.0  0.80081  0.66024  0.17345  1.0000
  C   C1038     1.0  0.82965  0.54336  0.25652  1.0000
  H   H1038     1.0  0.81742  0.75727  0.16867  1.0000
  S   S355      1.0  0.77696  0.52548  0.26431  1.0000
  H   H1039     1.0  0.81776  0.78592  0.15604  1.0000
  C   C1039     1.0  0.75612  0.82476  0.16084  1.0000
  H   H1040     1.0  0.80199  0.54436  0.22105  1.0000
  C   C1040     1.0  0.77113  0.64336  0.41965  1.0000
  C   C1041     1.0  0.75764  0.65936  0.14684  1.0000
  N   N86       1.0  0.79635  0.69050  0.00618  1.0000
  C   C1042     1.0  0.77913  0.66080  0.14965  1.0000
  H   H1041     1.0  0.84794  0.80885  0.31642  1.0000
  C   C1043     1.0  0.76782  0.65567  0.18934  1.0000
  C   C1044     1.0  0.79891  0.71692  0.47132  1.0000
  H   H1042     1.0  0.76411  0.81418  0.37668  1.0000
  C   C1045     1.0  0.74714  0.64614  0.33891  1.0000
  C   C1046     1.0  0.74650  0.65427  0.18595  1.0000
  C   C1047     1.0  0.83876  0.56733  0.22287  1.0000
  N   N87       1.0  0.84570  0.68929  0.30607  1.0000
  C   C1048     1.0  0.83064  0.67494  0.31293  1.0000
  C   C1049     1.0  0.84400  0.70475  0.28742  1.0000
  C   C1050     1.0  0.81347  0.67563  0.30084  1.0000
  C   C1051     1.0  0.82711  0.70582  0.27486  1.0000
  C   C1052     1.0  0.81183  0.69108  0.28161  1.0000
  C   C1053     1.0  0.86346  0.68816  0.31914  1.0000
  H   H1043     1.0  0.83196  0.66275  0.32775  1.0000
  H   H1044     1.0  0.85602  0.71601  0.28188  1.0000
  H   H1045     1.0  0.80165  0.66412  0.30626  1.0000
  H   H1046     1.0  0.82612  0.71780  0.25986  1.0000
  H   H1047     1.0  0.79882  0.69149  0.27189  1.0000
  H   H1048     1.0  0.85652  0.69402  0.33531  1.0000
  H   H1049     1.0  0.87206  0.67081  0.32218  1.0000
  H   H1050     1.0  0.87611  0.69856  0.31031  1.0000
  H   H1051     1.0  0.85880  0.77111  0.22051  1.0000
  C   C1054     1.0  0.81328  0.82229  0.31821  1.0000
  H   H1052     1.0  0.80530  0.78266  0.37368  1.0000
  C   C1055     1.0  0.79304  0.63842  0.42344  1.0000
  S   S356      1.0  0.97449  0.69840  0.22961  1.0000
  C   C1056     1.0  0.81932  0.53643  0.22208  1.0000
  C   C1057     1.0  0.76331  0.67875  0.00035  1.0000
  H   H1053     1.0  0.76180  0.68232  0.05486  1.0000
  C   C1058     1.0  0.76722  0.80507  0.36224  1.0000
  C   C1059     1.0  0.75002  0.50807  0.24242  1.0000
  H   H1054     1.0  0.83798  0.57261  0.20529  1.0000
  H   H1055     1.0  0.82838  0.53551  0.20500  1.0000
  C   C1060     1.0  0.76099  0.65726  0.45472  1.0000
  H   H1056     1.0  0.76680  0.64022  0.40434  1.0000
  H   H1057     1.0  0.95548  0.67804  0.17161  1.0000
  C   C1061     1.0  0.76804  0.50401  0.25403  1.0000
  C   C1062     1.0  0.84872  0.57398  0.25685  1.0000
  H   H1058     1.0  0.82189  0.52937  0.26556  1.0000
  H   H1059     1.0  0.85564  0.59429  0.22506  1.0000
  H   H1060     1.0  0.83860  0.55130  0.28610  1.0000
  C   C1063     1.0  0.75495  0.62903  0.32605  1.0000
  C   C1064     1.0  0.77096  0.97098  0.20763  1.0000
  Fe  Fe176     1.0  0.74789  0.85245  0.20455  1.0000
  H   H1061     1.0  0.79451  0.80977  0.23308  1.0000
  H   H1062     1.0  0.84279  0.78427  0.35284  1.0000
  H   H1063     1.0  0.80163  0.66866  0.47378  1.0000
  H   H1064     1.0  0.83118  0.68248  0.99874  1.0000
  H   H1065     1.0  0.81517  0.83295  0.30224  1.0000
  C   C1065     1.0  0.97059  0.68376  0.17439  1.0000
  N   N88       1.0  0.81620  0.78013  0.19109  1.0000
  C   C1066     1.0  0.80126  0.79373  0.20369  1.0000
  C   C1067     1.0  0.83673  0.77221  0.19685  1.0000
  C   C1068     1.0  0.80644  0.79906  0.22306  1.0000
  C   C1069     1.0  0.84249  0.77734  0.21602  1.0000
  C   C1070     1.0  0.82717  0.79068  0.22929  1.0000
  C   C1071     1.0  0.81070  0.77481  0.17072  1.0000
  H   H1066     1.0  0.85577  0.58399  0.26571  1.0000
  H   H1067     1.0  0.79173  0.66371  0.13533  1.0000
  C   C1072     1.0  0.75528  0.67764  0.02303  1.0000
  Fe  Fe177     1.0  0.75062  0.60390  0.28188  1.0000
  C   C1073     1.0  0.75498  0.65288  0.43535  1.0000
  H   H1068     1.0  0.82557  0.72137  0.48743  1.0000
  C   C1074     1.0  0.77683  0.71372  0.47419  1.0000
  C   C1075     1.0  0.94785  0.74409  0.16130  1.0000
  C   C1076     1.0  0.79226  0.82137  0.33064  1.0000
  H   H1069     1.0  0.80345  0.97838  0.24350  1.0000
  H   H1070     1.0  0.75427  0.81177  0.35146  1.0000
  H   H1071     1.0  0.78960  0.94844  0.23072  1.0000
  H   H1072     1.0  0.75517  0.66652  0.36042  1.0000
  H   H1073     1.0  0.75388  0.66094  0.13012  1.0000
  C   C1077     1.0  0.76810  0.68277  0.03725  1.0000
  N   N89       1.0  0.78945  0.80677  0.34996  1.0000
  C   C1078     1.0  0.75054  0.73277  0.99354  1.0000
  H   H1074     1.0  0.74980  0.73455  0.02833  1.0000
  S   S357      1.0  0.75229  0.72216  0.12909  1.0000
  H   H1075     1.0  0.74843  0.66530  0.46652  1.0000
  H   H1076     1.0  0.76407  0.95800  0.20267  1.0000
  Fe  Fe178     1.0  0.74852  0.75588  0.10873  1.0000
  C   C1079     1.0  0.75064  0.77262  0.32877  1.0000
  N   N90       1.0  0.96828  0.70803  0.17156  1.0000
  H   H1077     1.0  0.76528  0.78738  0.36823  1.0000
  Fe  Fe179     1.0  0.75076  0.84609  0.25347  1.0000
  C   C1080     1.0  0.80846  0.71899  0.48978  1.0000
  C   C1081     1.0  0.96403  0.75400  0.16713  1.0000
  H   H1078     1.0  0.96213  0.77192  0.16585  1.0000
  C   C1082     1.0  0.98448  0.71764  0.17679  1.0000
  C   C1083     1.0  0.74271  0.80563  0.30172  1.0000
  N   N91       1.0  0.74165  0.65607  0.16490  1.0000
  C   C1084     1.0  0.98251  0.74072  0.17489  1.0000
  H   H1079     1.0  0.79564  0.64185  0.48853  1.0000
  S   S358      1.0  0.74135  0.75378  0.35187  1.0000
  H   H1080     1.0  0.74142  0.52481  0.23897  1.0000
  Fe  Fe180     1.0  0.77420  0.76595  0.87189  1.0000
  S   S359      1.0  0.79632  0.74560  0.89558  1.0000
  S   S360      1.0  0.78045  0.79986  0.85426  1.0000
  H   H1081     1.0  0.74733  0.71024  0.49801  1.0000
  S   S361      1.0  0.77093  0.70363  0.89311  1.0000
  C   C1085     1.0  0.98371  0.72908  0.75583  1.0000
  Fe  Fe181     1.0  0.76546  0.73196  0.91312  1.0000
  H   H1082     1.0  0.81126  0.79543  0.68899  1.0000
  Fe  Fe182     1.0  0.79978  0.71935  0.87375  1.0000
  S   S362      1.0  0.83053  0.70019  0.85699  1.0000
  C   C1086     1.0  0.75258  0.65877  0.81200  1.0000
  S   S363      1.0  0.78019  0.74076  0.84892  1.0000
  S   S364      1.0  0.76282  0.63597  0.79751  1.0000
  H   H1083     1.0  0.75948  0.51899  0.73728  1.0000
  S   S365      1.0  0.74298  0.75429  0.89060  1.0000
  C   C1087     1.0  0.78268  0.74348  0.96856  1.0000
  C   C1088     1.0  0.76345  0.50192  0.74504  1.0000
  Fe  Fe183     1.0  0.75975  0.89502  0.75988  1.0000
  S   S366      1.0  0.79612  0.88754  0.76195  1.0000
  C   C1089     1.0  0.74462  0.67931  0.71693  1.0000
  Fe  Fe184     1.0  0.89038  0.76752  0.75337  1.0000
  S   S367      1.0  0.91068  0.79306  0.73399  1.0000
  S   S368      1.0  0.88587  0.76719  0.79031  1.0000
  Fe  Fe185     1.0  0.88189  0.75279  0.71161  1.0000
  S   S369      1.0  0.90210  0.77666  0.68903  1.0000
  S   S370      1.0  0.86401  0.72955  0.69947  1.0000
  Fe  Fe186     1.0  0.92656  0.76654  0.71334  1.0000
  Fe  Fe187     1.0  0.88441  0.80073  0.71198  1.0000
  S   S371      1.0  0.87066  0.83581  0.69888  1.0000
  S   S372      1.0  0.90766  0.74033  0.73420  1.0000
  S   S373      1.0  0.86270  0.77749  0.73310  1.0000
  Fe  Fe188     1.0  0.79119  0.74194  0.60997  1.0000
  S   S374      1.0  0.81370  0.71397  0.59561  1.0000
  S   S375      1.0  0.80600  0.76750  0.62225  1.0000
  H   H1084     1.0  0.75323  0.67555  0.98896  1.0000
  S   S376      1.0  0.76981  0.69481  0.58954  1.0000
  H   H1085     1.0  0.96373  0.79037  0.73083  1.0000
  Fe  Fe189     1.0  0.79031  0.69241  0.61651  1.0000
  S   S377      1.0  0.80162  0.66172  0.63943  1.0000
  Fe  Fe190     1.0  0.79114  0.71937  0.56970  1.0000
  S   S378      1.0  0.80888  0.72030  0.53398  1.0000
  S   S379      1.0  0.76932  0.72001  0.63278  1.0000
  S   S380      1.0  0.76990  0.74919  0.58276  1.0000
  C   C1090     1.0  0.79605  0.71793  0.51122  1.0000
  H   H1086     1.0  0.76759  0.51092  0.77598  1.0000
  H   H1087     1.0  0.78057  0.65328  0.82950  1.0000
  H   H1088     1.0  0.75772  0.84877  0.72006  1.0000
  C   C1091     1.0  0.77395  0.71483  0.51404  1.0000
  C   C1092     1.0  0.76261  0.83706  0.82945  1.0000
  H   H1089     1.0  0.76019  0.87218  0.69861  1.0000
  H   H1090     1.0  0.76420  0.71401  0.53043  1.0000
  Fe  Fe191     1.0  0.75109  0.72701  0.86940  1.0000
  C   C1093     1.0  0.75817  0.81984  0.84674  1.0000
  H   H1091     1.0  0.97602  0.72080  0.74583  1.0000
  C   C1094     1.0  0.74564  0.85365  0.82293  1.0000
  N   N92       1.0  0.97108  0.74374  0.76887  1.0000
  C   C1095     1.0  0.75742  0.66164  0.65278  1.0000
  C   C1096     1.0  0.77868  0.65296  0.65749  1.0000
  C   C1097     1.0  0.78142  0.63773  0.67687  1.0000
  C   C1098     1.0  0.76286  0.63124  0.69151  1.0000
  H   H1092     1.0  0.75515  0.67339  0.63787  1.0000
  H   H1093     1.0  0.79789  0.63102  0.68055  1.0000
  H   H1094     1.0  0.76499  0.61948  0.70645  1.0000
  C   C1099     1.0  0.84820  0.74035  0.67780  1.0000
  C   C1100     1.0  0.84650  0.76274  0.66831  1.0000
  C   C1101     1.0  0.83347  0.77095  0.65131  1.0000
  C   C1102     1.0  0.82210  0.75683  0.64370  1.0000
  C   C1103     1.0  0.82402  0.73441  0.65301  1.0000
  C   C1104     1.0  0.83696  0.72623  0.67004  1.0000
  H   H1095     1.0  0.85532  0.77366  0.67404  1.0000
  H   H1096     1.0  0.83228  0.78823  0.64393  1.0000
  H   H1097     1.0  0.81550  0.72331  0.64715  1.0000
  H   H1098     1.0  0.83829  0.70887  0.67718  1.0000
  S   S381      1.0  0.96360  0.75642  0.70333  1.0000
  C   C1105     1.0  0.81385  0.87320  0.74204  1.0000
  C   C1106     1.0  0.82889  0.88450  0.72664  1.0000
  C   C1107     1.0  0.84592  0.87283  0.71323  1.0000
  C   C1108     1.0  0.84850  0.84967  0.71559  1.0000
  C   C1109     1.0  0.83314  0.83829  0.73062  1.0000
  C   C1110     1.0  0.81574  0.85007  0.74380  1.0000
  H   H1099     1.0  0.82778  0.90230  0.72552  1.0000
  H   H1100     1.0  0.85763  0.88172  0.70152  1.0000
  H   H1101     1.0  0.83478  0.82045  0.73226  1.0000
  H   H1102     1.0  0.80449  0.84119  0.75609  1.0000
  H   H1103     1.0  0.88014  0.71206  0.60224  1.0000
  N   N93       1.0  0.78879  0.84761  0.69823  1.0000
  H   H1104     1.0  0.79210  0.74561  0.95204  1.0000
  S   S382      1.0  0.74705  0.59757  0.75761  1.0000
  C   C1111     1.0  0.84620  0.71850  0.83839  1.0000
  C   C1112     1.0  0.84511  0.74019  0.84240  1.0000
  C   C1113     1.0  0.85760  0.75482  0.82765  1.0000
  C   C1114     1.0  0.87035  0.74827  0.80818  1.0000
  C   C1115     1.0  0.87111  0.72671  0.80381  1.0000
  C   C1116     1.0  0.85938  0.71168  0.81917  1.0000
  H   H1105     1.0  0.83510  0.74555  0.85723  1.0000
  H   H1106     1.0  0.85732  0.77128  0.83141  1.0000
  H   H1107     1.0  0.88124  0.72143  0.78899  1.0000
  H   H1108     1.0  0.86034  0.69485  0.81610  1.0000
  C   C1117     1.0  0.98084  0.75540  0.78025  1.0000
  H   H1109     1.0  0.97092  0.76766  0.78989  1.0000
  H   H1110     1.0  0.74685  0.78801  0.82227  1.0000
  C   C1118     1.0  0.76260  0.73530  0.97195  1.0000
  S   S383      1.0  0.74335  0.91401  0.73114  1.0000
  H   H1111     1.0  0.74768  0.68497  0.73202  1.0000
  H   H1112     1.0  0.77920  0.83741  0.82080  1.0000
  H   H1113     1.0  0.74992  0.96998  0.76674  1.0000
  N   N94       1.0  0.81636  0.69810  0.78756  1.0000
  C   C1119     1.0  0.81284  0.68097  0.77800  1.0000
  C   C1120     1.0  0.83027  0.71252  0.77630  1.0000
  C   C1121     1.0  0.82356  0.67786  0.75661  1.0000
  C   C1122     1.0  0.84137  0.70980  0.75500  1.0000
  C   C1123     1.0  0.83792  0.69241  0.74507  1.0000
  C   C1124     1.0  0.80462  0.70122  0.80978  1.0000
  H   H1114     1.0  0.80165  0.66961  0.78690  1.0000
  H   H1115     1.0  0.83293  0.72623  0.78375  1.0000
  H   H1116     1.0  0.82076  0.66426  0.74906  1.0000
  H   H1117     1.0  0.85255  0.72115  0.74622  1.0000
  H   H1118     1.0  0.84637  0.69033  0.72842  1.0000
  H   H1119     1.0  0.78663  0.70593  0.80931  1.0000
  H   H1120     1.0  0.80766  0.68573  0.82178  1.0000
  H   H1121     1.0  0.81033  0.71444  0.81633  1.0000
  C   C1125     1.0  0.76442  0.71272  0.49561  1.0000
  H   H1122     1.0  0.81293  0.76139  0.55245  1.0000
  H   H1123     1.0  0.83400  0.75895  0.52871  1.0000
  H   H1124     1.0  0.93836  0.75796  0.78235  1.0000
  H   H1125     1.0  0.80372  0.87670  0.68583  1.0000
  H   H1126     1.0  0.76699  0.68513  0.85022  1.0000
  H   H1127     1.0  0.83721  0.85658  0.66578  1.0000
  C   C1126     1.0  0.79074  0.82510  0.69911  1.0000
  C   C1127     1.0  0.80503  0.85895  0.68613  1.0000
  C   C1128     1.0  0.80955  0.81332  0.68801  1.0000
  C   C1129     1.0  0.82392  0.84772  0.67465  1.0000
  C   C1130     1.0  0.82628  0.82474  0.67584  1.0000
  C   C1131     1.0  0.75736  0.68171  0.83860  1.0000
  C   C1132     1.0  0.76503  0.66366  0.82685  1.0000
  H   H1128     1.0  0.94028  0.73206  0.77251  1.0000
  H   H1129     1.0  0.77785  0.81608  0.70859  1.0000
  C   C1133     1.0  0.76804  0.49736  0.76681  1.0000
  C   C1134     1.0  0.76941  0.85986  0.71039  1.0000
  H   H1130     1.0  0.83176  0.78153  0.54406  1.0000
  N   N95       1.0  0.82795  0.84925  0.80463  1.0000
  C   C1135     1.0  0.84152  0.85839  0.78673  1.0000
  C   C1136     1.0  0.82829  0.82674  0.80913  1.0000
  C   C1137     1.0  0.85648  0.84487  0.77324  1.0000
  C   C1138     1.0  0.84274  0.81280  0.79570  1.0000
  C   C1139     1.0  0.85705  0.82193  0.77780  1.0000
  C   C1140     1.0  0.81226  0.86386  0.81830  1.0000
  H   H1131     1.0  0.84047  0.87628  0.78251  1.0000
  H   H1132     1.0  0.81737  0.81938  0.82314  1.0000
  H   H1133     1.0  0.86706  0.85215  0.75889  1.0000
  H   H1134     1.0  0.84285  0.79500  0.79915  1.0000
  H   H1135     1.0  0.86836  0.81126  0.76730  1.0000
  H   H1136     1.0  0.80630  0.85475  0.83487  1.0000
  H   H1137     1.0  0.82013  0.87764  0.82119  1.0000
  H   H1138     1.0  0.79780  0.87105  0.80966  1.0000
  N   N96       1.0  0.84509  0.74997  0.56045  1.0000
  C   C1141     1.0  0.84724  0.75716  0.57954  1.0000
  C   C1142     1.0  0.85542  0.72945  0.55596  1.0000
  C   C1143     1.0  0.86004  0.74375  0.59472  1.0000
  C   C1144     1.0  0.86844  0.71563  0.57074  1.0000
  C   C1145     1.0  0.87066  0.72284  0.59028  1.0000
  C   C1146     1.0  0.83029  0.76370  0.54567  1.0000
  H   H1139     1.0  0.83846  0.77310  0.58347  1.0000
  H   H1140     1.0  0.85302  0.72337  0.54127  1.0000
  H   H1141     1.0  0.86112  0.74929  0.61015  1.0000
  H   H1142     1.0  0.87612  0.69917  0.56740  1.0000
  H   H1143     1.0  0.94330  0.75705  0.75290  1.0000
  H   H1144     1.0  0.77464  0.86869  0.72227  1.0000
  C   C1147     1.0  0.94709  0.74793  0.76926  1.0000
  H   H1145     1.0  0.84131  0.81581  0.66773  1.0000
  H   H1146     1.0  0.74950  0.86703  0.80983  1.0000
  H   H1147     1.0  0.78980  0.68666  0.97440  1.0000
  S   S384      1.0  0.75317  0.72548  0.95051  1.0000
  H   H1148     1.0  0.76058  0.67678  0.70559  1.0000
  C   C1148     1.0  0.98062  0.78326  0.72555  1.0000
  C   C1149     1.0  0.98506  0.76721  0.71140  1.0000
  C   C1150     1.0  0.79100  0.74817  0.98675  1.0000
  H   H1149     1.0  0.80681  0.75398  0.98403  1.0000
  Fe  Fe192     1.0  0.75008  0.72417  0.60456  1.0000
  H   H1150     1.0  0.74876  0.70048  0.67511  1.0000
  H   H1151     1.0  0.81885  0.70508  0.97971  1.0000
  C   C1151     1.0  0.74148  0.98687  0.76401  1.0000
  C   C1152     1.0  0.74162  0.63977  0.68653  1.0000
  H   H1152     1.0  0.74161  0.76018  0.82408  1.0000
