data_image0
_chemical_formula_structural       FeS2CFeS2HSCH2FeS2FeS2FeSFeS3FeS2FeS2HCHFeHNC6H4C6H4C5HSH3C7H4CH3C3HC3HCNC3NC2H2CSC2H2NC6H8C3H3SHCH2C4H2FeHCH4CNCH2CH5SCH2CHCH2SFe2S2HS2CFeSHFeS2FeS2FeSFeS3FeS2C6H4C6H4CH2C2H3C3HCHC6H5NHCHCSH3CH3NH2C2HCHCNHC3SCHCHC3H2NC6H3FeH4C2HCH2SH3CHSC2HCH2CH2FeH2S2CHC2H2NC2FeH2C2H3C4NSFeS4C6H5NC6H6SFeS2CH4CH4CFeCSC2HCNH2CHC3SFeHCHCS2H2CHCHCH2FeCH4CHC3HCH2C2H5C2FeCHS3CS3FeSFe2HC2H2FeNSCH2CHNCHC3FeSCH3C5SCH6SHC2H2CNHSFeC3FeC2HC3FeHCNC2HS2CFeHSFeS2FeS2FeSFeS3FeS2CSCHFeSNCNFeS2FeH3CH3C2HCHCH2C3HC7H4C6H5C2H2CSHC6H5NC6H2SH5NC6H6NC6H2C2HSHSC4H2SH7CH2CHCS2HCHS2FeS2HCSCHCFeS2HSCNH2FeS5C2H3FeC6H4CSHCHCNHCFeHCNHSHCH3C6H5FeC2H2CHC4FeNC6H4CH3NC4HC2HC3HC2SHC6H2CH2C2HC3H4SCH2NFeSH2CH2FeHCSCHC2S2FeS2FeH3CHFeS3FeS2C6H4C2HCSFeC5HCH3SCNCH2CH2C2HCH3CSCH2NH2CHC3H2C2SCHCHCHC2HCH6CH2C3HCNH4SFeCHC2HCHCSC2FeH2C2HC4SC3H3C2FeH3FeCH4S2FeS2FeS2HCH6C3H2C6H2C2HCSCH3CHNSHNH3C3FeC2H4CFeS2FeSHNC6H4CHNC2H2SH2C2HC3SCH3C3H4CNCH3SCHCFeCHC2HCH2Fe2S3CNC3FeHS2CH3C6H4C3H5C2H2SHSCHSH2FeCHFeHNCH3NCSCHC2H2C2FeCHCNFeS2FeS2CHC6H5CH2C2H3SH4CH3CH3C2SCHCH2CHC2HC2HCH2SNC3H3CFeS3H4S2HCSHCHFeS2NHFeS2CFeS2C2HC6H4FeH3SC4HSH3CFeCHC6H3C2FeHCHSC4H2CHFeSCHCHCFeCHCSC5HC2H5NC3HCHCHCNC6H4CFeSC2H3NCNHCH3C2SFeHCH3CNCSHC2FeS2CSH2CSFeS2HS2CSH2FeHCHCH3CH2SCHCHC4H4C7H4C4SH2CHNC5FeSFeHFeCHCHCH2NHC2FeC2HCNHC3SCH2CHCHSHC2H3C2H3CSHC2H2C2H5FeSH3FeS2FeS2CHC2SHFeS2FeS2FeS2FeSFeS3FeS2HC2H3CFeS2C2SHC6H4C6H5CSHC6H4CHC4SH3C3HCNC4H3SH3C2HNC6H8CH2CFeH2SHCH2FeCHC3H3NFeH2C2HCH2CSNHNHCHC3H3C2H6FeSCFeH2C2NHSCFeS2FeS2FeS2FeS2FeSFeS3FeS2H4C6H4C6H4N2C2NHC2HCH3C6H5C2HC3HCH3C6HCSHC6HCSC2H6C2H2CH3CNC2Fe2H2CHC2HCNH2SC2H4SCHC2HCFeHSH2SFeNH3FeS2FeH2SHFeHSCHCHSFeS2FeS2FeSFeS3CSHCHFeS2FeS2H2C2HC6H4C6H4C6H4SC4NC3HCSHC2HFeH8C2HNC6H8NC6H8SCH2CHSC2HCNCFeSHSC2H4CH2CHSC3H3FeHNH2C2H2CHFeS2FeS2FeS2FeSFeS3FeC3HSFeS3HS2HSH2C6H3C6H4C6H4C2HC2HC2H4C6H4C2H4CNH4C3H2FeC2SNC6H3FeCSHSC2N2H2CFeC2H2SCH3CHC2H2CHSFeHC2SH4CFeSCNCH4
_chemical_formula_sum              "Fe144 S288 C864 H864 N72"
_cell_length_a       54.11
_cell_length_b       53.9734
_cell_length_c       68.082
_cell_angle_alpha    91.2454
_cell_angle_beta     93.3055
_cell_angle_gamma    118.256

_space_group_name_H-M_alt    "P 1"
_space_group_IT_number       1

loop_
  _space_group_symop_operation_xyz
  'x, y, z'

loop_
  _atom_site_type_symbol
  _atom_site_label
  _atom_site_symmetry_multiplicity
  _atom_site_fract_x
  _atom_site_fract_y
  _atom_site_fract_z
  _atom_site_occupancy
  Fe  Fe1       1.0  0.31579  0.38375  0.24053  1.0000
  S   S1        1.0  0.32697  0.42837  0.23351  1.0000
  S   S2        1.0  0.31644  0.35022  0.21971  1.0000
  C   C1        1.0  0.38672  0.38201  0.23510  1.0000
  Fe  Fe2       1.0  0.06320  0.38533  0.23765  1.0000
  S   S3        1.0  0.10336  0.42574  0.24610  1.0000
  S   S4        1.0  0.06020  0.37146  0.20503  1.0000
  H   H1        1.0  0.01499  0.35299  0.13656  1.0000
  S   S5        1.0  0.99694  0.20764  0.12059  1.0000
  C   C2        1.0  0.22364  0.14093  0.05242  1.0000
  H   H2        1.0  0.15060  0.41414  0.19196  1.0000
  H   H3        1.0  0.18689  0.29210  0.04907  1.0000
  Fe  Fe3       1.0  0.23498  0.25848  0.11753  1.0000
  S   S6        1.0  0.21584  0.21477  0.12859  1.0000
  S   S7        1.0  0.24991  0.30062  0.13511  1.0000
  Fe  Fe4       1.0  0.21441  0.23548  0.07380  1.0000
  S   S8        1.0  0.19331  0.19022  0.08191  1.0000
  S   S9        1.0  0.20714  0.25008  0.04381  1.0000
  Fe  Fe5       1.0  0.17842  0.20484  0.10757  1.0000
  S   S10       1.0  0.13459  0.18272  0.11784  1.0000
  Fe  Fe6       1.0  0.23227  0.20331  0.10211  1.0000
  S   S11       1.0  0.25279  0.17517  0.10471  1.0000
  S   S12       1.0  0.19610  0.24870  0.09812  1.0000
  S   S13       1.0  0.25482  0.24816  0.09238  1.0000
  Fe  Fe7       1.0  0.02043  0.22918  0.09456  1.0000
  S   S14       1.0  0.01218  0.26603  0.09834  1.0000
  S   S15       1.0  0.06254  0.23859  0.08375  1.0000
  Fe  Fe8       1.0  0.19632  0.01248  0.10065  1.0000
  S   S16       1.0  0.17791  0.04229  0.10464  1.0000
  S   S17       1.0  0.24249  0.02759  0.10002  1.0000
  H   H4        1.0  0.25027  0.23448  0.03414  1.0000
  C   C3        1.0  0.13369  0.35416  0.24126  1.0000
  H   H5        1.0  0.04909  0.20738  0.03053  1.0000
  Fe  Fe9       1.0  0.29028  0.42088  0.25129  1.0000
  H   H6        1.0  0.24529  0.33069  0.09983  1.0000
  N   N1        1.0  0.14257  0.38372  0.21383  1.0000
  C   C4        1.0  0.23182  0.13818  0.10391  1.0000
  C   C5        1.0  0.20286  0.12524  0.09878  1.0000
  C   C6        1.0  0.18680  0.09571  0.09809  1.0000
  C   C7        1.0  0.19943  0.07888  0.10282  1.0000
  C   C8        1.0  0.22847  0.09179  0.10761  1.0000
  C   C9        1.0  0.24458  0.12132  0.10814  1.0000
  H   H7        1.0  0.19278  0.13795  0.09543  1.0000
  H   H8        1.0  0.16436  0.08588  0.09426  1.0000
  H   H9        1.0  0.23843  0.07911  0.11148  1.0000
  H   H10       1.0  0.26700  0.13115  0.11207  1.0000
  C   C10       1.0  0.11321  0.19652  0.10782  1.0000
  C   C11       1.0  0.08999  0.19394  0.11755  1.0000
  C   C12       1.0  0.07369  0.20615  0.11009  1.0000
  C   C13       1.0  0.08048  0.22072  0.09279  1.0000
  C   C14       1.0  0.10307  0.22240  0.08276  1.0000
  C   C15       1.0  0.11952  0.21054  0.09030  1.0000
  H   H11       1.0  0.08496  0.18298  0.13106  1.0000
  H   H12       1.0  0.05624  0.20470  0.11788  1.0000
  H   H13       1.0  0.10779  0.23281  0.06904  1.0000
  H   H14       1.0  0.13685  0.21189  0.08239  1.0000
  C   C16       1.0  0.17711  0.37033  0.22552  1.0000
  C   C17       1.0  0.03885  0.33876  0.19149  1.0000
  C   C18       1.0  0.04528  0.33514  0.17223  1.0000
  C   C19       1.0  0.02832  0.31011  0.16055  1.0000
  C   C20       1.0  0.26471  0.13520  0.06279  1.0000
  H   H15       1.0  0.23377  0.16080  0.06189  1.0000
  S   S18       1.0  0.03672  0.39887  0.25512  1.0000
  H   H16       1.0  0.06346  0.35188  0.16625  1.0000
  H   H17       1.0  0.03347  0.30775  0.14574  1.0000
  H   H18       1.0  0.20098  0.13024  0.05525  1.0000
  C   C21       1.0  0.41809  0.43297  0.25648  1.0000
  C   C22       1.0  0.29636  0.33579  0.19673  1.0000
  C   C23       1.0  0.28281  0.34879  0.18656  1.0000
  C   C24       1.0  0.26854  0.33755  0.16785  1.0000
  C   C25       1.0  0.26717  0.31294  0.15917  1.0000
  C   C26       1.0  0.28031  0.29968  0.16950  1.0000
  C   C27       1.0  0.29501  0.31120  0.18807  1.0000
  H   H19       1.0  0.28374  0.36777  0.19293  1.0000
  H   H20       1.0  0.25860  0.34810  0.15999  1.0000
  H   H21       1.0  0.27961  0.28085  0.16303  1.0000
  H   H22       1.0  0.30545  0.30097  0.19573  1.0000
  C   C28       1.0  0.99803  0.29207  0.18720  1.0000
  H   H23       1.0  0.02386  0.27062  0.02000  1.0000
  H   H24       1.0  0.39239  0.42334  0.19876  1.0000
  H   H25       1.0  0.21417  0.44932  0.23407  1.0000
  C   C29       1.0  0.03685  0.23977  0.02763  1.0000
  C   C30       1.0  0.23320  0.07703  0.05824  1.0000
  C   C31       1.0  0.18438  0.42783  0.25559  1.0000
  H   H26       1.0  0.27710  0.15793  0.06491  1.0000
  C   C32       1.0  0.00740  0.33559  0.10679  1.0000
  C   C33       1.0  0.13313  0.39861  0.20009  1.0000
  C   C34       1.0  0.19104  0.29840  0.06468  1.0000
  H   H27       1.0  0.12431  0.41038  0.20821  1.0000
  C   C35       1.0  0.40587  0.43177  0.23757  1.0000
  N   N2        1.0  0.17406  0.29672  0.09675  1.0000
  C   C36       1.0  0.20115  0.31155  0.10492  1.0000
  C   C37       1.0  0.16884  0.29020  0.07688  1.0000
  C   C38       1.0  0.22386  0.32012  0.09312  1.0000
  N   N3        1.0  0.39077  0.40654  0.22702  1.0000
  C   C39       1.0  0.22001  0.24578  0.02124  1.0000
  C   C40       1.0  0.15069  0.28539  0.10956  1.0000
  H   H28       1.0  0.20547  0.31556  0.12077  1.0000
  H   H29       1.0  0.14748  0.27781  0.07043  1.0000
  C   C41       1.0  0.21870  0.31322  0.07290  1.0000
  S   S19       1.0  0.25971  0.43651  0.24088  1.0000
  C   C42       1.0  0.24503  0.00513  0.02087  1.0000
  C   C43       1.0  0.22089  0.09433  0.05456  1.0000
  H   H30       1.0  0.14766  0.26480  0.11478  1.0000
  H   H31       1.0  0.15493  0.29999  0.12256  1.0000
  N   N4        1.0  0.18178  0.10594  0.14436  1.0000
  C   C44       1.0  0.15601  0.08421  0.13783  1.0000
  C   C45       1.0  0.18651  0.13320  0.14433  1.0000
  C   C46       1.0  0.13440  0.08960  0.13051  1.0000
  C   C47       1.0  0.16525  0.13927  0.13734  1.0000
  C   C48       1.0  0.13914  0.11736  0.13025  1.0000
  C   C49       1.0  0.20419  0.10002  0.15209  1.0000
  H   H32       1.0  0.15237  0.06260  0.13757  1.0000
  H   H33       1.0  0.20697  0.15049  0.14938  1.0000
  H   H34       1.0  0.11427  0.07238  0.12483  1.0000
  H   H35       1.0  0.16896  0.16084  0.13724  1.0000
  H   H36       1.0  0.12275  0.12206  0.12449  1.0000
  H   H37       1.0  0.20120  0.07943  0.14589  1.0000
  H   H38       1.0  0.22505  0.11632  0.14789  1.0000
  H   H39       1.0  0.20448  0.09957  0.16839  1.0000
  C   C50       1.0  0.12526  0.36845  0.22782  1.0000
  C   C51       1.0  0.39845  0.38242  0.25406  1.0000
  C   C52       1.0  0.16809  0.38455  0.21241  1.0000
  H   H40       1.0  0.00993  0.31940  0.21372  1.0000
  H   H41       1.0  0.29989  0.12815  0.07137  1.0000
  H   H42       1.0  0.19862  0.08461  0.04998  1.0000
  S   S20       1.0  0.25114  0.02256  0.04440  1.0000
  H   H43       1.0  0.02773  0.35107  0.10238  1.0000
  C   C53       1.0  0.15982  0.35520  0.24010  1.0000
  H   H44       1.0  0.23604  0.31839  0.06369  1.0000
  H   H45       1.0  0.40826  0.45116  0.23152  1.0000
  C   C54       1.0  0.00437  0.28853  0.16789  1.0000
  C   C55       1.0  0.27769  0.11850  0.06656  1.0000
  C   C56       1.0  0.37777  0.40580  0.20735  1.0000
  C   C57       1.0  0.24149  0.23837  0.02062  1.0000
  H   H46       1.0  0.39472  0.36286  0.26053  1.0000
  H   H47       1.0  0.22576  0.14628  0.03673  1.0000
  Fe  Fe10      1.0  0.23095  0.00074  0.07177  1.0000
  H   H48       1.0  0.19783  0.37193  0.22486  1.0000
  C   C58       1.0  0.26178  0.08924  0.06424  1.0000
  H   H49       1.0  0.22071  0.05425  0.05652  1.0000
  H   H50       1.0  0.35819  0.40736  0.20871  1.0000
  H   H51       1.0  0.13064  0.28191  0.10162  1.0000
  H   H52       1.0  0.10499  0.36768  0.22883  1.0000
  C   C59       1.0  0.01525  0.31692  0.19899  1.0000
  N   N5        1.0  0.23661  0.12303  0.05699  1.0000
  C   C60       1.0  0.20962  0.43601  0.24645  1.0000
  H   H53       1.0  0.37179  0.38569  0.19881  1.0000
  H   H54       1.0  0.03658  0.24299  0.04343  1.0000
  C   C61       1.0  0.22876  0.42672  0.25310  1.0000
  H   H55       1.0  0.27152  0.07596  0.06710  1.0000
  H   H56       1.0  0.16960  0.43482  0.25027  1.0000
  H   H57       1.0  0.37390  0.36187  0.22706  1.0000
  H   H58       1.0  0.16702  0.34503  0.25087  1.0000
  H   H59       1.0  0.11625  0.38320  0.18937  1.0000
  S   S21       1.0  0.27738  0.37554  0.25623  1.0000
  C   C62       1.0  0.04381  0.21969  0.02035  1.0000
  H   H60       1.0  0.18198  0.39679  0.20144  1.0000
  H   H61       1.0  0.04066  0.48475  0.24509  1.0000
  C   C63       1.0  0.02990  0.25539  0.01450  1.0000
  H   H62       1.0  0.12046  0.34323  0.25293  1.0000
  C   C64       1.0  0.00008  0.33649  0.12608  1.0000
  H   H63       1.0  0.99367  0.31343  0.07817  1.0000
  H   H64       1.0  0.29411  0.49557  0.24798  1.0000
  S   S22       1.0  0.07015  0.36173  0.26230  1.0000
  Fe  Fe11      1.0  0.35342  0.44182  0.26248  1.0000
  Fe  Fe12      1.0  0.30673  0.39184  0.28379  1.0000
  S   S23       1.0  0.31711  0.43703  0.27969  1.0000
  S   S24       1.0  0.29110  0.37574  0.31395  1.0000
  H   H65       1.0  0.28066  0.49256  0.29944  1.0000
  S   S25       1.0  0.08580  0.41757  0.29152  1.0000
  S   S26       1.0  0.01370  0.34963  0.30115  1.0000
  C   C65       1.0  0.01319  0.43729  0.29345  1.0000
  Fe  Fe13      1.0  0.23752  0.02779  0.40430  1.0000
  S   S27       1.0  0.25701  0.07532  0.40213  1.0000
  H   H66       1.0  0.27467  0.11689  0.43990  1.0000
  Fe  Fe14      1.0  0.20912  0.19236  0.40359  1.0000
  S   S28       1.0  0.25497  0.22216  0.41048  1.0000
  S   S29       1.0  0.18896  0.14457  0.40026  1.0000
  Fe  Fe15      1.0  0.19402  0.24027  0.40527  1.0000
  S   S30       1.0  0.23880  0.27334  0.41307  1.0000
  S   S31       1.0  0.16307  0.25664  0.39923  1.0000
  Fe  Fe16      1.0  0.24904  0.25102  0.38918  1.0000
  S   S32       1.0  0.27643  0.27066  0.36349  1.0000
  Fe  Fe17      1.0  0.24009  0.24160  0.43363  1.0000
  S   S33       1.0  0.26128  0.24973  0.46479  1.0000
  S   S34       1.0  0.20404  0.21923  0.38057  1.0000
  S   S35       1.0  0.19440  0.21049  0.42763  1.0000
  Fe  Fe18      1.0  0.01214  0.20937  0.41963  1.0000
  S   S36       1.0  0.04064  0.19075  0.42753  1.0000
  S   S37       1.0  0.02257  0.25386  0.42795  1.0000
  C   C66       1.0  0.07329  0.20676  0.41722  1.0000
  C   C67       1.0  0.08097  0.23057  0.40624  1.0000
  C   C68       1.0  0.10832  0.24505  0.40005  1.0000
  C   C69       1.0  0.12799  0.23568  0.40468  1.0000
  C   C70       1.0  0.11995  0.21116  0.41490  1.0000
  C   C71       1.0  0.09265  0.19680  0.42125  1.0000
  H   H67       1.0  0.06613  0.23835  0.40307  1.0000
  H   H68       1.0  0.11445  0.26399  0.39212  1.0000
  H   H69       1.0  0.13492  0.20366  0.41834  1.0000
  H   H70       1.0  0.08667  0.17825  0.42962  1.0000
  C   C72       1.0  0.23755  0.09401  0.40050  1.0000
  C   C73       1.0  0.25212  0.12354  0.40016  1.0000
  C   C74       1.0  0.23754  0.13933  0.39988  1.0000
  C   C75       1.0  0.20818  0.12565  0.39970  1.0000
  C   C76       1.0  0.19361  0.09609  0.39985  1.0000
  C   C77       1.0  0.20821  0.08032  0.40036  1.0000
  H   H71       1.0  0.27483  0.13434  0.40029  1.0000
  H   H72       1.0  0.24899  0.16206  0.39978  1.0000
  H   H73       1.0  0.17089  0.08535  0.39971  1.0000
  H   H74       1.0  0.19674  0.05760  0.40064  1.0000
  C   C78       1.0  0.22966  0.26682  0.31259  1.0000
  H   H75       1.0  0.18943  0.29067  0.36137  1.0000
  H   H76       1.0  0.32436  0.03291  0.39270  1.0000
  C   C79       1.0  0.24400  0.24599  0.48684  1.0000
  C   C80       1.0  0.21579  0.23985  0.48655  1.0000
  H   H77       1.0  0.18138  0.23353  0.50401  1.0000
  H   H78       1.0  0.20393  0.23695  0.47260  1.0000
  H   H79       1.0  0.26339  0.10716  0.46443  1.0000
  C   C81       1.0  0.01920  0.33446  0.32294  1.0000
  C   C82       1.0  0.04575  0.33809  0.32951  1.0000
  C   C83       1.0  0.04892  0.32464  0.34632  1.0000
  H   H80       1.0  0.23967  0.09028  0.44287  1.0000
  C   C84       1.0  0.22437  0.30859  0.30996  1.0000
  H   H81       1.0  0.06386  0.35107  0.32156  1.0000
  C   C85       1.0  0.28968  0.34778  0.32818  1.0000
  C   C86       1.0  0.27765  0.34361  0.34643  1.0000
  C   C87       1.0  0.27394  0.32052  0.35760  1.0000
  C   C88       1.0  0.28241  0.30131  0.35073  1.0000
  C   C89       1.0  0.29526  0.30597  0.33277  1.0000
  C   C90       1.0  0.29876  0.32895  0.32150  1.0000
  H   H82       1.0  0.27081  0.35818  0.35186  1.0000
  H   H83       1.0  0.26460  0.31764  0.37155  1.0000
  H   H84       1.0  0.30213  0.29141  0.32738  1.0000
  H   H85       1.0  0.30817  0.33189  0.30757  1.0000
  H   H86       1.0  0.19342  0.38878  0.29099  1.0000
  N   N6        1.0  0.24813  0.13255  0.45039  1.0000
  H   H87       1.0  0.13533  0.31607  0.42790  1.0000
  C   C91       1.0  0.22026  0.12549  0.44759  1.0000
  H   H88       1.0  0.28094  0.25432  0.50553  1.0000
  C   C92       1.0  0.21176  0.14620  0.44891  1.0000
  S   S38       1.0  0.03087  0.28867  0.37668  1.0000
  H   H89       1.0  0.21452  0.27927  0.36917  1.0000
  H   H90       1.0  0.28879  0.09195  0.36611  1.0000
  H   H91       1.0  0.20447  0.10387  0.44377  1.0000
  C   C93       1.0  0.32361  0.03807  0.34306  1.0000
  H   H92       1.0  0.18979  0.14073  0.44590  1.0000
  H   H93       1.0  0.18025  0.25427  0.35803  1.0000
  H   H94       1.0  0.22822  0.32751  0.30246  1.0000
  N   N7        1.0  0.20921  0.28067  0.33820  1.0000
  H   H95       1.0  0.20679  0.31866  0.33438  1.0000
  H   H96       1.0  0.23736  0.25293  0.30712  1.0000
  C   C94       1.0  0.19781  0.27609  0.35758  1.0000
  C   C95       1.0  0.19787  0.40195  0.27852  1.0000
  H   H97       1.0  0.23751  0.40259  0.27453  1.0000
  C   C96       1.0  0.28114  0.48273  0.28507  1.0000
  H   H98       1.0  0.30190  0.05629  0.32657  1.0000
  C   C97       1.0  0.22823  0.02330  0.50261  1.0000
  N   N8        1.0  0.29825  0.05944  0.35750  1.0000
  H   H99       1.0  0.29012  0.16566  0.45680  1.0000
  C   C98       1.0  0.30739  0.05194  0.34118  1.0000
  C   C99       1.0  0.03415  0.42017  0.31819  1.0000
  C   C100      1.0  0.05523  0.44787  0.32279  1.0000
  S   S39       1.0  0.14661  0.39875  0.28319  1.0000
  C   C101      1.0  0.28068  0.07334  0.35549  1.0000
  H   H100      1.0  0.03454  0.40276  0.32566  1.0000
  C   C102      1.0  0.26803  0.16001  0.45466  1.0000
  H   H101      1.0  0.34141  0.01952  0.36331  1.0000
  C   C103      1.0  0.03438  0.46476  0.29860  1.0000
  C   C104      1.0  0.23301  0.29007  0.30218  1.0000
  C   C105      1.0  0.25687  0.11067  0.44944  1.0000
  H   H102      1.0  0.00249  0.23029  0.34928  1.0000
  H   H103      1.0  0.28023  0.08082  0.34047  1.0000
  N   N9        1.0  0.14025  0.26319  0.45054  1.0000
  C   C106      1.0  0.11362  0.24899  0.45666  1.0000
  C   C107      1.0  0.14825  0.28731  0.44066  1.0000
  C   C108      1.0  0.09401  0.25852  0.45252  1.0000
  C   C109      1.0  0.12918  0.29745  0.43628  1.0000
  C   C110      1.0  0.10188  0.28288  0.44222  1.0000
  C   C111      1.0  0.16066  0.25310  0.45514  1.0000
  H   H104      1.0  0.10704  0.22960  0.46419  1.0000
  H   H105      1.0  0.16921  0.29831  0.43553  1.0000
  H   H106      1.0  0.07253  0.24645  0.45660  1.0000
  Fe  Fe19      1.0  0.00412  0.25407  0.39719  1.0000
  H   H107      1.0  0.08665  0.29007  0.43847  1.0000
  H   H108      1.0  0.17532  0.25783  0.44326  1.0000
  H   H109      1.0  0.17307  0.26336  0.46928  1.0000
  H   H110      1.0  0.14999  0.22985  0.45620  1.0000
  C   C112      1.0  0.25910  0.24950  0.50514  1.0000
  C   C113      1.0  0.21246  0.30357  0.32811  1.0000
  H   H111      1.0  0.22392  0.04092  0.50211  1.0000
  C   C114      1.0  0.02565  0.30711  0.35673  1.0000
  H   H112      1.0  0.22562  0.01718  0.47088  1.0000
  H   H113      1.0  0.33026  0.03149  0.33007  1.0000
  S   S40       1.0  0.34478  0.39739  0.26860  1.0000
  H   H114      1.0  0.26509  0.48368  0.27460  1.0000
  H   H115      1.0  0.22560  0.19045  0.45446  1.0000
  H   H116      1.0  0.99701  0.39342  0.29938  1.0000
  C   C115      1.0  0.32997  0.03142  0.36171  1.0000
  H   H117      1.0  0.24333  0.29440  0.28851  1.0000
  S   S41       1.0  0.39670  0.48154  0.27037  1.0000
  C   C116      1.0  0.21775  0.26249  0.33073  1.0000
  C   C117      1.0  0.26021  0.18122  0.45622  1.0000
  H   H118      1.0  0.06956  0.32745  0.35110  1.0000
  C   C118      1.0  0.22285  0.40975  0.26922  1.0000
  H   H119      1.0  0.42306  0.40873  0.27963  1.0000
  H   H120      1.0  0.25876  0.05851  0.35878  1.0000
  C   C119      1.0  0.20308  0.23790  0.50439  1.0000
  H   H121      1.0  0.03892  0.26835  0.33266  1.0000
  H   H122      1.0  0.21642  0.24512  0.33918  1.0000
  Fe  Fe20      1.0  0.04702  0.37785  0.28065  1.0000
  H   H123      1.0  0.27593  0.20309  0.45947  1.0000
  H   H124      1.0  0.07204  0.45171  0.33388  1.0000
  S   S42       1.0  0.08746  0.48472  0.27003  1.0000
  S   S43       1.0  0.26732  0.01301  0.41723  1.0000
  C   C120      1.0  0.17839  0.41066  0.27163  1.0000
  H   H125      1.0  0.29688  0.05863  0.38873  1.0000
  C   C121      1.0  0.01308  0.41491  0.30338  1.0000
  C   C122      1.0  0.23188  0.17417  0.45337  1.0000
  H   H126      1.0  0.03002  0.28232  0.31153  1.0000
  H   H127      1.0  0.42983  0.45302  0.26486  1.0000
  N   N10       1.0  0.05503  0.46975  0.31312  1.0000
  C   C123      1.0  0.30450  0.05307  0.37584  1.0000
  C   C124      1.0  0.32035  0.03891  0.37822  1.0000
  Fe  Fe21      1.0  0.10851  0.40273  0.27166  1.0000
  H   H128      1.0  0.02639  0.24717  0.30967  1.0000
  H   H129      1.0  0.00197  0.29439  0.48747  1.0000
  C   C125      1.0  0.02395  0.26258  0.31932  1.0000
  C   C126      1.0  0.99918  0.30398  0.35042  1.0000
  H   H130      1.0  0.99731  0.43338  0.28159  1.0000
  H   H131      1.0  0.27487  0.46014  0.28686  1.0000
  H   H132      1.0  0.03468  0.48198  0.29050  1.0000
  C   C127      1.0  0.22927  0.00997  0.48491  1.0000
  C   C128      1.0  0.99737  0.27724  0.49705  1.0000
  C   C129      1.0  0.41428  0.40811  0.26477  1.0000
  C   C130      1.0  0.99604  0.31765  0.33370  1.0000
  N   N11       1.0  0.99490  0.25048  0.32490  1.0000
  S   S44       1.0  0.99684  0.21045  0.38866  1.0000
  Fe  Fe22      1.0  0.07740  0.43800  0.26501  1.0000
  S   S45       1.0  0.20168  0.99951  0.42201  1.0000
  S   S46       1.0  0.22402  0.99770  0.37752  1.0000
  S   S47       1.0  0.02699  0.17544  0.59748  1.0000
  S   S48       1.0  0.01507  0.24329  0.60765  1.0000
  C   C131      1.0  0.06270  0.19126  0.60662  1.0000
  C   C132      1.0  0.07394  0.21373  0.62078  1.0000
  C   C133      1.0  0.10225  0.22529  0.62817  1.0000
  C   C134      1.0  0.11971  0.21492  0.62116  1.0000
  C   C135      1.0  0.10860  0.19274  0.60675  1.0000
  C   C136      1.0  0.08012  0.18078  0.59967  1.0000
  H   H133      1.0  0.06066  0.22181  0.62636  1.0000
  H   H134      1.0  0.11064  0.24230  0.63943  1.0000
  H   H135      1.0  0.12177  0.18437  0.60144  1.0000
  H   H136      1.0  0.07149  0.16325  0.58883  1.0000
  H   H137      1.0  0.08397  0.27490  0.59383  1.0000
  N   N12       1.0  0.11717  0.24173  0.57397  1.0000
  C   C137      1.0  0.09589  0.22296  0.56098  1.0000
  C   C138      1.0  0.11320  0.26042  0.58554  1.0000
  C   C139      1.0  0.06965  0.22230  0.55956  1.0000
  C   C140      1.0  0.08728  0.26044  0.58440  1.0000
  C   C141      1.0  0.06542  0.24126  0.57129  1.0000
  C   C142      1.0  0.14474  0.24263  0.57490  1.0000
  H   H138      1.0  0.09899  0.20809  0.55188  1.0000
  H   H139      1.0  0.04513  0.24089  0.57036  1.0000
  H   H140      1.0  0.15554  0.24961  0.58992  1.0000
  H   H141      1.0  0.14270  0.22146  0.57157  1.0000
  H   H142      1.0  0.15828  0.25730  0.56416  1.0000
  H   H143      1.0  0.12997  0.27508  0.59600  1.0000
  S   S49       1.0  0.18922  0.19917  0.59101  1.0000
  Fe  Fe23      1.0  0.19024  0.22839  0.61550  1.0000
  S   S50       1.0  0.15503  0.22995  0.63109  1.0000
  S   S51       1.0  0.18455  0.04504  0.62441  1.0000
  C   C143      1.0  0.18853  0.09770  0.62293  1.0000
  H   H144      1.0  0.19118  0.13874  0.61990  1.0000
  H   H145      1.0  0.16643  0.08740  0.62558  1.0000
  H   H146      1.0  0.05253  0.20692  0.54967  1.0000
  H   H147      1.0  0.16409  0.11177  0.58242  1.0000
  C   C144      1.0  0.18119  0.12508  0.57306  1.0000
  H   H148      1.0  0.17184  0.12617  0.55837  1.0000
  H   H149      1.0  0.19216  0.14652  0.58049  1.0000
  H   H150      1.0  0.02163  0.29641  0.68882  1.0000
  H   H151      1.0  0.17115  0.07182  0.57664  1.0000
  C   C145      1.0  0.19231  0.08592  0.57278  1.0000
  Fe  Fe24      1.0  0.20276  0.01901  0.61103  1.0000
  C   C146      1.0  0.01129  0.30788  0.69435  1.0000
  S   S52       1.0  0.20139  0.23992  0.54471  1.0000
  C   C147      1.0  0.20249  0.12672  0.61971  1.0000
  C   C148      1.0  0.20291  0.08183  0.62223  1.0000
  H   H152      1.0  0.01234  0.29577  0.72406  1.0000
  C   C149      1.0  0.00571  0.30739  0.71421  1.0000
  N   N13       1.0  0.20098  0.11398  0.57090  1.0000
  H   H153      1.0  0.20407  0.05290  0.57206  1.0000
  H   H154      1.0  0.01674  0.30484  0.52306  1.0000
  C   C150      1.0  0.00168  0.32160  0.68132  1.0000
  H   H155      1.0  0.00458  0.32081  0.66571  1.0000
  C   C151      1.0  0.21088  0.07507  0.57035  1.0000
  C   C152      1.0  0.99748  0.26138  0.53039  1.0000
  C   C153      1.0  0.00545  0.28315  0.51733  1.0000
  S   S53       1.0  0.00436  0.27055  0.55612  1.0000
  Fe  Fe25      1.0  0.00050  0.19733  0.60123  1.0000
  H   H156      1.0  0.99700  0.31201  0.75107  1.0000
  C   C154      1.0  0.30687  0.08834  0.67218  1.0000
  H   H157      1.0  0.36688  0.34142  0.68509  1.0000
  C   C155      1.0  0.23245  0.01380  0.52092  1.0000
  S   S54       1.0  0.21654  0.26779  0.60031  1.0000
  S   S55       1.0  0.40169  0.07666  0.73017  1.0000
  H   H158      1.0  0.36757  0.00781  0.66997  1.0000
  H   H159      1.0  0.38648  0.30088  0.65233  1.0000
  C   C156      1.0  0.32918  0.10197  0.68669  1.0000
  H   H160      1.0  0.32548  0.21483  0.64012  1.0000
  C   C157      1.0  0.28095  0.99951  0.66664  1.0000
  H   H161      1.0  0.23478  0.15403  0.56507  1.0000
  C   C158      1.0  0.22783  0.13171  0.56632  1.0000
  H   H162      1.0  0.30215  0.22831  0.61334  1.0000
  H   H163      1.0  0.25998  0.03763  0.69845  1.0000
  Fe  Fe26      1.0  0.25375  0.26639  0.61580  1.0000
  C   C159      1.0  0.37784  0.00849  0.68431  1.0000
  H   H164      1.0  0.23683  0.27892  0.66879  1.0000
  H   H165      1.0  0.30886  0.33957  0.70490  1.0000
  H   H166      1.0  0.24508  0.06195  0.66155  1.0000
  H   H167      1.0  0.29898  0.06070  0.72447  1.0000
  C   C160      1.0  0.28769  0.99774  0.68670  1.0000
  H   H168      1.0  0.35586  0.23949  0.67524  1.0000
  C   C161      1.0  0.25228  0.26254  0.69236  1.0000
  C   C162      1.0  0.44929  0.04770  0.71119  1.0000
  C   C163      1.0  0.32009  0.27214  0.67559  1.0000
  H   H169      1.0  0.45947  0.03818  0.72081  1.0000
  C   C164      1.0  0.29285  0.31789  0.70160  1.0000
  H   H170      1.0  0.45176  0.06710  0.71905  1.0000
  H   H171      1.0  0.26746  0.13434  0.61308  1.0000
  C   C165      1.0  0.24543  0.12424  0.61591  1.0000
  C   C166      1.0  0.25224  0.28394  0.68125  1.0000
  H   H172      1.0  0.41382  0.01356  0.73594  1.0000
  H   H173      1.0  0.41849  0.04031  0.67724  1.0000
  H   H174      1.0  0.46083  0.05366  0.69764  1.0000
  H   H175      1.0  0.34352  0.10243  0.71696  1.0000
  H   H176      1.0  0.27309  0.25259  0.71633  1.0000
  C   C167      1.0  0.24702  0.12156  0.56395  1.0000
  C   C168      1.0  0.23841  0.09304  0.56598  1.0000
  Fe  Fe27      1.0  0.21739  0.23880  0.57633  1.0000
  C   C169      1.0  0.21825  0.24166  0.52270  1.0000
  H   H177      1.0  0.25304  0.08481  0.56427  1.0000
  S   S56       1.0  0.39332  0.35156  0.74811  1.0000
  S   S57       1.0  0.36951  0.28422  0.75459  1.0000
  S   S58       1.0  0.35286  0.07927  0.75628  1.0000
  C   C170      1.0  0.23085  0.13984  0.61573  1.0000
  S   S59       1.0  0.32203  0.01305  0.72102  1.0000
  S   S60       1.0  0.24863  0.17498  0.60895  1.0000
  S   S61       1.0  0.40063  0.14788  0.73271  1.0000
  Fe  Fe28      1.0  0.39619  0.10924  0.74812  1.0000
  S   S62       1.0  0.36727  0.29162  0.70096  1.0000
  Fe  Fe29      1.0  0.25099  0.00539  0.61318  1.0000
  Fe  Fe30      1.0  0.43649  0.35812  0.75977  1.0000
  H   H178      1.0  0.35464  0.05177  0.69175  1.0000
  C   C171      1.0  0.23158  0.09543  0.61926  1.0000
  C   C172      1.0  0.30117  0.06894  0.70990  1.0000
  H   H179      1.0  0.27301  0.32850  0.67707  1.0000
  H   H180      1.0  0.26677  0.05369  0.64629  1.0000
  Fe  Fe31      1.0  0.42051  0.06930  0.75857  1.0000
  N   N14       1.0  0.29318  0.29669  0.71210  1.0000
  S   S63       1.0  0.29036  0.30441  0.63234  1.0000
  C   C173      1.0  0.37079  0.24850  0.66360  1.0000
  H   H181      1.0  0.37677  0.23268  0.65816  1.0000
  H   H182      1.0  0.31571  0.25150  0.68019  1.0000
  C   C174      1.0  0.32625  0.09217  0.70565  1.0000
  H   H183      1.0  0.26846  0.13577  0.56078  1.0000
  N   N15       1.0  0.35785  0.25695  0.64738  1.0000
  C   C175      1.0  0.30943  0.30086  0.65317  1.0000
  H   H184      1.0  0.33704  0.34558  0.65751  1.0000
  C   C176      1.0  0.40393  0.01190  0.72130  1.0000
  C   C177      1.0  0.34879  0.32276  0.67847  1.0000
  C   C178      1.0  0.27925  0.05589  0.69507  1.0000
  Fe  Fe32      1.0  0.22932  0.20395  0.60653  1.0000
  S   S64       1.0  0.22748  0.22899  0.63264  1.0000
  C   C179      1.0  0.33202  0.32503  0.66270  1.0000
  H   H185      1.0  0.32087  0.28632  0.72937  1.0000
  H   H186      1.0  0.34876  0.11987  0.68330  1.0000
  H   H187      1.0  0.40022  0.19806  0.71989  1.0000
  C   C180      1.0  0.40390  0.20028  0.73576  1.0000
  C   C181      1.0  0.35586  0.29295  0.62822  1.0000
  C   C182      1.0  0.40494  0.17844  0.74606  1.0000
  C   C183      1.0  0.30321  0.27443  0.65997  1.0000
  C   C184      1.0  0.24629  0.24722  0.52298  1.0000
  S   S65       1.0  0.29408  0.02228  0.63005  1.0000
  C   C185      1.0  0.40793  0.22516  0.74585  1.0000
  H   H188      1.0  0.33450  0.32284  0.72579  1.0000
  H   H189      1.0  0.34330  0.05412  0.65615  1.0000
  H   H190      1.0  0.30939  0.09584  0.65740  1.0000
  H   H191      1.0  0.24318  0.08385  0.61958  1.0000
  H   H192      1.0  0.30721  0.30617  0.74254  1.0000
  H   H193      1.0  0.28597  0.25565  0.65277  1.0000
  S   S66       1.0  0.25749  0.24164  0.59016  1.0000
  H   H194      1.0  0.25827  0.25032  0.53693  1.0000
  C   C186      1.0  0.33194  0.27256  0.61728  1.0000
  C   C187      1.0  0.27296  0.26935  0.70790  1.0000
  H   H195      1.0  0.23666  0.24079  0.68872  1.0000
  H   H196      1.0  0.36374  0.31508  0.62553  1.0000
  C   C188      1.0  0.25895  0.05199  0.66121  1.0000
  N   N16       1.0  0.28238  0.06549  0.67645  1.0000
  H   H197      1.0  0.32127  0.27883  0.60602  1.0000
  S   S67       1.0  0.23024  0.03078  0.54270  1.0000
  Fe  Fe33      1.0  0.38960  0.31364  0.73075  1.0000
  C   C189      1.0  0.31486  0.30333  0.72828  1.0000
  C   C190      1.0  0.32111  0.24428  0.62148  1.0000
  C   C191      1.0  0.30101  0.01973  0.65549  1.0000
  Fe  Fe34      1.0  0.35942  0.04654  0.74008  1.0000
  C   C192      1.0  0.31425  0.01658  0.69591  1.0000
  C   C193      1.0  0.36859  0.28476  0.64336  1.0000
  H   H198      1.0  0.24622  0.02908  0.66332  1.0000
  C   C194      1.0  0.27252  0.31182  0.68594  1.0000
  C   C195      1.0  0.34318  0.29621  0.68474  1.0000
  C   C196      1.0  0.32765  0.03842  0.66468  1.0000
  Fe  Fe35      1.0  0.22617  0.01208  0.57263  1.0000
  H   H199      1.0  0.39001  0.26671  0.67077  1.0000
  C   C197      1.0  0.33440  0.23681  0.63669  1.0000
  N   N17       1.0  0.41932  0.02797  0.70676  1.0000
  C   C198      1.0  0.40656  0.02683  0.68855  1.0000
  C   C199      1.0  0.33414  0.03712  0.68484  1.0000
  H   H200      1.0  0.40735  0.24193  0.73776  1.0000
  S   S68       1.0  0.24551  0.04039  0.59989  1.0000
  S   S69       1.0  0.43356  0.32158  0.74081  1.0000
  C   C200      1.0  0.49179  0.06657  0.75808  1.0000
  Fe  Fe36      1.0  0.01508  0.22808  0.90735  1.0000
  H   H201      1.0  0.43153  0.03389  0.80039  1.0000
  S   S70       1.0  0.05108  0.21854  0.91559  1.0000
  Fe  Fe37      1.0  0.20516  0.25066  0.89855  1.0000
  S   S71       1.0  0.24938  0.27750  0.91244  1.0000
  S   S72       1.0  0.17623  0.26896  0.88977  1.0000
  Fe  Fe38      1.0  0.21248  0.19861  0.89524  1.0000
  S   S73       1.0  0.25666  0.22128  0.90874  1.0000
  S   S74       1.0  0.19071  0.15308  0.88388  1.0000
  Fe  Fe39      1.0  0.23981  0.24009  0.93076  1.0000
  S   S75       1.0  0.25644  0.24095  0.96253  1.0000
  Fe  Fe40      1.0  0.26250  0.25642  0.88921  1.0000
  S   S76       1.0  0.30474  0.27623  0.87506  1.0000
  S   S77       1.0  0.19487  0.21478  0.91836  1.0000
  S   S78       1.0  0.21909  0.23230  0.87416  1.0000
  Fe  Fe41      1.0  0.22673  0.03403  0.91391  1.0000
  S   S79       1.0  0.24005  0.07900  0.92388  1.0000
  S   S80       1.0  0.25962  0.01956  0.91590  1.0000
  C   C201      1.0  0.44535  0.07632  0.81168  1.0000
  S   S81       1.0  0.41784  0.10415  0.77586  1.0000
  C   C202      1.0  0.41342  0.22854  0.76634  1.0000
  H   H202      1.0  0.36080  0.02215  0.84279  1.0000
  Fe  Fe42      1.0  0.37421  0.07130  0.78276  1.0000
  S   S82       1.0  0.36076  0.07291  0.81392  1.0000
  N   N18       1.0  0.32035  0.28816  0.94238  1.0000
  C   C203      1.0  0.31109  0.30199  0.95459  1.0000
  N   N19       1.0  0.03695  0.23104  0.98717  1.0000
  Fe  Fe43      1.0  0.37571  0.32197  0.77278  1.0000
  S   S83       1.0  0.41840  0.33086  0.78564  1.0000
  S   S84       1.0  0.33586  0.31451  0.78744  1.0000
  Fe  Fe44      1.0  0.41302  0.29443  0.76581  1.0000
  H   H203      1.0  0.29134  0.22201  0.84942  1.0000
  H   H204      1.0  0.11034  0.22196  0.85675  1.0000
  H   H205      1.0  0.24345  0.01890  0.97207  1.0000
  C   C204      1.0  0.32211  0.26322  0.94875  1.0000
  H   H206      1.0  0.19244  0.25678  0.00381  1.0000
  H   H207      1.0  0.32093  0.25029  0.78701  1.0000
  H   H208      1.0  0.30026  0.33548  0.95782  1.0000
  C   C205      1.0  0.42827  0.04719  0.81098  1.0000
  C   C206      1.0  0.03569  0.22548  0.96584  1.0000
  H   H209      1.0  0.37414  0.05480  0.85662  1.0000
  C   C207      1.0  0.31233  0.02184  0.81794  1.0000
  H   H210      1.0  0.25097  0.04184  0.00549  1.0000
  C   C208      1.0  0.24228  0.00714  0.98498  1.0000
  H   H211      1.0  0.31273  0.35170  0.92406  1.0000
  H   H212      1.0  0.32952  0.32633  0.90207  1.0000
  C   C209      1.0  0.32993  0.04950  0.82539  1.0000
  C   C210      1.0  0.32430  0.05836  0.84343  1.0000
  C   C211      1.0  0.30151  0.03988  0.85395  1.0000
  H   H213      1.0  0.41072  0.16497  0.77468  1.0000
  C   C212      1.0  0.28414  0.01209  0.84665  1.0000
  C   C213      1.0  0.20382  0.13206  0.89515  1.0000
  C   C214      1.0  0.22277  0.14246  0.91185  1.0000
  C   C215      1.0  0.23357  0.12586  0.92048  1.0000
  C   C216      1.0  0.22536  0.09862  0.91261  1.0000
  C   C217      1.0  0.20600  0.08792  0.89608  1.0000
  C   C218      1.0  0.19526  0.10465  0.88736  1.0000
  H   H214      1.0  0.22899  0.16320  0.91829  1.0000
  H   H215      1.0  0.24835  0.13413  0.93335  1.0000
  H   H216      1.0  0.19952  0.06692  0.88995  1.0000
  H   H217      1.0  0.18051  0.09643  0.87449  1.0000
  C   C219      1.0  0.31285  0.28716  0.85068  1.0000
  C   C220      1.0  0.34041  0.29610  0.84522  1.0000
  C   C221      1.0  0.34781  0.30451  0.82599  1.0000
  C   C222      1.0  0.32777  0.30438  0.81198  1.0000
  C   C223      1.0  0.30024  0.29554  0.81746  1.0000
  C   C224      1.0  0.29275  0.28681  0.83664  1.0000
  H   H218      1.0  0.35620  0.29652  0.85593  1.0000
  H   H219      1.0  0.36908  0.31127  0.82205  1.0000
  H   H220      1.0  0.28457  0.29543  0.80680  1.0000
  H   H221      1.0  0.27149  0.28007  0.84058  1.0000
  H   H222      1.0  0.30503  0.29472  0.96916  1.0000
  C   C225      1.0  0.24111  0.24188  0.98474  1.0000
  C   C226      1.0  0.21933  0.24885  0.98532  1.0000
  H   H223      1.0  0.26900  0.23133  0.00221  1.0000
  H   H224      1.0  0.21074  0.25302  0.97182  1.0000
  C   C227      1.0  0.02988  0.25060  0.99419  1.0000
  S   S85       1.0  0.20605  0.01105  0.88479  1.0000
  H   H225      1.0  0.15458  0.21900  0.85493  1.0000
  C   C228      1.0  0.08636  0.23462  0.90918  1.0000
  C   C229      1.0  0.10447  0.22509  0.91758  1.0000
  C   C230      1.0  0.13224  0.23587  0.91211  1.0000
  C   C231      1.0  0.14222  0.25643  0.89822  1.0000
  C   C232      1.0  0.12429  0.26640  0.89011  1.0000
  C   C233      1.0  0.09642  0.25548  0.89550  1.0000
  H   H226      1.0  0.09687  0.20899  0.92820  1.0000
  H   H227      1.0  0.14582  0.22810  0.91850  1.0000
  H   H228      1.0  0.13189  0.28236  0.87938  1.0000
  H   H229      1.0  0.08269  0.26300  0.88895  1.0000
  H   H230      1.0  0.33776  0.07966  0.84941  1.0000
  N   N20       1.0  0.12105  0.16609  0.88512  1.0000
  C   C234      1.0  0.09664  0.16767  0.88631  1.0000
  C   C235      1.0  0.14143  0.18388  0.87372  1.0000
  C   C236      1.0  0.09215  0.18736  0.87578  1.0000
  C   C237      1.0  0.13782  0.20408  0.86325  1.0000
  C   C238      1.0  0.11297  0.20573  0.86426  1.0000
  C   C239      1.0  0.12581  0.14550  0.89616  1.0000
  H   H231      1.0  0.08067  0.15406  0.89565  1.0000
  H   H232      1.0  0.16081  0.18272  0.87289  1.0000
  S   S86       1.0  0.19652  0.99959  0.93155  1.0000
  H   H233      1.0  0.30481  0.24399  0.94092  1.0000
  H   H234      1.0  0.07318  0.18919  0.87722  1.0000
  H   H235      1.0  0.10789  0.13234  0.90490  1.0000
  H   H236      1.0  0.12922  0.13132  0.88586  1.0000
  H   H237      1.0  0.14499  0.15652  0.90648  1.0000
  N   N21       1.0  0.32467  0.22590  0.83189  1.0000
  C   C240      1.0  0.34801  0.22248  0.83034  1.0000
  C   C241      1.0  0.31474  0.23543  0.81648  1.0000
  C   C242      1.0  0.36190  0.22846  0.81295  1.0000
  C   C243      1.0  0.32827  0.24183  0.79896  1.0000
  C   C244      1.0  0.35185  0.23809  0.79720  1.0000
  C   C245      1.0  0.31090  0.21998  0.85043  1.0000
  H   H238      1.0  0.35608  0.21523  0.84261  1.0000
  H   H239      1.0  0.38058  0.22601  0.81165  1.0000
  H   H240      1.0  0.36256  0.24289  0.78372  1.0000
  H   H241      1.0  0.30510  0.19820  0.85457  1.0000
  H   H242      1.0  0.32524  0.23526  0.86238  1.0000
  H   H243      1.0  0.38749  0.03076  0.86295  1.0000
  N   N22       1.0  0.40238  0.05228  0.83690  1.0000
  C   C246      1.0  0.40674  0.03544  0.82378  1.0000
  C   C247      1.0  0.41913  0.08089  0.83774  1.0000
  C   C248      1.0  0.28970  0.00326  0.82857  1.0000
  C   C249      1.0  0.20902  0.25099  0.00350  1.0000
  C   C250      1.0  0.04362  0.21547  0.99994  1.0000
  C   C251      1.0  0.38024  0.03934  0.85056  1.0000
  H   H244      1.0  0.02354  0.26218  0.98406  1.0000
  H   H245      1.0  0.41522  0.09431  0.84777  1.0000
  C   C252      1.0  0.25211  0.23668  0.00248  1.0000
  C   C253      1.0  0.24649  0.02009  0.00395  1.0000
  H   H246      1.0  0.01455  0.20820  0.96060  1.0000
  S   S87       1.0  0.47749  0.40027  0.76833  1.0000
  H   H247      1.0  0.04870  0.19958  0.99437  1.0000
  S   S88       1.0  0.41985  0.25990  0.77962  1.0000
  C   C254      1.0  0.32700  0.29678  0.92377  1.0000
  C   C255      1.0  0.30835  0.32512  0.94826  1.0000
  C   C256      1.0  0.32476  0.31999  0.91702  1.0000
  C   C257      1.0  0.31530  0.33417  0.92934  1.0000
  H   H248      1.0  0.33355  0.28534  0.91387  1.0000
  H   H249      1.0  0.34265  0.26469  0.94560  1.0000
  S   S89       1.0  0.00844  0.26170  0.92266  1.0000
  H   H250      1.0  0.31642  0.01458  0.80419  1.0000
  H   H251      1.0  0.29668  0.23882  0.81781  1.0000
  H   H252      1.0  0.29760  0.04704  0.86782  1.0000
  H   H253      1.0  0.31968  0.26058  0.96480  1.0000
  H   H254      1.0  0.41856  0.20908  0.79248  1.0000
  H   H255      1.0  0.46186  0.08570  0.80162  1.0000
  H   H256      1.0  0.45342  0.11608  0.82537  1.0000
  C   C258      1.0  0.44072  0.09335  0.82507  1.0000
  H   H257      1.0  0.03957  0.24439  0.95759  1.0000
  H   H258      1.0  0.05189  0.21950  0.96188  1.0000
  C   C259      1.0  0.41423  0.20661  0.77665  1.0000
  H   H259      1.0  0.39335  0.01280  0.82302  1.0000
  C   C260      1.0  0.40983  0.18159  0.76658  1.0000
  S   S90       1.0  0.37796  0.03615  0.76724  1.0000
  S   S91       1.0  0.45599  0.05670  0.76305  1.0000
  H   H260      1.0  0.17755  0.00050  0.00134  1.0000
  C   C261      1.0  0.31472  0.91809  0.16796  1.0000
  H   H261      1.0  0.02793  0.52260  0.23831  1.0000
  S   S92       1.0  0.38116  0.90995  0.23877  1.0000
  S   S93       1.0  0.26422  0.89788  0.25513  1.0000
  Fe  Fe45      1.0  0.28547  0.90227  0.22720  1.0000
  S   S94       1.0  0.26023  0.89623  0.19771  1.0000
  S   S95       1.0  0.29898  0.86976  0.23483  1.0000
  H   H262      1.0  0.28984  0.99479  0.18147  1.0000
  C   C262      1.0  0.14523  0.78700  0.24553  1.0000
  S   S96       1.0  0.15089  0.72027  0.23890  1.0000
  C   C263      1.0  0.34127  0.90922  0.19396  1.0000
  H   H263      1.0  0.43447  0.85173  0.23923  1.0000
  C   C264      1.0  0.04854  0.72267  0.17578  1.0000
  Fe  Fe46      1.0  0.04853  0.67248  0.24297  1.0000
  S   S97       1.0  0.01480  0.67595  0.22322  1.0000
  S   S98       1.0  0.07785  0.65777  0.23204  1.0000
  H   H264      1.0  0.34424  0.89479  0.20346  1.0000
  S   S99       1.0  0.18883  0.97513  0.11860  1.0000
  C   C265      1.0  0.33910  0.51389  0.25102  1.0000
  N   N23       1.0  0.33308  0.94634  0.17016  1.0000
  H   H265      1.0  0.23895  0.96557  0.03159  1.0000
  H   H266      1.0  0.28922  0.95795  0.20311  1.0000
  Fe  Fe47      1.0  0.18243  0.95186  0.08937  1.0000
  S   S100      1.0  0.15151  0.90627  0.08112  1.0000
  S   S101      1.0  0.22800  0.96323  0.08746  1.0000
  S   S102      1.0  0.00093  0.74137  0.04819  1.0000
  S   S103      1.0  0.02650  0.85044  0.10606  1.0000
  S   S104      1.0  0.02500  0.77745  0.09923  1.0000
  C   C266      1.0  0.02298  0.63770  0.17618  1.0000
  C   C267      1.0  0.36000  0.93800  0.19602  1.0000
  H   H267      1.0  0.34495  0.97267  0.14595  1.0000
  H   H268      1.0  0.03997  0.59102  0.21064  1.0000
  H   H269      1.0  0.11125  0.76409  0.20452  1.0000
  Fe  Fe48      1.0  0.00309  0.80280  0.10440  1.0000
  C   C268      1.0  0.11619  0.89224  0.08650  1.0000
  C   C269      1.0  0.10608  0.90847  0.09601  1.0000
  C   C270      1.0  0.07813  0.89570  0.10137  1.0000
  C   C271      1.0  0.06048  0.86668  0.09752  1.0000
  C   C272      1.0  0.07055  0.85080  0.08758  1.0000
  C   C273      1.0  0.09820  0.86353  0.08198  1.0000
  H   H270      1.0  0.11985  0.93071  0.09945  1.0000
  H   H271      1.0  0.07040  0.90819  0.10895  1.0000
  H   H272      1.0  0.05718  0.82865  0.08431  1.0000
  H   H273      1.0  0.10593  0.85095  0.07453  1.0000
  C   C274      1.0  0.01969  0.69490  0.20141  1.0000
  S   S105      1.0  0.03030  0.74219  0.14402  1.0000
  H   H274      1.0  0.01832  0.65132  0.16688  1.0000
  C   C275      1.0  0.02532  0.72362  0.16604  1.0000
  H   H275      1.0  0.30319  0.87693  0.17865  1.0000
  C   C276      1.0  0.05370  0.50577  0.25166  1.0000
  N   N24       1.0  0.02453  0.81665  0.03238  1.0000
  H   H276      1.0  0.13423  0.74804  0.20586  1.0000
  C   C277      1.0  0.41288  0.90929  0.24753  1.0000
  Fe  Fe49      1.0  0.00023  0.75004  0.12292  1.0000
  H   H277      1.0  0.05882  0.64294  0.16097  1.0000
  C   C278      1.0  0.04573  0.63307  0.17293  1.0000
  N   N25       1.0  0.01321  0.60935  0.20435  1.0000
  H   H278      1.0  0.12861  0.77092  0.25330  1.0000
  S   S106      1.0  0.05271  0.58155  0.25052  1.0000
  H   H279      1.0  0.41380  0.50290  0.23089  1.0000
  C   C279      1.0  0.22318  0.79411  0.24923  1.0000
  H   H280      1.0  0.04367  0.80045  0.05291  1.0000
  H   H281      1.0  0.06938  0.61226  0.18299  1.0000
  H   H282      1.0  0.42793  0.91326  0.21851  1.0000
  C   C280      1.0  0.26057  0.96539  0.15875  1.0000
  C   C281      1.0  0.24373  0.93683  0.15312  1.0000
  C   C282      1.0  0.24348  0.91598  0.16540  1.0000
  C   C283      1.0  0.25992  0.92337  0.18348  1.0000
  C   C284      1.0  0.27648  0.95191  0.18925  1.0000
  C   C285      1.0  0.06311  0.55513  0.25610  1.0000
  H   H283      1.0  0.23131  0.93083  0.13912  1.0000
  H   H284      1.0  0.23067  0.89398  0.16075  1.0000
  H   H285      1.0  0.20668  0.84296  0.21879  1.0000
  H   H286      1.0  0.06375  0.70774  0.20058  1.0000
  H   H287      1.0  0.11052  0.74226  0.22440  1.0000
  Fe  Fe50      1.0  0.06762  0.62917  0.25750  1.0000
  C   C286      1.0  0.20105  0.76907  0.24025  1.0000
  C   C287      1.0  0.45334  0.54159  0.23603  1.0000
  H   H288      1.0  0.23986  0.80836  0.24065  1.0000
  H   H289      1.0  0.20082  0.76419  0.22472  1.0000
  C   C288      1.0  0.12445  0.75834  0.21452  1.0000
  H   H290      1.0  0.00796  0.59183  0.23269  1.0000
  C   C289      1.0  0.00664  0.62530  0.19190  1.0000
  C   C290      1.0  0.99638  0.59753  0.22117  1.0000
  C   C291      1.0  0.31844  0.89915  0.17990  1.0000
  C   C292      1.0  0.01164  0.82436  0.04615  1.0000
  Fe  Fe51      1.0  0.33921  0.90598  0.24907  1.0000
  N   N26       1.0  0.10620  0.84156  0.12817  1.0000
  C   C293      1.0  0.10978  0.86772  0.13351  1.0000
  C   C294      1.0  0.08305  0.81786  0.13321  1.0000
  C   C295      1.0  0.08919  0.87060  0.14333  1.0000
  C   C296      1.0  0.06214  0.82001  0.14310  1.0000
  C   C297      1.0  0.06508  0.84655  0.14792  1.0000
  C   C298      1.0  0.12767  0.83883  0.11753  1.0000
  H   H291      1.0  0.12815  0.88655  0.12955  1.0000
  H   H292      1.0  0.08027  0.79703  0.12928  1.0000
  H   H293      1.0  0.09144  0.89134  0.14668  1.0000
  H   H294      1.0  0.04350  0.80114  0.14664  1.0000
  C   C299      1.0  0.45771  0.91085  0.23997  1.0000
  H   H295      1.0  0.11764  0.82123  0.10607  1.0000
  H   H296      1.0  0.14061  0.85823  0.10971  1.0000
  H   H297      1.0  0.14180  0.83493  0.12798  1.0000
  N   N27       1.0  0.14638  0.78345  0.22570  1.0000
  C   C300      1.0  0.99920  0.70991  0.17403  1.0000
  C   C301      1.0  0.04578  0.70841  0.19334  1.0000
  C   C302      1.0  0.04652  0.52740  0.24784  1.0000
  C   C303      1.0  0.16789  0.80337  0.21606  1.0000
  H   H298      1.0  0.45978  0.84471  0.21236  1.0000
  C   C304      1.0  0.35557  0.95640  0.18392  1.0000
  C   C305      1.0  0.27676  0.97276  0.17695  1.0000
  H   H299      1.0  0.29654  0.91008  0.15737  1.0000
  C   C306      1.0  0.17910  0.75049  0.25117  1.0000
  C   C307      1.0  0.99643  0.69561  0.19158  1.0000
  C   C308      1.0  0.18923  0.82747  0.22636  1.0000
  H   H300      1.0  0.06879  0.73303  0.16967  1.0000
  C   C309      1.0  0.42951  0.51740  0.24190  1.0000
  C   C310      1.0  0.16623  0.81079  0.25628  1.0000
  S   S107      1.0  0.32623  0.93862  0.23968  1.0000
  H   H301      1.0  0.37760  0.94594  0.20716  1.0000
  C   C311      1.0  0.46408  0.90845  0.25986  1.0000
  C   C312      1.0  0.44780  0.84208  0.24229  1.0000
  C   C313      1.0  0.47942  0.82600  0.23082  1.0000
  C   C314      1.0  0.48273  0.81837  0.24984  1.0000
  C   C315      1.0  0.05163  0.61588  0.18525  1.0000
  C   C316      1.0  0.43240  0.91128  0.23392  1.0000
  H   H302      1.0  0.16893  0.80043  0.20039  1.0000
  H   H303      1.0  0.45560  0.54519  0.22051  1.0000
  C   C317      1.0  0.03491  0.60393  0.20090  1.0000
  H   H304      1.0  0.47227  0.91237  0.22923  1.0000
  H   H305      1.0  0.04842  0.84844  0.15482  1.0000
  C   C318      1.0  0.32941  0.96598  0.15728  1.0000
  C   C319      1.0  0.47421  0.56122  0.24996  1.0000
  H   H306      1.0  0.01812  0.82593  0.06171  1.0000
  C   C320      1.0  0.23970  0.97716  0.01868  1.0000
  C   C321      1.0  0.18839  0.83105  0.24662  1.0000
  C   C322      1.0  0.46199  0.83811  0.22700  1.0000
  H   H307      1.0  0.38354  0.53021  0.25857  1.0000
  H   H308      1.0  0.37011  0.97878  0.18570  1.0000
  H   H309      1.0  0.17951  0.96887  0.02665  1.0000
  H   H310      1.0  0.20534  0.84903  0.25493  1.0000
  S   S108      1.0  0.26391  0.99250  0.14299  1.0000
  C   C323      1.0  0.31240  0.50170  0.25824  1.0000
  H   H311      1.0  0.17017  0.92061  0.01648  1.0000
  H   H312      1.0  0.30792  0.95634  0.14963  1.0000
  N   N28       1.0  0.45114  0.83449  0.26091  1.0000
  Fe  Fe52      1.0  0.11060  0.69188  0.25299  1.0000
  S   S109      1.0  0.18502  0.98745  0.07171  1.0000
  H   H313      1.0  0.34140  0.51716  0.23543  1.0000
  H   H314      1.0  0.49073  0.82293  0.21914  1.0000
  C   C324      1.0  0.04763  0.81096  0.03870  1.0000
  H   H315      1.0  0.06778  0.83093  0.04044  1.0000
  H   H316      1.0  0.04932  0.79609  0.02798  1.0000
  Fe  Fe53      1.0  0.23469  0.98845  0.11595  1.0000
  H   H317      1.0  0.33210  0.98487  0.16600  1.0000
  C   C325      1.0  0.42622  0.51207  0.26190  1.0000
  S   S110      1.0  0.08172  0.70836  0.26243  1.0000
  C   C326      1.0  0.01666  0.81523  0.01274  1.0000
  H   H318      1.0  0.02834  0.70410  0.30315  1.0000
  C   C327      1.0  0.44703  0.53167  0.27583  1.0000
  C   C328      1.0  0.00408  0.86227  0.40611  1.0000
  S   S111      1.0  0.30048  0.96553  0.28601  1.0000
  S   S112      1.0  0.32145  0.90224  0.27895  1.0000
  Fe  Fe54      1.0  0.07113  0.67688  0.28594  1.0000
  S   S113      1.0  0.06960  0.68712  0.31860  1.0000
  S   S114      1.0  0.10273  0.66258  0.27778  1.0000
  Fe  Fe55      1.0  0.23053  0.98267  0.43301  1.0000
  H   H319      1.0  0.08244  0.91127  0.42202  1.0000
  H   H320      1.0  0.08117  0.50330  0.33403  1.0000
  H   H321      1.0  0.22118  0.91050  0.30446  1.0000
  C   C329      1.0  0.47068  0.55604  0.26997  1.0000
  H   H322      1.0  0.07345  0.51449  0.31085  1.0000
  Fe  Fe56      1.0  0.03870  0.80203  0.42484  1.0000
  S   S115      1.0  0.07909  0.83834  0.43825  1.0000
  S   S116      1.0  0.03486  0.75954  0.41756  1.0000
  S   S117      1.0  0.25059  0.83220  0.28105  1.0000
  Fe  Fe57      1.0  0.19068  0.96808  0.39636  1.0000
  S   S118      1.0  0.14710  0.93759  0.38338  1.0000
  S   S119      1.0  0.21670  0.94915  0.40857  1.0000
  C   C330      1.0  0.09924  0.86449  0.42238  1.0000
  C   C331      1.0  0.09090  0.86222  0.40230  1.0000
  C   C332      1.0  0.10611  0.88446  0.39026  1.0000
  C   C333      1.0  0.12975  0.90896  0.39823  1.0000
  C   C334      1.0  0.13848  0.91092  0.41821  1.0000
  C   C335      1.0  0.12321  0.88875  0.43026  1.0000
  H   H323      1.0  0.07258  0.84348  0.39608  1.0000
  H   H324      1.0  0.09952  0.88268  0.37476  1.0000
  H   H325      1.0  0.15670  0.92975  0.42448  1.0000
  H   H326      1.0  0.12979  0.89056  0.44577  1.0000
  C   C336      1.0  0.29952  0.95296  0.34480  1.0000
  C   C337      1.0  0.44465  0.90663  0.27348  1.0000
  H   H327      1.0  0.00154  0.84532  0.43474  1.0000
  C   C338      1.0  0.20828  0.91406  0.35236  1.0000
  S   S120      1.0  0.99265  0.70998  0.45712  1.0000
  Fe  Fe58      1.0  0.25100  0.98082  0.39168  1.0000
  C   C339      1.0  0.33240  0.50395  0.29064  1.0000
  C   C340      1.0  0.05367  0.70596  0.32925  1.0000
  C   C341      1.0  0.05977  0.71435  0.34946  1.0000
  C   C342      1.0  0.04510  0.72617  0.35915  1.0000
  C   C343      1.0  0.02392  0.72954  0.34874  1.0000
  H   H328      1.0  0.05909  0.93327  0.38061  1.0000
  C   C344      1.0  0.03333  0.71045  0.31867  1.0000
  H   H329      1.0  0.47181  0.81773  0.27970  1.0000
  H   H330      1.0  0.06901  0.90737  0.37211  1.0000
  H   H331      1.0  0.09767  0.50057  0.31222  1.0000
  S   S121      1.0  0.00372  0.78597  0.44498  1.0000
  C   C345      1.0  0.22395  0.90191  0.36052  1.0000
  N   N29       1.0  0.04954  0.89916  0.39912  1.0000
  C   C346      1.0  0.01494  0.64891  0.35769  1.0000
  H   H332      1.0  0.27128  0.88748  0.32343  1.0000
  H   H333      1.0  0.05844  0.82009  0.47828  1.0000
  C   C347      1.0  0.29267  0.96346  0.31101  1.0000
  H   H334      1.0  0.08951  0.93240  0.39189  1.0000
  H   H335      1.0  0.16291  0.74268  0.27982  1.0000
  C   C348      1.0  0.20708  0.91694  0.33206  1.0000
  C   C349      1.0  0.06067  0.78134  0.47738  1.0000
  H   H336      1.0  0.22559  0.90026  0.37635  1.0000
  C   C350      1.0  0.23942  0.97795  0.50376  1.0000
  H   H337      1.0  0.18930  0.88599  0.51049  1.0000
  H   H338      1.0  0.23783  0.86344  0.31070  1.0000
  H   H339      1.0  0.42077  0.84542  0.27149  1.0000
  C   C351      1.0  0.22179  0.90776  0.32019  1.0000
  S   S122      1.0  0.03559  0.64179  0.26720  1.0000
  C   C352      1.0  0.30414  0.95207  0.32472  1.0000
  H   H340      1.0  0.20238  0.78648  0.29588  1.0000
  H   H341      1.0  0.45243  0.85678  0.28723  1.0000
  N   N30       1.0  0.23732  0.89609  0.32835  1.0000
  H   H342      1.0  0.31733  0.94340  0.31992  1.0000
  H   H343      1.0  0.48636  0.57068  0.28096  1.0000
  C   C353      1.0  0.01497  0.86067  0.42483  1.0000
  H   H344      1.0  0.24379  0.96036  0.50426  1.0000
  C   C354      1.0  0.17261  0.93196  0.48753  1.0000
  C   C355      1.0  0.27090  0.97550  0.33759  1.0000
  C   C356      1.0  0.02181  0.88163  0.39331  1.0000
  H   H345      1.0  0.37765  0.52085  0.29391  1.0000
  H   H346      1.0  0.16590  0.81291  0.27213  1.0000
  C   C357      1.0  0.00991  0.65986  0.37493  1.0000
  C   C358      1.0  0.06159  0.76032  0.48846  1.0000
  S   S123      1.0  0.01121  0.80083  0.39847  1.0000
  C   C359      1.0  0.06033  0.89786  0.41751  1.0000
  H   H347      1.0  0.17071  0.93894  0.47294  1.0000
  C   C360      1.0  0.09423  0.53910  0.27224  1.0000
  H   H348      1.0  0.19517  0.92662  0.32562  1.0000
  C   C361      1.0  0.27607  0.97521  0.31754  1.0000
  H   H349      1.0  0.19735  0.92151  0.36181  1.0000
  C   C362      1.0  0.05950  0.80387  0.48688  1.0000
  C   C363      1.0  0.23482  0.98719  0.48544  1.0000
  H   H350      1.0  0.06131  0.74212  0.48112  1.0000
  C   C364      1.0  0.01850  0.72207  0.32840  1.0000
  H   H351      1.0  0.07553  0.71106  0.35777  1.0000
  H   H352      1.0  0.25820  0.98468  0.34246  1.0000
  H   H353      1.0  0.42590  0.81999  0.28525  1.0000
  H   H354      1.0  0.25873  0.89850  0.30240  1.0000
  H   H355      1.0  0.10018  0.58180  0.27490  1.0000
  H   H356      1.0  0.44493  0.52802  0.29135  1.0000
  C   C365      1.0  0.17964  0.75690  0.27125  1.0000
  H   H357      1.0  0.30911  0.94474  0.35537  1.0000
  H   H358      1.0  0.05216  0.87674  0.44486  1.0000
  C   C366      1.0  0.22372  0.80055  0.26931  1.0000
  C   C367      1.0  0.06147  0.76222  0.50900  1.0000
  C   C368      1.0  0.43678  0.83932  0.27700  1.0000
  H   H359      1.0  0.44923  0.90498  0.28893  1.0000
  C   C369      1.0  0.20202  0.78173  0.28031  1.0000
  N   N31       1.0  0.30933  0.49700  0.27785  1.0000
  H   H360      1.0  0.40475  0.90549  0.27815  1.0000
  H   H361      1.0  0.03176  0.64334  0.35766  1.0000
  H   H362      1.0  0.06036  0.77995  0.46143  1.0000
  H   H363      1.0  0.25065  0.88367  0.35472  1.0000
  S   S124      1.0  0.23420  0.96842  0.46368  1.0000
  Fe  Fe59      1.0  0.99758  0.74342  0.43595  1.0000
  C   C370      1.0  0.23828  0.89281  0.34822  1.0000
  H   H364      1.0  0.04966  0.73193  0.37475  1.0000
  C   C371      1.0  0.25190  0.88584  0.31562  1.0000
  C   C372      1.0  0.28299  0.96473  0.35135  1.0000
  H   H365      1.0  0.18345  0.90081  0.47685  1.0000
  C   C373      1.0  0.06763  0.91905  0.38529  1.0000
  H   H366      1.0  0.26731  0.98427  0.30703  1.0000
  C   C374      1.0  0.17992  0.91058  0.48975  1.0000
  S   S125      1.0  0.27920  0.96659  0.37692  1.0000
  C   C375      1.0  0.04329  0.87846  0.43057  1.0000
  C   C376      1.0  0.41927  0.90690  0.26741  1.0000
  Fe  Fe60      1.0  0.30558  0.93187  0.26853  1.0000
  H   H367      1.0  0.32992  0.49929  0.30605  1.0000
  H   H368      1.0  0.11290  0.54397  0.28170  1.0000
  C   C377      1.0  0.99427  0.71329  0.48322  1.0000
  C   C378      1.0  0.07790  0.49845  0.31786  1.0000
  H   H369      1.0  0.00414  0.63987  0.32648  1.0000
  C   C379      1.0  0.35941  0.51617  0.28391  1.0000
  C   C380      1.0  0.46859  0.82307  0.26484  1.0000
  C   C381      1.0  0.99936  0.64691  0.34013  1.0000
  C   C382      1.0  0.18345  0.90248  0.50860  1.0000
  S   S126      1.0  0.00167  0.74005  0.36069  1.0000
  C   C383      1.0  0.00008  0.69441  0.49371  1.0000
  C   C384      1.0  0.07772  0.51142  0.26389  1.0000
  C   C385      1.0  0.16961  0.94550  0.50428  1.0000
  H   H370      1.0  0.16508  0.96288  0.50245  1.0000
  H   H371      1.0  0.00287  0.67840  0.48581  1.0000
  H   H372      1.0  0.02287  0.66239  0.38836  1.0000
  C   C386      1.0  0.05922  0.80502  0.50743  1.0000
  C   C387      1.0  0.08706  0.56073  0.26840  1.0000
  Fe  Fe61      1.0  0.00460  0.75666  0.39245  1.0000
  H   H373      1.0  0.00222  0.72464  0.32018  1.0000
  H   H374      1.0  0.00208  0.70444  0.39366  1.0000
  H   H375      1.0  0.01328  0.88239  0.37866  1.0000
  Fe  Fe62      1.0  0.28065  0.86841  0.26383  1.0000
  C   C388      1.0  0.36272  0.52123  0.26399  1.0000
  H   H376      1.0  0.13707  0.91802  0.62017  1.0000
  H   H377      1.0  0.18791  0.95604  0.55178  1.0000
  H   H378      1.0  0.07497  0.80703  0.54619  1.0000
  H   H379      1.0  0.15039  0.93943  0.54628  1.0000
  S   S127      1.0  0.18271  0.99312  0.58287  1.0000
  S   S128      1.0  0.00690  0.71939  0.55092  1.0000
  Fe  Fe63      1.0  0.19252  0.96063  0.59586  1.0000
  S   S129      1.0  0.16335  0.91529  0.58433  1.0000
  S   S130      1.0  0.23582  0.97892  0.58445  1.0000
  Fe  Fe64      1.0  0.01449  0.78847  0.60446  1.0000
  S   S131      1.0  0.01140  0.74545  0.60603  1.0000
  S   S132      1.0  0.04975  0.82820  0.62023  1.0000
  H   H380      1.0  0.00816  0.68189  0.52208  1.0000
  C   C389      1.0  0.03609  0.77829  0.65717  1.0000
  H   H381      1.0  0.05439  0.79188  0.64950  1.0000
  H   H382      1.0  0.26046  0.98481  0.65971  1.0000
  H   H383      1.0  0.06120  0.74527  0.51744  1.0000
  H   H384      1.0  0.09276  0.88350  0.63375  1.0000
  H   H385      1.0  0.00799  0.71725  0.68096  1.0000
  H   H386      1.0  0.05067  0.74836  0.66395  1.0000
  C   C390      1.0  0.18003  0.91629  0.52504  1.0000
  C   C391      1.0  0.03399  0.75392  0.66529  1.0000
  C   C392      1.0  0.99935  0.71665  0.52501  1.0000
  H   H387      1.0  0.36270  0.98139  0.72926  1.0000
  H   H388      1.0  0.18295  0.91011  0.53973  1.0000
  C   C393      1.0  0.13129  0.89188  0.59419  1.0000
  C   C394      1.0  0.11343  0.86595  0.58390  1.0000
  C   C395      1.0  0.08809  0.84646  0.59145  1.0000
  C   C396      1.0  0.08056  0.85262  0.60952  1.0000
  C   C397      1.0  0.09839  0.87856  0.61976  1.0000
  C   C398      1.0  0.12353  0.89820  0.61209  1.0000
  H   H389      1.0  0.11934  0.86084  0.57010  1.0000
  H   H390      1.0  0.07463  0.82652  0.58351  1.0000
  C   C399      1.0  0.05934  0.78592  0.53966  1.0000
  C   C400      1.0  0.01408  0.78478  0.65856  1.0000
  H   H391      1.0  0.01573  0.80354  0.65189  1.0000
  C   C401      1.0  0.01015  0.73654  0.67486  1.0000
  S   S133      1.0  0.99861  0.78320  0.57262  1.0000
  C   C402      1.0  0.23811  0.99110  0.52146  1.0000
  H   H392      1.0  0.03793  0.78158  0.54324  1.0000
  H   H393      1.0  0.17337  0.97347  0.53695  1.0000
  H   H394      1.0  0.06369  0.76994  0.54689  1.0000
  C   C403      1.0  0.17104  0.95240  0.54019  1.0000
  H   H395      1.0  0.27222  0.98166  0.69512  1.0000
  N   N32       1.0  0.17373  0.93784  0.52271  1.0000
  S   S134      1.0  0.20850  0.98471  0.62560  1.0000
  H   H396      1.0  0.24167  0.98380  0.53548  1.0000
  N   N33       1.0  0.06045  0.78447  0.51821  1.0000
  H   H397      1.0  0.33964  0.97793  0.69602  1.0000
  H   H398      1.0  0.05769  0.82227  0.51471  1.0000
  H   H399      1.0  0.99767  0.56022  0.74144  1.0000
  C   C404      1.0  0.00297  0.69632  0.51433  1.0000
  C   C405      1.0  0.36213  0.99164  0.69892  1.0000
  C   C406      1.0  0.99268  0.73528  0.51467  1.0000
  Fe  Fe65      1.0  0.99280  0.73935  0.57443  1.0000
  C   C407      1.0  0.37512  0.99352  0.71760  1.0000
  C   C408      1.0  0.23616  0.96442  0.99969  1.0000
  H   H400      1.0  0.20774  0.93229  0.85308  1.0000
  H   H401      1.0  0.99990  0.71133  0.82885  1.0000
  H   H402      1.0  0.01560  0.73966  0.00849  1.0000
  H   H403      1.0  0.99665  0.74706  0.97622  1.0000
  C   C409      1.0  0.13303  0.92411  0.85385  1.0000
  Fe  Fe66      1.0  0.17871  0.97468  0.90278  1.0000
  S   S135      1.0  0.13106  0.94923  0.89741  1.0000
  S   S136      1.0  0.20813  0.95638  0.90345  1.0000
  Fe  Fe67      1.0  0.01115  0.79158  0.90674  1.0000
  S   S137      1.0  0.05878  0.81657  0.90511  1.0000
  H   H404      1.0  0.02227  0.76362  0.83321  1.0000
  N   N34       1.0  0.15506  0.94940  0.84985  1.0000
  C   C410      1.0  0.11133  0.91260  0.90080  1.0000
  C   C411      1.0  0.12436  0.89604  0.90482  1.0000
  C   C412      1.0  0.10796  0.86673  0.90627  1.0000
  C   C413      1.0  0.07838  0.85371  0.90401  1.0000
  C   C414      1.0  0.06536  0.87035  0.90027  1.0000
  C   C415      1.0  0.08178  0.89961  0.89856  1.0000
  H   H405      1.0  0.14708  0.90569  0.90646  1.0000
  H   H406      1.0  0.11823  0.85403  0.90914  1.0000
  H   H407      1.0  0.04263  0.86063  0.89846  1.0000
  H   H408      1.0  0.07148  0.91222  0.89544  1.0000
  C   C416      1.0  0.01107  0.70643  0.85893  1.0000
  H   H409      1.0  0.16798  0.88630  0.86077  1.0000
  N   N35       1.0  0.02285  0.71956  0.87704  1.0000
  C   C417      1.0  0.03602  0.76460  0.86371  1.0000
  C   C418      1.0  0.03574  0.74830  0.87948  1.0000
  H   H410      1.0  0.23254  0.94295  0.99810  1.0000
  H   H411      1.0  0.15898  0.90444  0.98114  1.0000
  S   S138      1.0  0.23206  0.96229  0.95917  1.0000
  H   H412      1.0  0.19921  0.97245  0.84647  1.0000
  H   H413      1.0  0.04535  0.75880  0.89378  1.0000
  C   C419      1.0  0.99783  0.74373  0.00789  1.0000
  C   C420      1.0  0.16559  0.96918  0.97734  1.0000
  H   H414      1.0  0.02102  0.71291  0.90780  1.0000
  C   C421      1.0  0.15365  0.93255  0.95101  1.0000
  C   C422      1.0  0.15019  0.97363  0.84700  1.0000
  C   C423      1.0  0.01063  0.72203  0.84290  1.0000
  S   S139      1.0  0.99595  0.75055  0.92183  1.0000
  C   C424      1.0  0.13725  0.90096  0.85764  1.0000
  H   H415      1.0  0.16510  0.98325  0.96640  1.0000
  H   H416      1.0  0.00346  0.68164  0.89230  1.0000
  H   H417      1.0  0.04164  0.70029  0.89486  1.0000
  C   C425      1.0  0.02304  0.75130  0.84538  1.0000
  C   C426      1.0  0.16424  0.90384  0.85736  1.0000
  C   C427      1.0  0.18653  0.92961  0.85307  1.0000
  H   H418      1.0  0.17315  0.93549  0.94445  1.0000
  H   H419      1.0  0.11224  0.92210  0.85503  1.0000
  H   H420      1.0  0.04554  0.78734  0.86593  1.0000
  H   H421      1.0  0.11984  0.88126  0.86149  1.0000
  C   C428      1.0  0.23729  0.97929  0.98276  1.0000
  N   N36       1.0  0.16011  0.94240  0.97185  1.0000
  C   C429      1.0  0.02242  0.70279  0.89381  1.0000
  H   H422      1.0  0.13777  0.90989  0.94927  1.0000
  H   H423      1.0  0.14482  0.94426  0.94243  1.0000
  H   H424      1.0  0.00062  0.68362  0.85703  1.0000
  S   S140      1.0  0.25588  0.98735  0.85973  1.0000
  C   C430      1.0  0.17351  0.96126  0.01132  1.0000
  H   H425      1.0  0.02670  0.80894  0.00179  1.0000
  C   C431      1.0  0.18157  0.95233  0.84937  1.0000
  Fe  Fe68      1.0  0.22750  0.98326  0.93160  1.0000
  C   C432      1.0  0.99468  0.82065  0.00650  1.0000
  H   H426      1.0  0.27648  0.98183  0.82276  1.0000
  C   C433      1.0  0.17239  0.97900  0.99712  1.0000
  C   C434      1.0  0.16198  0.92515  0.98561  1.0000
  H   H427      1.0  0.13203  0.96794  0.83607  1.0000
  C   C435      1.0  0.16831  0.93414  0.00558  1.0000
  H   H428      1.0  0.14560  0.98047  0.86125  1.0000
  H   H429      1.0  0.16883  0.99187  0.84166  1.0000
  Fe  Fe69      1.0  0.23736  0.99460  0.88750  1.0000
  Fe  Fe70      1.0  0.95871  0.18636  0.09898  1.0000
  S   S141      1.0  0.94611  0.22020  0.10239  1.0000
  S   S142      1.0  0.93021  0.13920  0.10014  1.0000
  S   S143      1.0  0.96558  0.26227  0.05210  1.0000
  C   C436      1.0  0.75000  0.06265  0.06269  1.0000
  N   N37       1.0  0.92802  0.14612  0.14925  1.0000
  C   C437      1.0  0.98832  0.31451  0.09320  1.0000
  C   C438      1.0  0.93639  0.17428  0.15190  1.0000
  C   C439      1.0  0.87960  0.13549  0.14956  1.0000
  Fe  Fe71      1.0  0.77038  0.03054  0.10618  1.0000
  H   H430      1.0  0.68122  0.02880  0.04847  1.0000
  S   S144      1.0  0.79809  0.07814  0.10834  1.0000
  S   S145      1.0  0.98350  0.20466  0.07279  1.0000
  C   C440      1.0  0.91649  0.18376  0.15297  1.0000
  H   H431      1.0  0.89338  0.10447  0.14615  1.0000
  H   H432      1.0  0.97057  0.28626  0.01395  1.0000
  H   H433      1.0  0.95262  0.32864  0.15141  1.0000
  C   C441      1.0  0.89311  0.12254  0.10058  1.0000
  C   C442      1.0  0.87827  0.09309  0.10154  1.0000
  C   C443      1.0  0.84906  0.07914  0.10347  1.0000
  C   C444      1.0  0.83444  0.09457  0.10457  1.0000
  C   C445      1.0  0.84917  0.12397  0.10328  1.0000
  C   C446      1.0  0.87838  0.13792  0.10124  1.0000
  H   H434      1.0  0.88950  0.08101  0.10101  1.0000
  H   H435      1.0  0.83797  0.05649  0.10443  1.0000
  H   H436      1.0  0.83799  0.13606  0.10408  1.0000
  H   H437      1.0  0.88955  0.16058  0.10053  1.0000
  C   C447      1.0  0.90007  0.12677  0.14843  1.0000
  C   C448      1.0  0.94914  0.13652  0.14805  1.0000
  C   C449      1.0  0.96353  0.24819  0.02791  1.0000
  H   H438      1.0  0.95854  0.18967  0.15297  1.0000
  H   H439      1.0  0.92333  0.20618  0.15462  1.0000
  H   H440      1.0  0.95552  0.13266  0.16296  1.0000
  H   H441      1.0  0.74906  0.06515  0.07846  1.0000
  H   H442      1.0  0.93580  0.27998  0.12303  1.0000
  C   C450      1.0  0.95872  0.22056  0.02468  1.0000
  C   C451      1.0  0.96242  0.29446  0.09908  1.0000
  H   H443      1.0  0.87218  0.17124  0.15211  1.0000
  H   H444      1.0  0.69631  0.06422  0.05969  1.0000
  S   S146      1.0  0.98019  0.25814  0.15299  1.0000
  H   H445      1.0  0.95530  0.20722  0.03691  1.0000
  S   S147      1.0  0.76853  0.99857  0.12755  1.0000
  C   C452      1.0  0.88790  0.16420  0.15167  1.0000
  H   H446      1.0  0.96797  0.15231  0.14114  1.0000
  S   S148      1.0  0.72341  0.01474  0.10510  1.0000
  H   H447      1.0  0.94078  0.11692  0.13838  1.0000
  H   H448      1.0  0.94761  0.27786  0.08859  1.0000
  Fe  Fe72      1.0  0.98570  0.24279  0.12276  1.0000
  C   C453      1.0  0.77605  0.06989  0.05536  1.0000
  H   H449      1.0  0.97950  0.27561  0.19303  1.0000
  Fe  Fe73      1.0  0.97390  0.24020  0.07767  1.0000
  H   H450      1.0  0.85740  0.12008  0.14812  1.0000
  N   N38       1.0  0.97461  0.31669  0.13173  1.0000
  C   C454      1.0  0.69903  0.04516  0.05816  1.0000
  H   H451      1.0  0.69767  0.03590  0.07274  1.0000
  H   H452      1.0  0.95531  0.29745  0.15758  1.0000
  H   H453      1.0  0.79488  0.07767  0.06536  1.0000
  N   N39       1.0  0.72610  0.05236  0.05023  1.0000
  C   C455      1.0  0.96651  0.31871  0.15165  1.0000
  S   S149      1.0  0.76890  0.00479  0.07930  1.0000
  C   C456      1.0  0.95589  0.29581  0.11853  1.0000
  H   H454      1.0  0.98523  0.33138  0.16209  1.0000
  C   C457      1.0  0.77760  0.06688  0.03513  1.0000
  C   C458      1.0  0.72752  0.04990  0.03032  1.0000
  H   H455      1.0  0.79764  0.07218  0.02929  1.0000
  H   H456      1.0  0.70859  0.04169  0.02040  1.0000
  C   C459      1.0  0.75323  0.05696  0.02248  1.0000
  C   C460      1.0  0.68801  0.01101  0.48307  1.0000
  Fe  Fe74      1.0  0.97819  0.23431  0.43711  1.0000
  C   C461      1.0  0.97502  0.22744  0.50226  1.0000
  H   H457      1.0  0.93041  0.25673  0.49661  1.0000
  C   C462      1.0  0.67788  0.01026  0.44748  1.0000
  N   N40       1.0  0.87132  0.04986  0.40839  1.0000
  Fe  Fe75      1.0  0.95425  0.19478  0.40036  1.0000
  S   S150      1.0  0.91683  0.16052  0.38186  1.0000
  S   S151      1.0  0.96028  0.23843  0.40708  1.0000
  Fe  Fe76      1.0  0.78018  0.02462  0.41441  1.0000
  S   S152      1.0  0.73671  0.01153  0.42399  1.0000
  S   S153      1.0  0.81579  0.06747  0.42552  1.0000
  C   C463      1.0  0.89092  0.06753  0.39642  1.0000
  H   H458      1.0  0.70948  0.02919  0.48276  1.0000
  C   C464      1.0  0.88768  0.13569  0.39376  1.0000
  C   C465      1.0  0.86606  0.11229  0.38281  1.0000
  C   C466      1.0  0.84344  0.09138  0.39216  1.0000
  C   C467      1.0  0.84228  0.09390  0.41255  1.0000
  C   C468      1.0  0.86354  0.11765  0.42336  1.0000
  C   C469      1.0  0.88618  0.13839  0.41406  1.0000
  H   H459      1.0  0.86698  0.11016  0.36707  1.0000
  H   H460      1.0  0.82703  0.07335  0.38365  1.0000
  H   H461      1.0  0.86271  0.11981  0.43911  1.0000
  H   H462      1.0  0.90256  0.15640  0.42262  1.0000
  H   H463      1.0  0.68446  0.03261  0.44897  1.0000
  C   C470      1.0  0.93964  0.22666  0.33530  1.0000
  H   H464      1.0  0.89985  0.21544  0.47729  1.0000
  H   H465      1.0  0.96247  0.20584  0.49663  1.0000
  C   C471      1.0  0.91429  0.09225  0.40429  1.0000
  C   C472      1.0  0.74956  0.01435  0.50513  1.0000
  H   H466      1.0  0.75261  0.01076  0.47375  1.0000
  H   H467      1.0  0.93262  0.24775  0.31076  1.0000
  H   H468      1.0  0.95322  0.20862  0.35868  1.0000
  S   S154      1.0  0.96307  0.24289  0.46585  1.0000
  H   H469      1.0  0.84939  0.01795  0.38515  1.0000
  H   H470      1.0  0.87776  0.18367  0.48895  1.0000
  H   H471      1.0  0.91820  0.21756  0.33959  1.0000
  H   H472      1.0  0.84060  0.00670  0.40947  1.0000
  C   C473      1.0  0.74504  0.99944  0.48689  1.0000
  H   H473      1.0  0.88816  0.06305  0.38061  1.0000
  H   H474      1.0  0.85763  0.04326  0.43748  1.0000
  H   H475      1.0  0.64490  0.02787  0.29877  1.0000
  C   C474      1.0  0.95937  0.22166  0.34608  1.0000
  H   H476      1.0  0.89884  0.08642  0.45217  1.0000
  H   H477      1.0  0.98110  0.29083  0.35833  1.0000
  H   H478      1.0  0.92930  0.10675  0.39470  1.0000
  C   C475      1.0  0.97556  0.25508  0.31399  1.0000
  C   C476      1.0  0.89717  0.08094  0.43656  1.0000
  S   S155      1.0  0.96899  0.18968  0.43066  1.0000
  C   C477      1.0  0.64953  0.01520  0.28853  1.0000
  H   H479      1.0  0.76060  0.03715  0.50589  1.0000
  C   C478      1.0  0.87400  0.05646  0.42818  1.0000
  H   H480      1.0  0.93507  0.11842  0.43066  1.0000
  H   H481      1.0  0.97543  0.31488  0.32892  1.0000
  C   C479      1.0  0.91744  0.09890  0.42450  1.0000
  H   H482      1.0  0.66934  0.00793  0.41579  1.0000
  C   C480      1.0  0.94771  0.24346  0.31912  1.0000
  C   C481      1.0  0.89963  0.20113  0.48888  1.0000
  H   H483      1.0  0.91371  0.19253  0.48463  1.0000
  C   C482      1.0  0.98708  0.23379  0.34063  1.0000
  C   C483      1.0  0.98175  0.24939  0.48935  1.0000
  H   H484      1.0  0.67327  0.01871  0.48741  1.0000
  C   C484      1.0  0.84620  0.02474  0.39988  1.0000
  H   H485      1.0  0.82820  0.02927  0.39837  1.0000
  H   H486      1.0  0.98183  0.26857  0.30163  1.0000
  S   S156      1.0  0.76447  0.00393  0.38389  1.0000
  N   N41       1.0  0.90957  0.21607  0.50832  1.0000
  C   C485      1.0  0.92517  0.24482  0.50978  1.0000
  C   C486      1.0  0.64117  0.01301  0.26850  1.0000
  C   C487      1.0  0.66378  0.00089  0.29536  1.0000
  H   H487      1.0  0.67033  0.00233  0.31092  1.0000
  H   H488      1.0  0.63001  0.02396  0.26298  1.0000
  H   H489      1.0  0.68926  0.99741  0.49474  1.0000
  C   C488      1.0  0.66925  0.99646  0.42873  1.0000
  Fe  Fe77      1.0  0.90289  0.30627  0.72915  1.0000
  S   S157      1.0  0.86558  0.31188  0.73639  1.0000
  S   S158      1.0  0.90829  0.29835  0.69687  1.0000
  S   S159      1.0  0.89831  0.27877  0.75439  1.0000
  H   H490      1.0  0.86875  0.03942  0.60870  1.0000
  H   H491      1.0  0.91864  0.10984  0.56646  1.0000
  H   H492      1.0  0.93394  0.26434  0.71200  1.0000
  H   H493      1.0  0.94901  0.28188  0.52927  1.0000
  S   S160      1.0  0.93390  0.34641  0.74614  1.0000
  S   S161      1.0  0.97636  0.24472  0.65575  1.0000
  H   H494      1.0  0.91091  0.20260  0.55662  1.0000
  C   C489      1.0  0.88324  0.46287  0.74727  1.0000
  S   S162      1.0  0.72245  0.14932  0.73342  1.0000
  H   H495      1.0  0.60224  0.06428  0.67276  1.0000
  C   C490      1.0  0.64799  0.48705  0.71523  1.0000
  H   H496      1.0  0.96007  0.24344  0.69533  1.0000
  Fe  Fe78      1.0  0.65492  0.05034  0.73846  1.0000
  S   S163      1.0  0.65608  0.01555  0.71957  1.0000
  S   S164      1.0  0.64975  0.08607  0.72668  1.0000
  N   N42       1.0  0.58531  0.00824  0.71150  1.0000
  H   H497      1.0  0.97833  0.12531  0.61570  1.0000
  Fe  Fe79      1.0  0.77989  0.01829  0.61335  1.0000
  S   S165      1.0  0.82366  0.04700  0.62721  1.0000
  S   S166      1.0  0.75551  0.03837  0.60030  1.0000
  C   C491      1.0  0.81684  0.33462  0.74621  1.0000
  Fe  Fe80      1.0  0.93950  0.18471  0.59166  1.0000
  S   S167      1.0  0.89719  0.15189  0.57800  1.0000
  S   S168      1.0  0.94960  0.22991  0.59698  1.0000
  C   C492      1.0  0.79756  0.21992  0.74537  1.0000
  C   C493      1.0  0.95747  0.11273  0.60831  1.0000
  H   H498      1.0  0.63663  0.48471  0.70106  1.0000
  C   C494      1.0  0.84270  0.07725  0.61405  1.0000
  C   C495      1.0  0.86746  0.09974  0.62294  1.0000
  C   C496      1.0  0.88398  0.12315  0.61219  1.0000
  C   C497      1.0  0.87580  0.12415  0.59247  1.0000
  C   C498      1.0  0.85081  0.10188  0.58370  1.0000
  C   C499      1.0  0.83432  0.07848  0.59444  1.0000
  H   H499      1.0  0.87396  0.09902  0.63815  1.0000
  H   H500      1.0  0.90306  0.14030  0.61913  1.0000
  H   H501      1.0  0.84433  0.10249  0.56846  1.0000
  H   H502      1.0  0.81536  0.06119  0.58739  1.0000
  Fe  Fe81      1.0  0.74137  0.00487  0.57571  1.0000
  H   H503      1.0  0.74466  0.03936  0.68934  1.0000
  H   H504      1.0  0.97810  0.34437  0.67812  1.0000
  H   H505      1.0  0.58017  0.06729  0.70319  1.0000
  S   S169      1.0  0.69702  0.02817  0.63250  1.0000
  C   C500      1.0  0.66860  0.02000  0.69567  1.0000
  C   C501      1.0  0.67157  0.04268  0.68463  1.0000
  C   C502      1.0  0.68017  0.04474  0.66532  1.0000
  C   C503      1.0  0.68663  0.02460  0.65698  1.0000
  H   H506      1.0  0.72786  0.09939  0.72015  1.0000
  S   S170      1.0  0.58279  0.08736  0.74364  1.0000
  H   H507      1.0  0.66692  0.05848  0.69088  1.0000
  H   H508      1.0  0.68200  0.06213  0.65678  1.0000
  H   H509      1.0  0.87079  0.47046  0.73894  1.0000
  C   C504      1.0  0.93675  0.08975  0.61725  1.0000
  Fe  Fe82      1.0  0.89640  0.35113  0.75474  1.0000
  C   C505      1.0  0.91478  0.21468  0.54354  1.0000
  H   H510      1.0  0.79156  0.30649  0.72177  1.0000
  C   C506      1.0  0.92364  0.27944  0.68543  1.0000
  C   C507      1.0  0.93550  0.26540  0.69625  1.0000
  C   C508      1.0  0.95021  0.25346  0.68673  1.0000
  C   C509      1.0  0.53275  0.46128  0.73396  1.0000
  C   C510      1.0  0.94014  0.26810  0.65536  1.0000
  C   C511      1.0  0.92560  0.28020  0.66489  1.0000
  H   H511      1.0  0.94176  0.08459  0.63173  1.0000
  H   H512      1.0  0.94223  0.26973  0.63967  1.0000
  H   H513      1.0  0.91641  0.29088  0.65634  1.0000
  C   C512      1.0  0.50931  0.43679  0.73983  1.0000
  C   C513      1.0  0.92415  0.10387  0.58051  1.0000
  Fe  Fe83      1.0  0.98773  0.23962  0.58025  1.0000
  H   H514      1.0  0.72852  0.05361  0.71876  1.0000
  C   C514      1.0  0.77414  0.19651  0.73573  1.0000
  H   H515      1.0  0.88295  0.06909  0.58260  1.0000
  S   S171      1.0  0.96306  0.18291  0.61930  1.0000
  C   C515      1.0  0.54792  0.07913  0.74999  1.0000
  C   C516      1.0  0.59707  0.04829  0.68347  1.0000
  C   C517      1.0  0.50744  0.43003  0.75964  1.0000
  C   C518      1.0  0.89427  0.42427  0.75428  1.0000
  H   H516      1.0  0.96690  0.13762  0.58283  1.0000
  H   H517      1.0  0.91095  0.47690  0.70531  1.0000
  C   C519      1.0  0.57891  0.02966  0.71447  1.0000
  H   H518      1.0  0.77205  0.25231  0.72718  1.0000
  Fe  Fe84      1.0  0.97549  0.22912  0.62390  1.0000
  S   S172      1.0  0.74383  0.01997  0.54448  1.0000
  C   C520      1.0  0.75178  0.17786  0.74634  1.0000
  H   H519      1.0  0.78576  0.07732  0.65835  1.0000
  C   C521      1.0  0.73576  0.06751  0.70667  1.0000
  H   H520      1.0  0.82740  0.35260  0.73725  1.0000
  C   C522      1.0  0.73974  0.00005  0.52236  1.0000
  Fe  Fe85      1.0  0.68685  0.11349  0.74787  1.0000
  C   C523      1.0  0.67592  0.49234  0.71626  1.0000
  H   H521      1.0  0.88535  0.05704  0.63196  1.0000
  C   C524      1.0  0.88935  0.04995  0.61760  1.0000
  S   S173      1.0  0.88704  0.38846  0.74903  1.0000
  C   C525      1.0  0.79664  0.30851  0.73756  1.0000
  C   C526      1.0  0.95308  0.25516  0.66629  1.0000
  C   C527      1.0  0.98391  0.31838  0.74145  1.0000
  C   C528      1.0  0.53493  0.09421  0.74167  1.0000
  C   C529      1.0  0.98168  0.33394  0.70821  1.0000
  H   H522      1.0  0.54649  0.11095  0.73209  1.0000
  C   C530      1.0  0.98276  0.23338  0.52270  1.0000
  C   C531      1.0  0.87842  0.43487  0.74367  1.0000
  H   H523      1.0  0.74419  0.26017  0.73319  1.0000
  H   H524      1.0  0.77333  0.19285  0.71996  1.0000
  H   H525      1.0  0.53348  0.46633  0.71864  1.0000
  H   H526      1.0  0.89662  0.03411  0.62007  1.0000
  H   H527      1.0  0.61345  0.02498  0.66748  1.0000
  N   N43       1.0  0.91048  0.07409  0.60792  1.0000
  C   C532      1.0  0.76246  0.06795  0.65700  1.0000
  C   C533      1.0  0.93057  0.24399  0.54515  1.0000
  C   C534      1.0  0.58465  0.04996  0.70050  1.0000
  H   H528      1.0  0.75311  0.04465  0.65515  1.0000
  C   C535      1.0  0.95107  0.11971  0.58981  1.0000
  H   H529      1.0  0.61317  0.48125  0.73173  1.0000
  C   C536      1.0  0.55495  0.47944  0.74767  1.0000
  H   H530      1.0  0.75583  0.07465  0.64321  1.0000
  C   C537      1.0  0.63486  0.48525  0.73266  1.0000
  N   N44       1.0  0.75263  0.07639  0.67429  1.0000
  C   C538      1.0  0.75241  0.10165  0.67498  1.0000
  C   C539      1.0  0.74475  0.05951  0.68994  1.0000
  C   C540      1.0  0.74358  0.11032  0.69151  1.0000
  C   C541      1.0  0.76286  0.25861  0.73928  1.0000
  C   C542      1.0  0.73514  0.09306  0.70739  1.0000
  C   C543      1.0  0.90401  0.08089  0.58978  1.0000
  H   H531      1.0  0.75884  0.11511  0.66263  1.0000
  H   H532      1.0  0.98722  0.33901  0.74773  1.0000
  H   H533      1.0  0.74307  0.13021  0.69205  1.0000
  H   H534      1.0  0.89267  0.17813  0.52378  1.0000
  C   C544      1.0  0.67651  0.49364  0.75173  1.0000
  Fe  Fe86      1.0  0.62191  0.08113  0.75154  1.0000
  S   S174      1.0  0.97555  0.19476  0.57310  1.0000
  C   C545      1.0  0.50731  0.08823  0.74580  1.0000
  C   C546      1.0  0.93577  0.25920  0.52820  1.0000
  H   H535      1.0  0.81462  0.23413  0.73703  1.0000
  H   H536      1.0  0.86218  0.42127  0.73259  1.0000
  H   H537      1.0  0.93951  0.25489  0.55943  1.0000
  N   N45       1.0  0.64938  0.48925  0.75060  1.0000
  C   C547      1.0  0.68429  0.00227  0.66818  1.0000
  N   N46       1.0  0.78389  0.28571  0.74880  1.0000
  H   H538      1.0  0.75561  0.24139  0.74972  1.0000
  C   C548      1.0  0.98686  0.33482  0.68827  1.0000
  H   H539      1.0  0.56981  0.03157  0.72785  1.0000
  H   H540      1.0  0.97638  0.21635  0.53255  1.0000
  H   H541      1.0  0.49811  0.10045  0.73942  1.0000
  C   C549      1.0  0.59726  0.00631  0.69475  1.0000
  C   C550      1.0  0.90448  0.20096  0.52489  1.0000
  S   S175      1.0  0.69333  0.07773  0.75845  1.0000
  Fe  Fe87      1.0  0.71979  0.00771  0.61688  1.0000
  H   H542      1.0  0.96893  0.34306  0.71325  1.0000
  C   C551      1.0  0.60332  0.02626  0.68050  1.0000
  H   H543      1.0  0.96146  0.30259  0.74229  1.0000
  H   H544      1.0  0.49245  0.42332  0.72906  1.0000
  H   H545      1.0  0.50928  0.49202  0.75844  1.0000
  C   C552      1.0  0.90409  0.48094  0.76161  1.0000
  N   N47       1.0  0.99118  0.32045  0.72091  1.0000
  C   C553      1.0  0.67498  0.99982  0.68733  1.0000
  S   S176      1.0  0.62434  0.04271  0.76188  1.0000
  H   H546      1.0  0.68653  0.49420  0.70289  1.0000
  C   C554      1.0  0.69021  0.49536  0.73461  1.0000
  C   C555      1.0  0.53251  0.05766  0.76244  1.0000
  Fe  Fe88      1.0  0.95148  0.19298  0.89433  1.0000
  S   S177      1.0  0.94083  0.22361  0.90916  1.0000
  S   S178      1.0  0.91823  0.15214  0.87911  1.0000
  C   C556      1.0  0.96166  0.22654  0.98928  1.0000
  S   S179      1.0  0.96135  0.21162  0.96581  1.0000
  H   H547      1.0  0.91219  0.22456  0.80252  1.0000
  H   H548      1.0  0.89103  0.27780  0.81665  1.0000
  C   C557      1.0  0.87774  0.11813  0.96903  1.0000
  S   S180      1.0  0.82670  0.25505  0.77826  1.0000
  Fe  Fe89      1.0  0.78113  0.03971  0.92054  1.0000
  S   S181      1.0  0.81260  0.08511  0.92814  1.0000
  S   S182      1.0  0.73598  0.02934  0.91475  1.0000
  H   H549      1.0  0.94704  0.32012  0.86042  1.0000
  S   S183      1.0  0.89201  0.32668  0.78222  1.0000
  S   S184      1.0  0.96123  0.31359  0.78975  1.0000
  C   C558      1.0  0.77473  0.07525  0.87321  1.0000
  S   S185      1.0  0.67091  0.06908  0.81398  1.0000
  H   H550      1.0  0.68996  0.02980  0.79924  1.0000
  H   H551      1.0  0.75861  0.05313  0.87496  1.0000
  Fe  Fe90      1.0  0.97058  0.22639  0.93468  1.0000
  H   H552      1.0  0.96921  0.26724  0.97996  1.0000
  C   C559      1.0  0.86767  0.09280  0.95773  1.0000
  H   H553      1.0  0.87807  0.04957  0.93848  1.0000
  C   C560      1.0  0.79863  0.22499  0.76570  1.0000
  H   H554      1.0  0.90687  0.23889  0.87376  1.0000
  H   H555      1.0  0.78190  0.08638  0.88805  1.0000
  H   H556      1.0  0.61889  0.49420  0.76637  1.0000
  C   C561      1.0  0.73933  0.11677  0.85565  1.0000
  H   H557      1.0  0.74680  0.09126  0.81165  1.0000
  H   H558      1.0  0.52878  0.44314  0.78868  1.0000
  S   S186      1.0  0.78075  0.01229  0.89531  1.0000
  C   C562      1.0  0.91517  0.44238  0.76857  1.0000
  H   H559      1.0  0.93621  0.48393  0.78328  1.0000
  C   C563      1.0  0.97718  0.28352  0.84085  1.0000
  H   H560      1.0  0.92513  0.20705  0.86234  1.0000
  C   C564      1.0  0.69174  0.03061  0.81518  1.0000
  C   C565      1.0  0.68312  0.04731  0.82577  1.0000
  C   C566      1.0  0.68567  0.04809  0.84651  1.0000
  C   C567      1.0  0.69695  0.03266  0.85658  1.0000
  H   H561      1.0  0.67898  0.06085  0.85485  1.0000
  H   H562      1.0  0.69866  0.03347  0.87251  1.0000
  H   H563      1.0  0.92808  0.20012  0.82657  1.0000
  H   H564      1.0  0.76843  0.07005  0.83404  1.0000
  C   C568      1.0  0.87139  0.06378  0.93106  1.0000
  C   C569      1.0  0.88802  0.13389  0.89205  1.0000
  C   C570      1.0  0.88382  0.14652  0.90875  1.0000
  C   C571      1.0  0.86001  0.13160  0.91921  1.0000
  C   C572      1.0  0.84048  0.10375  0.91330  1.0000
  C   C573      1.0  0.84443  0.09105  0.89650  1.0000
  C   C574      1.0  0.86812  0.10618  0.88583  1.0000
  H   H565      1.0  0.89903  0.16770  0.91379  1.0000
  H   H566      1.0  0.85708  0.14154  0.93220  1.0000
  H   H567      1.0  0.82958  0.06950  0.89190  1.0000
  H   H568      1.0  0.87132  0.09630  0.87292  1.0000
  C   C575      1.0  0.96736  0.29479  0.85529  1.0000
  C   C576      1.0  0.76111  0.08390  0.84019  1.0000
  C   C577      1.0  0.95150  0.31613  0.82934  1.0000
  C   C578      1.0  0.96205  0.30555  0.81497  1.0000
  S   S187      1.0  0.77279  0.00705  0.94275  1.0000
  H   H569      1.0  0.57017  0.48587  0.77824  1.0000
  H   H570      1.0  0.93820  0.15600  0.94696  1.0000
  C   C579      1.0  0.95775  0.20982  0.00551  1.0000
  H   H571      1.0  0.89063  0.26241  0.84938  1.0000
  N   N48       1.0  0.90029  0.24469  0.82454  1.0000
  C   C580      1.0  0.91055  0.22738  0.81813  1.0000
  C   C581      1.0  0.89833  0.24837  0.84423  1.0000
  C   C582      1.0  0.91955  0.21352  0.83161  1.0000
  C   C583      1.0  0.90728  0.23496  0.85811  1.0000
  C   C584      1.0  0.91789  0.21739  0.85171  1.0000
  Fe  Fe91      1.0  0.92686  0.31889  0.77221  1.0000
  S   S188      1.0  0.97827  0.19324  0.92028  1.0000
  Fe  Fe92      1.0  0.66298  0.07316  0.78105  1.0000
  H   H572      1.0  0.84746  0.07531  0.96052  1.0000
  Fe  Fe93      1.0  0.97913  0.25608  0.89545  1.0000
  C   C585      1.0  0.95450  0.31109  0.84938  1.0000
  H   H573      1.0  0.92761  0.43482  0.77693  1.0000
  C   C586      1.0  0.91999  0.47036  0.77215  1.0000
  H   H574      1.0  0.94200  0.32912  0.82512  1.0000
  C   C587      1.0  0.70278  0.01497  0.82525  1.0000
  H   H575      1.0  0.86556  0.12018  0.98044  1.0000
  H   H576      1.0  0.79330  0.07525  0.86704  1.0000
  N   N49       1.0  0.76279  0.08877  0.86015  1.0000
  H   H577      1.0  0.91122  0.16092  0.97360  1.0000
  C   C588      1.0  0.97490  0.28924  0.82087  1.0000
  C   C589      1.0  0.75303  0.18278  0.76671  1.0000
  Fe  Fe94      1.0  0.73467  0.99968  0.89056  1.0000
  C   C590      1.0  0.90330  0.14098  0.96517  1.0000
  C   C591      1.0  0.96704  0.26490  0.01164  1.0000
  H   H578      1.0  0.72743  0.12067  0.82553  1.0000
  C   C592      1.0  0.73804  0.11237  0.83526  1.0000
  N   N50       1.0  0.88240  0.09051  0.94274  1.0000
  H   H579      1.0  0.54194  0.04577  0.76903  1.0000
  C   C593      1.0  0.77633  0.20633  0.77632  1.0000
  C   C594      1.0  0.96630  0.25419  0.99237  1.0000
  C   C595      1.0  0.90769  0.11272  0.93901  1.0000
  S   S189      1.0  0.65918  0.11151  0.77193  1.0000
  C   C596      1.0  0.70557  0.01597  0.84599  1.0000
  H   H580      1.0  0.77699  0.21015  0.79206  1.0000
  H   H581      1.0  0.72999  0.12879  0.86183  1.0000
  C   C597      1.0  0.89035  0.25842  0.81009  1.0000
  H   H582      1.0  0.90403  0.26516  0.79759  1.0000
  C   C598      1.0  0.74899  0.09586  0.82744  1.0000
  H   H583      1.0  0.75212  0.10760  0.88382  1.0000
  S   S190      1.0  0.97087  0.28954  0.88085  1.0000
  H   H584      1.0  0.87892  0.06725  0.91600  1.0000
  C   C599      1.0  0.75177  0.10465  0.86797  1.0000
  C   C600      1.0  0.79058  0.28824  0.76869  1.0000
  H   H585      1.0  0.91932  0.11114  0.92702  1.0000
  H   H586      1.0  0.86839  0.24377  0.80428  1.0000
  H   H587      1.0  0.84799  0.05319  0.92917  1.0000
  C   C601      1.0  0.91848  0.13824  0.95017  1.0000
  C   C602      1.0  0.55344  0.47238  0.76742  1.0000
  H   H588      1.0  0.98343  0.28119  0.80994  1.0000
  H   H589      1.0  0.62572  0.46590  0.77369  1.0000
  H   H590      1.0  0.95414  0.18842  0.00331  1.0000
  C   C603      1.0  0.63550  0.48775  0.76873  1.0000
  S   S191      1.0  0.98850  0.22482  0.87941  1.0000
  H   H591      1.0  0.81704  0.31552  0.79339  1.0000
  C   C604      1.0  0.52980  0.44809  0.77333  1.0000
  C   C605      1.0  0.50470  0.05135  0.76630  1.0000
  H   H592      1.0  0.84036  0.35724  0.77317  1.0000
  H   H593      1.0  0.49314  0.03453  0.77582  1.0000
  C   C606      1.0  0.81102  0.31392  0.77775  1.0000
  C   C607      1.0  0.82417  0.33724  0.76641  1.0000
  H   H594      1.0  0.73588  0.16863  0.77501  1.0000
  H   H595      1.0  0.78085  0.27012  0.77761  1.0000
  H   H596      1.0  0.75403  0.05422  0.00672  1.0000
  H   H597      1.0  0.70926  0.00205  0.81689  1.0000
  H   H598      1.0  0.98730  0.27113  0.84516  1.0000
  Fe  Fe95      1.0  0.86382  0.28760  0.76310  1.0000
  S   S192      1.0  0.72024  0.99633  0.85792  1.0000
  H   H599      1.0  0.96337  0.83130  0.01583  1.0000
  H   H600      1.0  0.65294  0.97012  0.02058  1.0000
  H   H601      1.0  0.73315  0.83624  0.14352  1.0000
  Fe  Fe96      1.0  0.55473  0.86522  0.24156  1.0000
  S   S193      1.0  0.59987  0.89829  0.24338  1.0000
  S   S194      1.0  0.54372  0.82188  0.22860  1.0000
  Fe  Fe97      1.0  0.58442  0.92659  0.23060  1.0000
  S   S195      1.0  0.60845  0.95808  0.20775  1.0000
  S   S196      1.0  0.53907  0.89247  0.22641  1.0000
  C   C608      1.0  0.69948  0.88528  0.14223  1.0000
  H   H602      1.0  0.52068  0.62455  0.17765  1.0000
  C   C609      1.0  0.71952  0.86124  0.04724  1.0000
  C   C610      1.0  0.66584  0.96374  0.24894  1.0000
  S   S197      1.0  0.58726  0.64299  0.24752  1.0000
  H   H603      1.0  0.98113  0.71037  0.16673  1.0000
  Fe  Fe98      1.0  0.59226  0.68217  0.23319  1.0000
  S   S198      1.0  0.60751  0.69919  0.20309  1.0000
  S   S199      1.0  0.54727  0.67176  0.23714  1.0000
  Fe  Fe99      1.0  0.72372  0.73466  0.12428  1.0000
  S   S200      1.0  0.75165  0.78145  0.12882  1.0000
  S   S201      1.0  0.70694  0.70883  0.15138  1.0000
  Fe  Fe100     1.0  0.73538  0.73603  0.07988  1.0000
  S   S202      1.0  0.76327  0.78277  0.08178  1.0000
  S   S203      1.0  0.73455  0.71272  0.05146  1.0000
  Fe  Fe101     1.0  0.78158  0.77531  0.11006  1.0000
  S   S204      1.0  0.82872  0.79665  0.11779  1.0000
  Fe  Fe102     1.0  0.73054  0.78377  0.10009  1.0000
  S   S205      1.0  0.71067  0.81195  0.09581  1.0000
  S   S206      1.0  0.75543  0.72850  0.10745  1.0000
  S   S207      1.0  0.70082  0.73714  0.09627  1.0000
  Fe  Fe103     1.0  0.76248  0.97116  0.10049  1.0000
  S   S208      1.0  0.71560  0.95195  0.09815  1.0000
  S   S209      1.0  0.78455  0.94462  0.09929  1.0000
  H   H604      1.0  0.54452  0.77076  0.21748  1.0000
  C   C611      1.0  0.72352  0.84990  0.14360  1.0000
  C   C612      1.0  0.74572  0.92712  0.14609  1.0000
  H   H605      1.0  0.65950  0.84730  0.13802  1.0000
  H   H606      1.0  0.83484  0.74685  0.01589  1.0000
  H   H607      1.0  0.77806  0.77376  0.03637  1.0000
  C   C613      1.0  0.74022  0.87921  0.14541  1.0000
  Fe  Fe104     1.0  0.94666  0.75068  0.10565  1.0000
  S   S210      1.0  0.89912  0.73167  0.10673  1.0000
  S   S211      1.0  0.96514  0.72129  0.10052  1.0000
  C   C614      1.0  0.60065  0.63416  0.17583  1.0000
  C   C615      1.0  0.72620  0.72187  0.02813  1.0000
  S   S212      1.0  0.96800  0.77854  0.08118  1.0000
  H   H608      1.0  0.54308  0.65582  0.19327  1.0000
  C   C616      1.0  0.73188  0.84861  0.09720  1.0000
  C   C617      1.0  0.71875  0.86547  0.09535  1.0000
  C   C618      1.0  0.73476  0.89484  0.09629  1.0000
  C   C619      1.0  0.76406  0.90770  0.09914  1.0000
  C   C620      1.0  0.77728  0.89082  0.10113  1.0000
  C   C621      1.0  0.76120  0.86126  0.10021  1.0000
  H   H609      1.0  0.69605  0.85573  0.09305  1.0000
  H   H610      1.0  0.72430  0.90732  0.09437  1.0000
  H   H611      1.0  0.79999  0.90060  0.10325  1.0000
  H   H612      1.0  0.77147  0.84830  0.10172  1.0000
  C   C622      1.0  0.84883  0.77986  0.11180  1.0000
  C   C623      1.0  0.83610  0.75240  0.10327  1.0000
  C   C624      1.0  0.85215  0.73843  0.10081  1.0000
  C   C625      1.0  0.88108  0.75179  0.10668  1.0000
  C   C626      1.0  0.89409  0.77973  0.11429  1.0000
  C   C627      1.0  0.87797  0.79364  0.11693  1.0000
  H   H613      1.0  0.81375  0.74156  0.09919  1.0000
  H   H614      1.0  0.84193  0.71681  0.09493  1.0000
  H   H615      1.0  0.91633  0.79022  0.11891  1.0000
  H   H616      1.0  0.88803  0.81492  0.12345  1.0000
  H   H617      1.0  0.69532  0.92090  0.05355  1.0000
  C   C628      1.0  0.61629  0.80289  0.23850  1.0000
  S   S213      1.0  0.60881  0.70931  0.26132  1.0000
  H   H618      1.0  0.68993  0.89903  0.14171  1.0000
  C   C629      1.0  0.63655  0.70315  0.18975  1.0000
  C   C630      1.0  0.64069  0.71634  0.17171  1.0000
  C   C631      1.0  0.66241  0.71877  0.16002  1.0000
  C   C632      1.0  0.68013  0.70767  0.16609  1.0000
  C   C633      1.0  0.67598  0.69444  0.18414  1.0000
  C   C634      1.0  0.65451  0.69238  0.19598  1.0000
  H   H619      1.0  0.62692  0.72467  0.16666  1.0000
  H   H620      1.0  0.66515  0.72886  0.14617  1.0000
  H   H621      1.0  0.68952  0.68576  0.18902  1.0000
  H   H622      1.0  0.65163  0.68212  0.20977  1.0000
  C   C635      1.0  0.63268  0.95665  0.19159  1.0000
  H   H623      1.0  0.61651  0.64524  0.16560  1.0000
  C   C636      1.0  0.67244  0.97530  0.01400  1.0000
  C   C637      1.0  0.67237  0.95659  0.16585  1.0000
  C   C638      1.0  0.66067  0.93574  0.17963  1.0000
  C   C639      1.0  0.64091  0.93568  0.19235  1.0000
  S   S214      1.0  0.50428  0.59114  0.24138  1.0000
  H   H624      1.0  0.66683  0.91942  0.18041  1.0000
  H   H625      1.0  0.63202  0.91936  0.20270  1.0000
  H   H626      1.0  0.52214  0.62300  0.20409  1.0000
  C   C640      1.0  0.79004  0.77184  0.02472  1.0000
  C   C641      1.0  0.54793  0.75178  0.24438  1.0000
  C   C642      1.0  0.54552  0.77245  0.23341  1.0000
  H   H627      1.0  0.54878  0.73432  0.23692  1.0000
  C   C643      1.0  0.80951  0.74986  0.04764  1.0000
  N   N51       1.0  0.55826  0.62634  0.19035  1.0000
  C   C644      1.0  0.98585  0.74508  0.02541  1.0000
  C   C645      1.0  0.56081  0.60794  0.20277  1.0000
  C   C646      1.0  0.60385  0.61605  0.18879  1.0000
  C   C647      1.0  0.58375  0.60269  0.20228  1.0000
  H   H628      1.0  0.57600  0.65430  0.16737  1.0000
  H   H629      1.0  0.49653  0.80926  0.25295  1.0000
  H   H630      1.0  0.72951  0.94958  0.05129  1.0000
  S   S215      1.0  0.98025  0.77747  0.12953  1.0000
  H   H631      1.0  0.79423  0.72704  0.04774  1.0000
  H   H632      1.0  0.61454  0.80187  0.22252  1.0000
  H   H633      1.0  0.62213  0.61276  0.18854  1.0000
  C   C648      1.0  0.61952  0.78226  0.24860  1.0000
  C   C649      1.0  0.57760  0.63912  0.17684  1.0000
  H   H634      1.0  0.73790  0.93701  0.13498  1.0000
  N   N52       1.0  0.80650  0.73954  0.15368  1.0000
  C   C650      1.0  0.83527  0.75360  0.15595  1.0000
  C   C651      1.0  0.79254  0.71204  0.14657  1.0000
  C   C652      1.0  0.85087  0.74016  0.15092  1.0000
  C   C653      1.0  0.80752  0.69809  0.14112  1.0000
  C   C654      1.0  0.83688  0.71230  0.14334  1.0000
  C   C655      1.0  0.79072  0.75392  0.15963  1.0000
  H   H635      1.0  0.84633  0.77560  0.16112  1.0000
  H   H636      1.0  0.76969  0.70087  0.14481  1.0000
  H   H637      1.0  0.87371  0.75162  0.15208  1.0000
  H   H638      1.0  0.79646  0.67655  0.13496  1.0000
  H   H639      1.0  0.84890  0.70213  0.13862  1.0000
  H   H640      1.0  0.79999  0.77543  0.15399  1.0000
  H   H641      1.0  0.76837  0.74252  0.15362  1.0000
  H   H642      1.0  0.79109  0.75547  0.17594  1.0000
  C   C656      1.0  0.74852  0.87162  0.05044  1.0000
  H   H643      1.0  0.70549  0.83868  0.04673  1.0000
  H   H644      1.0  0.70811  0.74672  0.03937  1.0000
  C   C657      1.0  0.71348  0.73911  0.02631  1.0000
  Fe  Fe105     1.0  0.72126  0.98045  0.12454  1.0000
  H   H645      1.0  0.64038  0.99461  0.24006  1.0000
  H   H646      1.0  0.76293  0.88803  0.14696  1.0000
  S   S216      1.0  0.69314  0.97964  0.05176  1.0000
  H   H647      1.0  0.68132  0.81565  0.13858  1.0000
  C   C658      1.0  0.66409  0.97753  0.16504  1.0000
  H   H648      1.0  0.75706  0.85718  0.05248  1.0000
  H   H649      1.0  0.80456  0.76106  0.05944  1.0000
  Fe  Fe106     1.0  0.54276  0.63364  0.25309  1.0000
  C   C659      1.0  0.54504  0.79555  0.24292  1.0000
  H   H650      1.0  0.54549  0.59777  0.21350  1.0000
  C   C660      1.0  0.53481  0.63264  0.19137  1.0000
  C   C661      1.0  0.64446  0.97758  0.17788  1.0000
  C   C662      1.0  0.69435  0.83832  0.14077  1.0000
  H   H651      1.0  0.78884  0.90899  0.05493  1.0000
  H   H652      1.0  0.74495  0.93555  0.16094  1.0000
  H   H653      1.0  0.70873  0.92912  0.02950  1.0000
  N   N53       1.0  0.72812  0.89646  0.14444  1.0000
  Fe  Fe107     1.0  0.72232  0.98756  0.07909  1.0000
  H   H654      1.0  0.95324  0.75102  0.03783  1.0000
  H   H655      1.0  0.58616  0.58880  0.21260  1.0000
  C   C663      1.0  0.76634  0.90066  0.05179  1.0000
  C   C664      1.0  0.98951  0.82980  0.04045  1.0000
  H   H656      1.0  0.76794  0.93361  0.14321  1.0000
  C   C665      1.0  0.70872  0.88017  0.04556  1.0000
  H   H657      1.0  0.68613  0.87197  0.04327  1.0000
  H   H658      1.0  0.68769  0.97552  0.24448  1.0000
  C   C666      1.0  0.75482  0.91898  0.05017  1.0000
  S   S217      1.0  0.69741  0.95545  0.15036  1.0000
  N   N54       1.0  0.72632  0.90862  0.04725  1.0000
  H   H659      1.0  0.76883  0.94151  0.05188  1.0000
  N   N55       1.0  0.80741  0.76020  0.02819  1.0000
  H   H660      1.0  0.83109  0.75305  0.05154  1.0000
  C   C667      1.0  0.96276  0.75012  0.02448  1.0000
  H   H661      1.0  0.62037  0.76513  0.24052  1.0000
  C   C668      1.0  0.69650  0.98074  0.02596  1.0000
  C   C669      1.0  0.71445  0.92795  0.04527  1.0000
  C   C670      1.0  0.68217  0.85607  0.14023  1.0000
  H   H662      1.0  0.63829  0.99391  0.17712  1.0000
  H   H663      1.0  0.97612  0.68516  0.19763  1.0000
  H   H664      1.0  0.61076  0.83965  0.24114  1.0000
  C   C671      1.0  0.72162  0.98737  0.01708  1.0000
  C   C672      1.0  0.61413  0.82418  0.24914  1.0000
  H   H665      1.0  0.65116  0.95701  0.23543  1.0000
  H   H666      1.0  0.97645  0.57843  0.21620  1.0000
  H   H667      1.0  0.66290  0.94420  0.25596  1.0000
  H   H668      1.0  0.97898  0.83525  0.05153  1.0000
  H   H669      1.0  0.74045  0.99180  0.02618  1.0000
  H   H670      1.0  0.67284  0.99373  0.15458  1.0000
  Fe  Fe108     1.0  0.53438  0.90562  0.25707  1.0000
  S   S218      1.0  0.57904  0.94207  0.26043  1.0000
  C   C673      1.0  0.98089  0.82774  0.02048  1.0000
  Fe  Fe109     1.0  0.98852  0.75128  0.07750  1.0000
  H   H671      1.0  0.98926  0.62939  0.19453  1.0000
  H   H672      1.0  0.99152  0.61332  0.22830  1.0000
  C   C674      1.0  0.64695  0.99619  0.25560  1.0000
  C   C675      1.0  0.82149  0.75657  0.01325  1.0000
  N   N56       1.0  0.66010  0.98148  0.26255  1.0000
  H   H673      1.0  0.79940  0.73812  0.49127  1.0000
  S   S219      1.0  0.62854  0.91716  0.29473  1.0000
  C   C676      1.0  0.62308  0.67593  0.38159  1.0000
  Fe  Fe110     1.0  0.60096  0.66984  0.27623  1.0000
  S   S220      1.0  0.63546  0.67065  0.29785  1.0000
  S   S221      1.0  0.55636  0.65773  0.28282  1.0000
  Fe  Fe111     1.0  0.97538  0.78107  0.41803  1.0000
  S   S222      1.0  0.94602  0.79949  0.42303  1.0000
  S   S223      1.0  0.96647  0.73674  0.41026  1.0000
  Fe  Fe112     1.0  0.72856  0.75399  0.39778  1.0000
  S   S224      1.0  0.77142  0.78765  0.39089  1.0000
  S   S225      1.0  0.68814  0.74376  0.37878  1.0000
  Fe  Fe113     1.0  0.75085  0.74651  0.43924  1.0000
  S   S226      1.0  0.79490  0.77945  0.43500  1.0000
  S   S227      1.0  0.74375  0.72150  0.46680  1.0000
  Fe  Fe114     1.0  0.77489  0.80424  0.42208  1.0000
  S   S228      1.0  0.79000  0.84872  0.43417  1.0000
  Fe  Fe115     1.0  0.78752  0.75966  0.40451  1.0000
  S   S229      1.0  0.81709  0.74582  0.39161  1.0000
  S   S230      1.0  0.73115  0.77251  0.42843  1.0000
  S   S231      1.0  0.74422  0.72470  0.40927  1.0000
  Fe  Fe116     1.0  0.76304  0.96565  0.39760  1.0000
  S   S232      1.0  0.71864  0.94823  0.40592  1.0000
  S   S233      1.0  0.77541  0.93676  0.38147  1.0000
  H   H674      1.0  0.67344  0.68443  0.39623  1.0000
  H   H675      1.0  0.60210  0.83962  0.29402  1.0000
  H   H676      1.0  0.59990  0.85480  0.27148  1.0000
  H   H677      1.0  0.60997  0.67959  0.37003  1.0000
  C   C677      1.0  0.78831  0.87395  0.41902  1.0000
  C   C678      1.0  0.78980  0.89833  0.42792  1.0000
  C   C679      1.0  0.78626  0.91789  0.41647  1.0000
  C   C680      1.0  0.78193  0.91355  0.39598  1.0000
  C   C681      1.0  0.78162  0.88976  0.38698  1.0000
  C   C682      1.0  0.78440  0.86974  0.39849  1.0000
  H   H678      1.0  0.79295  0.90172  0.44379  1.0000
  H   H679      1.0  0.78669  0.93616  0.42357  1.0000
  H   H680      1.0  0.77859  0.88646  0.37110  1.0000
  H   H681      1.0  0.78357  0.85115  0.39151  1.0000
  C   C683      1.0  0.91054  0.78475  0.41347  1.0000
  C   C684      1.0  0.89419  0.79697  0.41961  1.0000
  C   C685      1.0  0.86564  0.78548  0.41285  1.0000
  C   C686      1.0  0.85324  0.76177  0.39971  1.0000
  C   C687      1.0  0.86971  0.74981  0.39332  1.0000
  C   C688      1.0  0.89823  0.76115  0.40024  1.0000
  H   H682      1.0  0.90358  0.81531  0.42978  1.0000
  H   H683      1.0  0.85323  0.79496  0.41780  1.0000
  H   H684      1.0  0.86028  0.73151  0.38311  1.0000
  H   H685      1.0  0.91065  0.75165  0.39533  1.0000
  N   N57       1.0  0.83048  0.75017  0.47064  1.0000
  N   N58       1.0  0.67863  0.99592  0.46365  1.0000
  C   C689      1.0  0.72070  0.95564  0.50293  1.0000
  C   C690      1.0  0.85840  0.73534  0.44355  1.0000
  N   N59       1.0  0.61492  0.82472  0.26928  1.0000
  H   H686      1.0  0.54549  0.81499  0.27098  1.0000
  C   C691      1.0  0.74237  0.73494  0.49052  1.0000
  C   C692      1.0  0.73980  0.75937  0.49304  1.0000
  H   H687      1.0  0.61889  0.80502  0.29526  1.0000
  C   C693      1.0  0.62080  0.78329  0.26914  1.0000
  H   H688      1.0  0.73889  0.77069  0.48033  1.0000
  H   H689      1.0  0.68884  0.64002  0.34954  1.0000
  H   H690      1.0  0.70411  0.66770  0.38174  1.0000
  C   C694      1.0  0.65216  0.69520  0.31843  1.0000
  C   C695      1.0  0.63843  0.70779  0.32806  1.0000
  C   C696      1.0  0.65046  0.72371  0.34604  1.0000
  C   C697      1.0  0.67634  0.72732  0.35463  1.0000
  C   C698      1.0  0.69072  0.71587  0.34453  1.0000
  C   C699      1.0  0.67863  0.69986  0.32657  1.0000
  H   H691      1.0  0.61806  0.70442  0.32203  1.0000
  H   H692      1.0  0.63921  0.73261  0.35363  1.0000
  H   H693      1.0  0.71073  0.71861  0.35083  1.0000
  H   H694      1.0  0.68951  0.69034  0.31922  1.0000
  H   H695      1.0  0.80426  0.76801  0.47754  1.0000
  C   C700      1.0  0.64238  0.93595  0.31798  1.0000
  C   C701      1.0  0.63047  0.95066  0.32730  1.0000
  H   H696      1.0  0.74541  0.70152  0.50543  1.0000
  C   C702      1.0  0.66747  0.96679  0.35446  1.0000
  C   C703      1.0  0.67926  0.95198  0.34514  1.0000
  C   C704      1.0  0.66680  0.93671  0.32702  1.0000
  H   H697      1.0  0.61168  0.95027  0.32055  1.0000
  C   C705      1.0  0.66628  0.67168  0.38247  1.0000
  H   H698      1.0  0.69807  0.95237  0.35185  1.0000
  H   H699      1.0  0.67625  0.92547  0.31996  1.0000
  H   H700      1.0  0.54887  0.77807  0.29037  1.0000
  C   C706      1.0  0.97897  0.65579  0.33998  1.0000
  C   C707      1.0  0.98634  0.68175  0.39256  1.0000
  C   C708      1.0  0.63234  0.65037  0.35525  1.0000
  C   C709      1.0  0.74355  0.72051  0.50723  1.0000
  C   C710      1.0  0.64302  0.96605  0.34542  1.0000
  C   C711      1.0  0.73032  0.97001  0.48569  1.0000
  H   H701      1.0  0.89630  0.76329  0.46119  1.0000
  C   C712      1.0  0.82930  0.72450  0.44099  1.0000
  S   S234      1.0  0.72196  0.95063  0.46273  1.0000
  H   H702      1.0  0.72063  0.86306  0.37381  1.0000
  C   C713      1.0  0.99050  0.73384  0.49374  1.0000
  C   C714      1.0  0.85914  0.76135  0.47304  1.0000
  C   C715      1.0  0.54931  0.75381  0.26496  1.0000
  C   C716      1.0  0.87352  0.75409  0.45953  1.0000
  C   C717      1.0  0.68374  0.66228  0.37433  1.0000
  C   C718      1.0  0.54799  0.77651  0.27445  1.0000
  H   H703      1.0  0.60922  0.66028  0.39166  1.0000
  C   C719      1.0  0.71908  0.83562  0.41746  1.0000
  S   S235      1.0  0.55365  0.72911  0.27939  1.0000
  C   C720      1.0  0.72304  0.84328  0.43762  1.0000
  C   C721      1.0  0.72354  0.86831  0.44391  1.0000
  H   H704      1.0  0.63599  0.69650  0.38998  1.0000
  H   H705      1.0  0.67174  0.95645  0.47443  1.0000
  H   H706      1.0  0.71932  0.81647  0.41263  1.0000
  H   H707      1.0  0.61270  0.64633  0.34731  1.0000
  H   H708      1.0  0.72676  0.83039  0.44816  1.0000
  H   H709      1.0  0.72734  0.87492  0.45945  1.0000
  C   C722      1.0  0.64924  0.64060  0.34670  1.0000
  C   C723      1.0  0.66234  0.95347  0.44316  1.0000
  H   H710      1.0  0.86934  0.72987  0.43282  1.0000
  H   H711      1.0  0.87110  0.77604  0.48538  1.0000
  C   C724      1.0  0.97459  0.66677  0.35746  1.0000
  H   H712      1.0  0.71441  0.89072  0.39926  1.0000
  H   H713      1.0  0.95992  0.67522  0.35698  1.0000
  H   H714      1.0  0.70919  0.93286  0.50211  1.0000
  C   C725      1.0  0.71993  0.88523  0.43007  1.0000
  N   N60       1.0  0.64112  0.66597  0.37279  1.0000
  C   C726      1.0  0.81557  0.73207  0.45482  1.0000
  C   C727      1.0  0.71232  0.84429  0.38289  1.0000
  Fe  Fe117     1.0  0.73803  0.97313  0.43470  1.0000
  Fe  Fe118     1.0  0.59205  0.91133  0.27304  1.0000
  H   H715      1.0  0.65725  0.93148  0.44164  1.0000
  H   H716      1.0  0.82962  0.77191  0.49726  1.0000
  C   C728      1.0  0.67516  0.64673  0.35630  1.0000
  H   H717      1.0  0.67947  0.97247  0.28760  1.0000
  C   C729      1.0  0.61271  0.84721  0.28023  1.0000
  C   C730      1.0  0.61856  0.80485  0.27931  1.0000
  H   H718      1.0  0.63396  0.86529  0.28402  1.0000
  C   C731      1.0  0.81538  0.75751  0.48492  1.0000
  N   N61       1.0  0.71627  0.85268  0.40395  1.0000
  H   H719      1.0  0.79294  0.72361  0.45270  1.0000
  H   H720      1.0  0.81753  0.71090  0.42810  1.0000
  S   S236      1.0  0.54750  0.87585  0.27194  1.0000
  C   C732      1.0  0.66895  0.98405  0.28208  1.0000
  C   C733      1.0  0.71627  0.87702  0.41000  1.0000
  H   H721      1.0  0.72084  0.90499  0.43485  1.0000
  H   H722      1.0  0.72406  0.83264  0.37950  1.0000
  H   H723      1.0  0.64277  0.62948  0.33230  1.0000
  H   H724      1.0  0.68964  0.83052  0.37852  1.0000
  S   S237      1.0  0.78233  0.98750  0.42714  1.0000
  C   C734      1.0  0.66161  0.96793  0.42659  1.0000
  H   H725      1.0  0.63368  0.97738  0.35251  1.0000
  C   C735      1.0  0.73746  0.76869  0.51200  1.0000
  C   C736      1.0  0.54609  0.79744  0.26350  1.0000
  H   H726      1.0  0.98581  0.74843  0.48580  1.0000
  C   C737      1.0  0.67072  0.96781  0.46171  1.0000
  Fe  Fe119     1.0  0.72092  0.98771  0.39428  1.0000
  H   H727      1.0  0.96505  0.68009  0.39231  1.0000
  S   S238      1.0  0.49496  0.90609  0.26847  1.0000
  H   H728      1.0  0.98211  0.84817  0.40147  1.0000
  H   H729      1.0  0.65571  0.95724  0.41204  1.0000
  S   S239      1.0  0.68278  0.98667  0.37718  1.0000
  Fe  Fe120     1.0  0.56371  0.69616  0.26619  1.0000
  N   N62       1.0  0.98979  0.66842  0.37468  1.0000
  H   H730      1.0  0.62250  0.76693  0.27717  1.0000
  H   H731      1.0  0.96771  0.65560  0.32622  1.0000
  H   H732      1.0  0.98921  0.67179  0.40602  1.0000
  Fe  Fe121     1.0  0.91609  0.59878  0.72703  1.0000
  S   S240      1.0  0.88250  0.55325  0.72591  1.0000
  S   S241      1.0  0.94457  0.61814  0.70176  1.0000
  Fe  Fe122     1.0  0.85690  0.56944  0.74168  1.0000
  H   H733      1.0  0.78869  0.90818  0.58225  1.0000
  H   H734      1.0  0.79327  0.63283  0.71936  1.0000
  S   S242      1.0  0.88935  0.61472  0.74056  1.0000
  H   H735      1.0  0.56103  0.56668  0.75171  1.0000
  Fe  Fe123     1.0  0.67579  0.60334  0.73525  1.0000
  H   H736      1.0  0.94886  0.75763  0.65839  1.0000
  S   S243      1.0  0.70301  0.62931  0.71102  1.0000
  C   C738      1.0  0.94206  0.51135  0.72438  1.0000
  H   H737      1.0  0.57001  0.99111  0.73915  1.0000
  C   C739      1.0  0.77404  0.88775  0.57529  1.0000
  H   H738      1.0  0.73466  0.78715  0.51371  1.0000
  S   S244      1.0  0.66498  0.55754  0.73648  1.0000
  Fe  Fe124     1.0  0.72613  0.73474  0.62421  1.0000
  S   S245      1.0  0.76682  0.76734  0.63948  1.0000
  S   S246      1.0  0.69138  0.70398  0.64259  1.0000
  Fe  Fe125     1.0  0.74454  0.75835  0.58328  1.0000
  S   S247      1.0  0.78712  0.79121  0.59625  1.0000
  S   S248      1.0  0.73306  0.76576  0.55193  1.0000
  Fe  Fe126     1.0  0.78642  0.75698  0.61461  1.0000
  S   S249      1.0  0.82248  0.74927  0.62469  1.0000
  Fe  Fe127     1.0  0.76347  0.79859  0.61965  1.0000
  S   S250      1.0  0.77752  0.84404  0.62984  1.0000
  S   S251      1.0  0.74573  0.72288  0.59981  1.0000
  S   S252      1.0  0.72088  0.76713  0.60637  1.0000
  C   C740      1.0  0.78614  0.55781  0.74390  1.0000
  S   S253      1.0  0.97161  0.77364  0.61546  1.0000
  H   H739      1.0  0.71229  0.85490  0.54801  1.0000
  C   C741      1.0  0.73628  0.83492  0.55848  1.0000
  H   H740      1.0  0.97231  0.79468  0.66299  1.0000
  Fe  Fe128     1.0  0.73139  0.95940  0.60457  1.0000
  S   S254      1.0  0.71272  0.91165  0.60350  1.0000
  S   S255      1.0  0.94088  0.70428  0.63959  1.0000
  Fe  Fe129     1.0  0.95541  0.76451  0.58379  1.0000
  S   S256      1.0  0.94836  0.72011  0.58324  1.0000
  S   S257      1.0  0.92126  0.77311  0.57041  1.0000
  H   H741      1.0  0.67268  0.98214  0.69572  1.0000
  H   H742      1.0  0.52849  0.51596  0.74050  1.0000
  C   C742      1.0  0.73837  0.75416  0.52870  1.0000
  C   C743      1.0  0.74186  0.73022  0.52627  1.0000
  H   H743      1.0  0.74227  0.71867  0.53896  1.0000
  C   C744      1.0  0.85114  0.75961  0.61011  1.0000
  C   C745      1.0  0.84997  0.76757  0.59080  1.0000
  C   C746      1.0  0.87201  0.77252  0.57882  1.0000
  C   C747      1.0  0.89523  0.76960  0.58615  1.0000
  C   C748      1.0  0.89663  0.76240  0.60561  1.0000
  C   C749      1.0  0.87467  0.75744  0.61755  1.0000
  H   H744      1.0  0.83187  0.76932  0.58498  1.0000
  H   H745      1.0  0.87090  0.77820  0.56378  1.0000
  H   H746      1.0  0.91420  0.75982  0.61134  1.0000
  H   H747      1.0  0.87561  0.75123  0.63246  1.0000
  C   C750      1.0  0.75915  0.86248  0.62250  1.0000
  C   C751      1.0  0.73230  0.84868  0.61266  1.0000
  C   C752      1.0  0.71824  0.86402  0.60719  1.0000
  C   C753      1.0  0.73100  0.89330  0.61123  1.0000
  C   C754      1.0  0.75796  0.90716  0.62090  1.0000
  C   C755      1.0  0.77185  0.89173  0.62666  1.0000
  H   H748      1.0  0.72234  0.82620  0.60929  1.0000
  H   H749      1.0  0.69740  0.85318  0.59968  1.0000
  H   H750      1.0  0.76795  0.92969  0.62413  1.0000
  H   H751      1.0  0.79260  0.90255  0.63430  1.0000
  C   C756      1.0  0.69896  0.64978  0.69206  1.0000
  C   C757      1.0  0.67419  0.65164  0.68828  1.0000
  C   C758      1.0  0.67209  0.66794  0.67292  1.0000
  C   C759      1.0  0.69471  0.68274  0.66122  1.0000
  C   C760      1.0  0.71951  0.68100  0.66507  1.0000
  C   C761      1.0  0.72155  0.66461  0.68034  1.0000
  H   H752      1.0  0.65659  0.64035  0.69708  1.0000
  H   H753      1.0  0.65277  0.66905  0.67010  1.0000
  H   H754      1.0  0.73712  0.69221  0.65624  1.0000
  H   H755      1.0  0.74080  0.66332  0.68306  1.0000
  S   S258      1.0  0.93547  0.59599  0.75659  1.0000
  C   C762      1.0  0.94305  0.64186  0.68444  1.0000
  C   C763      1.0  0.96271  0.65169  0.67000  1.0000
  C   C764      1.0  0.96226  0.67046  0.65599  1.0000
  C   C765      1.0  0.94207  0.67970  0.65625  1.0000
  N   N63       1.0  0.75000  0.88390  0.56482  1.0000
  C   C766      1.0  0.92292  0.65117  0.68469  1.0000
  C   C767      1.0  0.79479  0.63116  0.73518  1.0000
  C   C768      1.0  0.73131  0.85795  0.55634  1.0000
  H   H756      1.0  0.90764  0.64384  0.69564  1.0000
  C   C769      1.0  0.76372  0.56058  0.73472  1.0000
  S   S259      1.0  0.81305  0.55971  0.72950  1.0000
  H   H757      1.0  0.71199  0.49958  0.73564  1.0000
  C   C770      1.0  0.95133  0.55737  0.71629  1.0000
  C   C771      1.0  0.74472  0.90788  0.56193  1.0000
  H   H758      1.0  0.92841  0.56038  0.69022  1.0000
  Fe  Fe130     1.0  0.62522  0.55007  0.75045  1.0000
  H   H759      1.0  0.75570  0.92458  0.57394  1.0000
  H   H760      1.0  0.75191  0.91702  0.54758  1.0000
  H   H761      1.0  0.96966  0.72960  0.68287  1.0000
  H   H762      1.0  0.68901  0.98653  0.66191  1.0000
  H   H763      1.0  0.75588  0.63186  0.73944  1.0000
  H   H764      1.0  0.71766  0.95936  0.53436  1.0000
  H   H765      1.0  0.90206  0.50850  0.68313  1.0000
  H   H766      1.0  0.90676  0.67690  0.67111  1.0000
  C   C772      1.0  0.51978  0.51467  0.75509  1.0000
  C   C773      1.0  0.57965  0.98719  0.72626  1.0000
  H   H767      1.0  0.79816  0.86793  0.58667  1.0000
  N   N64       1.0  0.72496  0.76676  0.67984  1.0000
  C   C774      1.0  0.74762  0.79314  0.68041  1.0000
  C   C775      1.0  0.70046  0.76097  0.66912  1.0000
  C   C776      1.0  0.74592  0.81468  0.67038  1.0000
  C   C777      1.0  0.69820  0.78190  0.65863  1.0000
  C   C778      1.0  0.72109  0.80895  0.65936  1.0000
  C   C779      1.0  0.72777  0.74431  0.68979  1.0000
  H   H768      1.0  0.76738  0.79749  0.68829  1.0000
  H   H769      1.0  0.68268  0.73989  0.66825  1.0000
  H   H770      1.0  0.76408  0.83548  0.67054  1.0000
  H   H771      1.0  0.67903  0.77700  0.64970  1.0000
  H   H772      1.0  0.71987  0.82534  0.65107  1.0000
  H   H773      1.0  0.70691  0.72600  0.69181  1.0000
  H   H774      1.0  0.73961  0.73676  0.68077  1.0000
  H   H775      1.0  0.73905  0.75195  0.70461  1.0000
  N   N65       1.0  0.82685  0.69282  0.59632  1.0000
  C   C780      1.0  0.84504  0.69841  0.58187  1.0000
  C   C781      1.0  0.83352  0.68708  0.61478  1.0000
  C   C782      1.0  0.87068  0.69831  0.58570  1.0000
  C   C783      1.0  0.85900  0.68680  0.61911  1.0000
  C   C784      1.0  0.87761  0.69238  0.60444  1.0000
  C   C785      1.0  0.79978  0.69231  0.59169  1.0000
  H   H776      1.0  0.84016  0.70375  0.56742  1.0000
  H   H777      1.0  0.81944  0.68338  0.62638  1.0000
  H   H778      1.0  0.88548  0.70375  0.57438  1.0000
  H   H779      1.0  0.86461  0.68280  0.63382  1.0000
  H   H780      1.0  0.89762  0.69268  0.60773  1.0000
  H   H781      1.0  0.78533  0.67299  0.58254  1.0000
  H   H782      1.0  0.78954  0.69296  0.60527  1.0000
  H   H783      1.0  0.80291  0.71119  0.58368  1.0000
  S   S260      1.0  0.58281  0.51140  0.73946  1.0000
  C   C786      1.0  0.77963  0.86515  0.57775  1.0000
  H   H784      1.0  0.96234  0.58001  0.71946  1.0000
  H   H785      1.0  0.97347  0.56905  0.75334  1.0000
  C   C787      1.0  0.81727  0.62860  0.74436  1.0000
  H   H786      1.0  0.72548  0.56287  0.73851  1.0000
  S   S261      1.0  0.74519  0.98928  0.63154  1.0000
  C   C788      1.0  0.93219  0.54638  0.69968  1.0000
  C   C789      1.0  0.72553  0.97057  0.52123  1.0000
  H   H787      1.0  0.72139  0.81421  0.55194  1.0000
  C   C790      1.0  0.76059  0.83863  0.56928  1.0000
  N   N66       1.0  0.95570  0.53985  0.72855  1.0000
  C   C791      1.0  0.96689  0.77345  0.66820  1.0000
  Fe  Fe131     1.0  0.96699  0.72990  0.61472  1.0000
  S   S262      1.0  0.63449  0.59533  0.74679  1.0000
  H   H788      1.0  0.97747  0.67773  0.64500  1.0000
  S   S263      1.0  0.70317  0.97580  0.59096  1.0000
  C   C792      1.0  0.74232  0.56016  0.74570  1.0000
  C   C793      1.0  0.77379  0.63056  0.74646  1.0000
  H   H789      1.0  0.76323  0.56365  0.71907  1.0000
  H   H790      1.0  0.59967  0.98779  0.73185  1.0000
  H   H791      1.0  0.96022  0.77244  0.68341  1.0000
  H   H792      1.0  0.72193  0.90132  0.56240  1.0000
  C   C794      1.0  0.91746  0.51729  0.69570  1.0000
  H   H793      1.0  0.83304  0.62810  0.73543  1.0000
  H   H794      1.0  0.76451  0.82088  0.57120  1.0000
  C   C795      1.0  0.92246  0.66992  0.67069  1.0000
  H   H795      1.0  0.98984  0.75112  0.52275  1.0000
  S   S264      1.0  0.76861  0.98681  0.58777  1.0000
  C   C796      1.0  0.97586  0.55187  0.74587  1.0000
  C   C797      1.0  0.98855  0.74370  0.67599  1.0000
  C   C798      1.0  0.92246  0.49960  0.70807  1.0000
  H   H796      1.0  0.50374  0.52196  0.75404  1.0000
  H   H797      1.0  0.60299  0.98974  0.69264  1.0000
  H   H798      1.0  0.56518  0.96577  0.71963  1.0000
  Fe  Fe132     1.0  0.89993  0.55099  0.75632  1.0000
  H   H799      1.0  0.97836  0.64462  0.66960  1.0000
  N   N67       1.0  0.99062  0.76745  0.66778  1.0000
  H   H800      1.0  0.97193  0.53591  0.75704  1.0000
  H   H801      1.0  0.94559  0.49742  0.73404  1.0000
  C   C799      1.0  0.63769  0.73139  0.91685  1.0000
  C   C800      1.0  0.58426  0.56605  0.79893  1.0000
  H   H802      1.0  0.80354  0.55123  0.77130  1.0000
  H   H803      1.0  0.71552  0.81891  0.93588  1.0000
  C   C801      1.0  0.80105  0.77699  0.99068  1.0000
  H   H804      1.0  0.79837  0.78324  0.97598  1.0000
  Fe  Fe133     1.0  0.76770  0.97804  0.91679  1.0000
  S   S265      1.0  0.78945  0.95108  0.91920  1.0000
  S   S266      1.0  0.72155  0.96307  0.91035  1.0000
  Fe  Fe134     1.0  0.74360  0.78971  0.90662  1.0000
  S   S267      1.0  0.70791  0.74594  0.90925  1.0000
  S   S268      1.0  0.73060  0.82080  0.89374  1.0000
  Fe  Fe135     1.0  0.78637  0.77430  0.92585  1.0000
  S   S269      1.0  0.75376  0.72998  0.93012  1.0000
  S   S270      1.0  0.82935  0.78546  0.93990  1.0000
  Fe  Fe136     1.0  0.73739  0.73063  0.89891  1.0000
  S   S271      1.0  0.73207  0.69468  0.87763  1.0000
  Fe  Fe137     1.0  0.72766  0.74937  0.93999  1.0000
  S   S272      1.0  0.70314  0.74323  0.96708  1.0000
  S   S273      1.0  0.77196  0.77425  0.89419  1.0000
  S   S274      1.0  0.76137  0.79383  0.93779  1.0000
  Fe  Fe138     1.0  0.96564  0.76203  0.93560  1.0000
  C   C802      1.0  0.83281  0.72786  0.86514  1.0000
  C   C803      1.0  0.80783  0.72227  0.87346  1.0000
  C   C804      1.0  0.96404  0.75296  0.98870  1.0000
  H   H805      1.0  0.94343  0.71589  0.84730  1.0000
  S   S275      1.0  0.98299  0.80431  0.92228  1.0000
  Fe  Fe139     1.0  0.95119  0.78075  0.89695  1.0000
  S   S276      1.0  0.92117  0.79425  0.88278  1.0000
  S   S277      1.0  0.93203  0.73932  0.91096  1.0000
  S   S278      1.0  0.95066  0.76007  0.96644  1.0000
  H   H806      1.0  0.83479  0.73133  0.84955  1.0000
  S   S279      1.0  0.91728  0.64848  0.79030  1.0000
  S   S280      1.0  0.64546  0.55891  0.78138  1.0000
  H   H807      1.0  0.79000  0.72093  0.86439  1.0000
  S   S281      1.0  0.65072  0.63189  0.80014  1.0000
  H   H808      1.0  0.87512  0.73413  0.87084  1.0000
  H   H809      1.0  0.81257  0.72486  0.93238  1.0000
  C   C805      1.0  0.94214  0.67734  0.85622  1.0000
  C   C806      1.0  0.93951  0.69502  0.84250  1.0000
  C   C807      1.0  0.93187  0.68572  0.82246  1.0000
  C   C808      1.0  0.92673  0.65867  0.81584  1.0000
  C   C809      1.0  0.92941  0.64099  0.82956  1.0000
  C   C810      1.0  0.93708  0.65031  0.84962  1.0000
  H   H810      1.0  0.52802  0.50080  0.79152  1.0000
  H   H811      1.0  0.92551  0.62014  0.82474  1.0000
  H   H812      1.0  0.72798  0.93824  0.84383  1.0000
  C   C811      1.0  0.85535  0.78947  0.92396  1.0000
  C   C812      1.0  0.85208  0.79303  0.90386  1.0000
  C   C813      1.0  0.87289  0.79554  0.89140  1.0000
  C   C814      1.0  0.89667  0.79378  0.89889  1.0000
  C   C815      1.0  0.89989  0.79018  0.91899  1.0000
  C   C816      1.0  0.87944  0.78837  0.93152  1.0000
  H   H813      1.0  0.83370  0.79411  0.89792  1.0000
  H   H814      1.0  0.87030  0.79828  0.87586  1.0000
  H   H815      1.0  0.91817  0.78882  0.92492  1.0000
  H   H816      1.0  0.88216  0.78569  0.94706  1.0000
  C   C817      1.0  0.70967  0.67840  0.85578  1.0000
  C   C818      1.0  0.68744  0.68361  0.84982  1.0000
  C   C819      1.0  0.66972  0.66936  0.83272  1.0000
  C   C820      1.0  0.67419  0.65002  0.82123  1.0000
  C   C821      1.0  0.69664  0.64510  0.82706  1.0000
  C   C822      1.0  0.71412  0.65907  0.84427  1.0000
  H   H817      1.0  0.68367  0.69833  0.85850  1.0000
  H   H818      1.0  0.65243  0.67333  0.82838  1.0000
  H   H819      1.0  0.70033  0.63023  0.81847  1.0000
  H   H820      1.0  0.73114  0.65474  0.84875  1.0000
  C   C823      1.0  0.67309  0.97651  0.99353  1.0000
  C   C824      1.0  0.95178  0.75378  0.00619  1.0000
  H   H821      1.0  0.81824  0.93354  0.87977  1.0000
  C   C825      1.0  0.82577  0.71617  0.92642  1.0000
  C   C826      1.0  0.85267  0.72528  0.89719  1.0000
  H   H822      1.0  0.84667  0.72738  0.93487  1.0000
  C   C827      1.0  0.72709  0.71936  0.99225  1.0000
  C   C828      1.0  0.71360  0.73589  0.99040  1.0000
  H   H823      1.0  0.69030  0.82184  0.95077  1.0000
  H   H824      1.0  0.87051  0.72695  0.90637  1.0000
  H   H825      1.0  0.73213  0.71142  0.97918  1.0000
  H   H826      1.0  0.60086  0.57938  0.81005  1.0000
  C   C829      1.0  0.77117  0.91409  0.91459  1.0000
  C   C830      1.0  0.78528  0.89840  0.91868  1.0000
  C   C831      1.0  0.77256  0.86944  0.91320  1.0000
  C   C832      1.0  0.74583  0.85611  0.90320  1.0000
  C   C833      1.0  0.73141  0.87161  0.89955  1.0000
  C   C834      1.0  0.74390  0.90043  0.90539  1.0000
  H   H827      1.0  0.80640  0.90882  0.92577  1.0000
  H   H828      1.0  0.78389  0.85773  0.91605  1.0000
  H   H829      1.0  0.71072  0.86144  0.89181  1.0000
  H   H830      1.0  0.73284  0.91228  0.90216  1.0000
  C   C835      1.0  0.58271  0.57624  0.78052  1.0000
  C   C836      1.0  0.80592  0.71850  0.89368  1.0000
  H   H831      1.0  0.64000  0.74684  0.88770  1.0000
  H   H832      1.0  0.78642  0.71413  0.90001  1.0000
  H   H833      1.0  0.75697  0.96750  0.85692  1.0000
  H   H834      1.0  0.81615  0.69333  0.92895  1.0000
  C   C837      1.0  0.72228  0.98860  0.99626  1.0000
  N   N68       1.0  0.82834  0.72049  0.90530  1.0000
  H   H835      1.0  0.72936  0.94180  0.87034  1.0000
  H   H836      1.0  0.98770  0.81825  0.99094  1.0000
  H   H837      1.0  0.82994  0.76240  0.98245  1.0000
  H   H838      1.0  0.65411  0.97220  0.98462  1.0000
  C   C838      1.0  0.73299  0.71205  0.01103  1.0000
  C   C839      1.0  0.54337  0.52200  0.78831  1.0000
  C   C840      1.0  0.64643  0.75234  0.90326  1.0000
  H   H839      1.0  0.67251  0.77229  0.95809  1.0000
  H   H840      1.0  0.93905  0.63643  0.86009  1.0000
  Fe  Fe140     1.0  0.90626  0.60926  0.77029  1.0000
  C   C841      1.0  0.76478  0.55269  0.77504  1.0000
  C   C842      1.0  0.64694  0.73870  0.93671  1.0000
  S   S282      1.0  0.69590  0.98427  0.95834  1.0000
  N   N69       1.0  0.75714  0.92810  0.85956  1.0000
  C   C843      1.0  0.74376  0.90019  0.85339  1.0000
  C   C844      1.0  0.78366  0.94009  0.86880  1.0000
  C   C845      1.0  0.75714  0.88364  0.85615  1.0000
  C   C846      1.0  0.79769  0.92420  0.87173  1.0000
  C   C847      1.0  0.78426  0.89578  0.86541  1.0000
  C   C848      1.0  0.74216  0.94464  0.85757  1.0000
  H   H841      1.0  0.72236  0.89041  0.84671  1.0000
  H   H842      1.0  0.79373  0.96179  0.87467  1.0000
  H   H843      1.0  0.74619  0.86128  0.85190  1.0000
  Fe  Fe141     1.0  0.65735  0.60441  0.77721  1.0000
  C   C849      1.0  0.66455  0.78035  0.90976  1.0000
  S   S283      1.0  0.87185  0.56444  0.77216  1.0000
  H   H844      1.0  0.76513  0.54935  0.79065  1.0000
  S   S284      1.0  0.69889  0.61522  0.76545  1.0000
  C   C850      1.0  0.84261  0.62299  0.77336  1.0000
  C   C851      1.0  0.85534  0.72920  0.87703  1.0000
  N   N70       1.0  0.67342  0.78732  0.92929  1.0000
  N   N71       1.0  0.81889  0.62579  0.76425  1.0000
  H   H845      1.0  0.79892  0.62166  0.79104  1.0000
  H   H846      1.0  0.64121  0.72256  0.94738  1.0000
  C   C852      1.0  0.74272  0.55610  0.76590  1.0000
  Fe  Fe142     1.0  0.96369  0.73157  0.89576  1.0000
  C   C853      1.0  0.79825  0.62490  0.77540  1.0000
  C   C854      1.0  0.66483  0.76693  0.94270  1.0000
  H   H847      1.0  0.93389  0.75766  0.00561  1.0000
  H   H848      1.0  0.79441  0.88290  0.86836  1.0000
  S   S285      1.0  0.95325  0.68861  0.88147  1.0000
  C   C855      1.0  0.69388  0.81637  0.93575  1.0000
  H   H849      1.0  0.69614  0.75826  0.00621  1.0000
  H   H850      1.0  0.92987  0.69959  0.81200  1.0000
  H   H851      1.0  0.69246  0.83167  0.92569  1.0000
  C   C856      1.0  0.77546  0.62733  0.76670  1.0000
  H   H852      1.0  0.62438  0.70947  0.91196  1.0000
  C   C857      1.0  0.69782  0.98315  0.98442  1.0000
  C   C858      1.0  0.81872  0.76513  0.99433  1.0000
  H   H853      1.0  0.67201  0.79636  0.89901  1.0000
  H   H854      1.0  0.56560  0.53057  0.81716  1.0000
  C   C859      1.0  0.56451  0.53872  0.80289  1.0000
  H   H855      1.0  0.59789  0.59756  0.77741  1.0000
  S   S286      1.0  0.71582  0.55482  0.78003  1.0000
  Fe  Fe143     1.0  0.68562  0.56929  0.76714  1.0000
  H   H856      1.0  0.86293  0.64111  0.77002  1.0000
  C   C860      1.0  0.70681  0.74569  0.00750  1.0000
  C   C861      1.0  0.78659  0.55381  0.76412  1.0000
  S   S287      1.0  0.91245  0.51718  0.76627  1.0000
  H   H857      1.0  0.84189  0.60325  0.76757  1.0000
  H   H858      1.0  0.84246  0.62237  0.78966  1.0000
  H   H859      1.0  0.77210  0.78875  0.00310  1.0000
  H   H860      1.0  0.65088  0.50232  0.78062  1.0000
  C   C862      1.0  0.78657  0.78037  0.00594  1.0000
  Fe  Fe144     1.0  0.72748  0.99429  0.93525  1.0000
  S   S288      1.0  0.98076  0.77170  0.87991  1.0000
  C   C863      1.0  0.98711  0.74784  0.98959  1.0000
  N   N72       1.0  0.54237  0.53202  0.77014  1.0000
  C   C864      1.0  0.56169  0.55877  0.76614  1.0000
  H   H861      1.0  0.75879  0.62584  0.77552  1.0000
  H   H862      1.0  0.74152  0.99373  0.98937  1.0000
  H   H863      1.0  0.68794  0.49646  0.76596  1.0000
  H   H864      1.0  0.74282  0.69870  0.01231  1.0000
