data_image0
_chemical_formula_structural       HFeS2FeSFeSFeS4CHCSC3H3C2HC2H2C2HC5HCH2CH2CH2CNC2HC2NC3HC2H5SH2NCH2C2H2CHC3FeSHFeS2HFeS3FeS2FeS2FeSFeS4HC2H3CNHCHC6H4C7H4CHCH2CH2NC6H2CH4C2HC2HNFeH3C3H2C3H4CH3SH3SCHCFeSFeHSHFeS2CSFeS2HS2CHC7HFeH3C2H2CFeH3CHFeNCH2C2HCFeH2CHC3HNH2C2H2CH2CSHCHCH2CH2FeS2FeS2Fe2S4H4C2NSC7H3CHC2H2C3SC3H3C3H2C2H2CH3C2H2C2HCN2H2CH3CHCSCH2C2HSHCFeS2FeS2FeSFeS3FeS2FeSCHFeSHS2HCHC2NCH3CH3C8H4C6H5C2HCHC3HCNC2HCHCHFeC2HSH2CH2NCHC2H3CHSCNH5C2HCHCH3C2HC2H2C3HC2FeS2FeS2FeHFeS3FeS2FeSHFeSFeS2CHC3NC2H2C6H5CH3C4HCHSCHC2NC5H2CH6C2NC6H4CH2CH6C2H5CHCHCHFeS2FeS2Fe2S4C2HC2H2C2SCH2C6H4C5NCH3CNHC2H2C2H2C3NSH4C2HCHSH3C2H2CNHCH2C2H2CH2CHCH2SCNC2HC2H2CH3CHFeSHCSHFeSFeHSFeS2FeHFeCS2HC9H6CSH3NHSH2CH2CNH2FeCHC3H2FeCS2HCHCHFeS2FeS2FeSFeS3FeS2FeSFeHFeS3HCH3C6H4CHC2H2C7H3CHCHNC6H5NH2C4NCH2CHCH4CHCH2C2HCHCH2SH2FeS2FeSFeCS2H3NHCHC4SHC7H4C3SHC4H2SCHC2NHC2HCH2C4HCHSNH2CH6C2H2CHCHC3SH3C2HC2FeCH2CN
_chemical_formula_sum              "H384 Fe64 S128 C384 N32"
_cell_length_a       46.7969
_cell_length_b       48.8783
_cell_length_c       30.6087
_cell_angle_alpha    87.9947
_cell_angle_beta     111.88
_cell_angle_gamma    90.4065

_space_group_name_H-M_alt    "P 1"
_space_group_IT_number       1

loop_
  _space_group_symop_operation_xyz
  'x, y, z'

loop_
  _atom_site_type_symbol
  _atom_site_label
  _atom_site_symmetry_multiplicity
  _atom_site_fract_x
  _atom_site_fract_y
  _atom_site_fract_z
  _atom_site_occupancy
  H   H1        1.0  0.43401  0.29230  0.36872  1.0000
  Fe  Fe1       1.0  0.12061  0.24018  0.30924  1.0000
  S   S1        1.0  0.12431  0.20949  0.25874  1.0000
  S   S2        1.0  0.15790  0.26929  0.35387  1.0000
  Fe  Fe2       1.0  0.05741  0.21594  0.30558  1.0000
  S   S3        1.0  0.05729  0.18366  0.25525  1.0000
  Fe  Fe3       1.0  0.10779  0.17905  0.30108  1.0000
  S   S4        1.0  0.13544  0.14247  0.34132  1.0000
  Fe  Fe4       1.0  0.07349  0.21733  0.21759  1.0000
  S   S5        1.0  0.05242  0.23223  0.14040  1.0000
  S   S6        1.0  0.10657  0.20933  0.35311  1.0000
  S   S7        1.0  0.07090  0.25018  0.26623  1.0000
  S   S8        1.0  0.28476  0.29865  0.32841  1.0000
  C   C1        1.0  0.03235  0.21586  0.08658  1.0000
  H   H2        1.0  0.21510  0.20795  0.33986  1.0000
  C   C2        1.0  0.14769  0.12453  0.47807  1.0000
  S   S9        1.0  0.01973  0.22220  0.33475  1.0000
  C   C3        1.0  0.12882  0.13711  0.39410  1.0000
  C   C4        1.0  0.10105  0.14572  0.39647  1.0000
  C   C5        1.0  0.15185  0.12578  0.43473  1.0000
  H   H3        1.0  0.08283  0.15379  0.36515  1.0000
  H   H4        1.0  0.17314  0.11849  0.43292  1.0000
  H   H5        1.0  0.18337  0.25472  0.28328  1.0000
  C   C6        1.0  0.24267  0.30128  0.37351  1.0000
  C   C7        1.0  0.33623  0.29334  0.26524  1.0000
  H   H6        1.0  0.01526  0.16413  0.31271  1.0000
  C   C8        1.0  0.19280  0.27773  0.34576  1.0000
  C   C9        1.0  0.24960  0.29113  0.33636  1.0000
  H   H7        1.0  0.10287  0.27527  0.37983  1.0000
  H   H8        1.0  0.02643  0.25358  0.04541  1.0000
  C   C10       1.0  0.19981  0.26750  0.30877  1.0000
  C   C11       1.0  0.23175  0.22141  0.42915  1.0000
  H   H9        1.0  0.06564  0.26392  0.37565  1.0000
  C   C12       1.0  0.47879  0.29832  0.28428  1.0000
  C   C13       1.0  0.08487  0.22904  0.44769  1.0000
  C   C14       1.0  0.46660  0.27304  0.34423  1.0000
  C   C15       1.0  0.44653  0.29421  0.34534  1.0000
  C   C16       1.0  0.38643  0.26181  0.27014  1.0000
  H   H10       1.0  0.25896  0.31441  0.39849  1.0000
  C   C17       1.0  0.48267  0.27837  0.03604  1.0000
  H   H11       1.0  0.49076  0.29990  0.26012  1.0000
  H   H12       1.0  0.18979  0.18062  0.34231  1.0000
  C   C18       1.0  0.09824  0.20778  0.48076  1.0000
  H   H13       1.0  0.46947  0.25500  0.36704  1.0000
  H   H14       1.0  0.08606  0.28821  0.41962  1.0000
  C   C19       1.0  0.24479  0.22173  0.47841  1.0000
  H   H15       1.0  0.39577  0.29456  0.22901  1.0000
  H   H16       1.0  0.46313  0.29063  0.03449  1.0000
  C   C20       1.0  0.22802  0.27410  0.30426  1.0000
  N   N1        1.0  0.10295  0.24747  0.43529  1.0000
  C   C21       1.0  0.48289  0.27494  0.31376  1.0000
  C   C22       1.0  0.38021  0.28711  0.24556  1.0000
  H   H17       1.0  0.17834  0.21559  0.34325  1.0000
  C   C23       1.0  0.02571  0.18787  0.08488  1.0000
  C   C24       1.0  0.12002  0.13371  0.48030  1.0000
  N   N2        1.0  0.21199  0.20101  0.40714  1.0000
  C   C25       1.0  0.19819  0.20126  0.35561  1.0000
  C   C26       1.0  0.34164  0.26806  0.28989  1.0000
  C   C27       1.0  0.02155  0.23188  0.04444  1.0000
  H   H18       1.0  0.03393  0.17525  0.11693  1.0000
  C   C28       1.0  0.08867  0.26987  0.40105  1.0000
  C   C29       1.0  0.09656  0.14375  0.43921  1.0000
  H   H19       1.0  0.23759  0.23751  0.40860  1.0000
  H   H20       1.0  0.32647  0.26107  0.30750  1.0000
  H   H21       1.0  0.23300  0.26619  0.27527  1.0000
  H   H22       1.0  0.07485  0.15035  0.44039  1.0000
  H   H23       1.0  0.05995  0.23043  0.43148  1.0000
  S   S10       1.0  0.37282  0.30712  0.38918  1.0000
  H   H24       1.0  0.40658  0.24998  0.27259  1.0000
  H   H25       1.0  0.37194  0.23300  0.31260  1.0000
  N   N3        1.0  0.35569  0.30273  0.24409  1.0000
  C   C30       1.0  0.36708  0.25234  0.29268  1.0000
  H   H26       1.0  0.20934  0.30270  0.40687  1.0000
  H   H27       1.0  0.14868  0.26030  0.44593  1.0000
  C   C31       1.0  0.21445  0.29459  0.37814  1.0000
  C   C32       1.0  0.13438  0.24567  0.45582  1.0000
  H   H28       1.0  0.31663  0.30561  0.26384  1.0000
  H   H29       1.0  0.00744  0.24951  0.18603  1.0000
  C   C33       1.0  0.20385  0.18121  0.43290  1.0000
  H   H30       1.0  0.18770  0.16545  0.41524  1.0000
  C   C34       1.0  0.48345  0.26763  0.99444  1.0000
  C   C35       1.0  0.21640  0.18086  0.48218  1.0000
  C   C36       1.0  0.00815  0.17622  0.04155  1.0000
  Fe  Fe5       1.0  0.41860  0.28315  0.76197  1.0000
  S   S11       1.0  0.43215  0.24455  0.73694  1.0000
  H   H31       1.0  0.06819  0.11889  0.57003  1.0000
  Fe  Fe6       1.0  0.44904  0.26510  0.86602  1.0000
  S   S12       1.0  0.46474  0.22541  0.84761  1.0000
  S   S13       1.0  0.45343  0.27645  0.93992  1.0000
  H   H32       1.0  0.03817  0.24168  0.89824  1.0000
  Fe  Fe7       1.0  0.41691  0.22330  0.79102  1.0000
  S   S14       1.0  0.38804  0.18420  0.78083  1.0000
  S   S15       1.0  0.46512  0.29107  0.81729  1.0000
  S   S16       1.0  0.40070  0.26166  0.81247  1.0000
  Fe  Fe8       1.0  0.14895  0.12327  0.60596  1.0000
  S   S17       1.0  0.15538  0.15660  0.65717  1.0000
  S   S18       1.0  0.11360  0.13396  0.53343  1.0000
  Fe  Fe9       1.0  0.18434  0.08115  0.68358  1.0000
  S   S19       1.0  0.19310  0.11230  0.74005  1.0000
  S   S20       1.0  0.19867  0.03733  0.71286  1.0000
  Fe  Fe10      1.0  0.14342  0.12519  0.70263  1.0000
  S   S21       1.0  0.10589  0.12467  0.73408  1.0000
  Fe  Fe11      1.0  0.20473  0.14132  0.68996  1.0000
  S   S22       1.0  0.24069  0.17585  0.70762  1.0000
  S   S23       1.0  0.13436  0.09249  0.64946  1.0000
  S   S24       1.0  0.19873  0.10955  0.63525  1.0000
  S   S25       1.0  0.02142  0.21699  0.76938  1.0000
  H   H33       1.0  0.08573  0.14933  0.85461  1.0000
  C   C37       1.0  0.19508  0.00530  0.68563  1.0000
  C   C38       1.0  0.18715  0.00322  0.63708  1.0000
  H   H34       1.0  0.11575  0.02722  0.75406  1.0000
  H   H35       1.0  0.18346  0.02161  0.61490  1.0000
  H   H36       1.0  0.13201  0.04769  0.71927  1.0000
  C   C39       1.0  0.11462  0.98925  0.62540  1.0000
  N   N4        1.0  0.05769  0.20298  0.89356  1.0000
  H   H37       1.0  0.05931  0.13541  0.63973  1.0000
  C   C40       1.0  0.23717  0.20119  0.50503  1.0000
  H   H38       1.0  0.45462  0.29736  0.61736  1.0000
  C   C41       1.0  0.08139  0.15091  0.73972  1.0000
  C   C42       1.0  0.05559  0.14337  0.75046  1.0000
  C   C43       1.0  0.03633  0.16332  0.75777  1.0000
  C   C44       1.0  0.04289  0.19116  0.75513  1.0000
  C   C45       1.0  0.06836  0.19874  0.74353  1.0000
  C   C46       1.0  0.08739  0.17877  0.73556  1.0000
  H   H39       1.0  0.05061  0.12191  0.75361  1.0000
  H   H40       1.0  0.02643  0.12228  0.49122  1.0000
  H   H41       1.0  0.07367  0.22020  0.74132  1.0000
  H   H42       1.0  0.10715  0.18493  0.72739  1.0000
  C   C47       1.0  0.04595  0.12738  0.56598  1.0000
  C   C48       1.0  0.34696  0.18215  0.75715  1.0000
  C   C49       1.0  0.32816  0.20553  0.74412  1.0000
  C   C50       1.0  0.29581  0.20309  0.72867  1.0000
  C   C51       1.0  0.28165  0.17729  0.72555  1.0000
  C   C52       1.0  0.30042  0.15388  0.73804  1.0000
  C   C53       1.0  0.33282  0.15634  0.75383  1.0000
  H   H43       1.0  0.33856  0.22555  0.74653  1.0000
  H   H44       1.0  0.28162  0.22137  0.71917  1.0000
  H   H45       1.0  0.29001  0.13389  0.73597  1.0000
  H   H46       1.0  0.34705  0.13808  0.76381  1.0000
  C   C54       1.0  0.07366  0.16031  0.87286  1.0000
  H   H47       1.0  0.16570  0.11635  0.50953  1.0000
  C   C55       1.0  0.02215  0.12924  0.52155  1.0000
  H   H48       1.0  0.11936  0.03147  0.64364  1.0000
  H   H49       1.0  0.24736  0.20102  0.54329  1.0000
  C   C56       1.0  0.05847  0.23298  0.89291  1.0000
  H   H50       1.0  0.43317  0.21817  0.92210  1.0000
  H   H51       1.0  0.44371  0.29750  0.69071  1.0000
  N   N5        1.0  0.38533  0.20755  0.89287  1.0000
  C   C57       1.0  0.37632  0.23377  0.89592  1.0000
  C   C58       1.0  0.36389  0.18806  0.87214  1.0000
  C   C59       1.0  0.34517  0.24124  0.87631  1.0000
  C   C60       1.0  0.33252  0.19472  0.85286  1.0000
  C   C61       1.0  0.32318  0.22156  0.85444  1.0000
  C   C62       1.0  0.41804  0.19993  0.91237  1.0000
  H   H52       1.0  0.42303  0.18649  0.94436  1.0000
  H   H53       1.0  0.37109  0.16744  0.86870  1.0000
  C   C63       1.0  0.05713  0.14606  0.89594  1.0000
  H   H54       1.0  0.31568  0.17941  0.83493  1.0000
  H   H55       1.0  0.29899  0.22711  0.83800  1.0000
  H   H56       1.0  0.05769  0.24127  0.85814  1.0000
  H   H57       1.0  0.39330  0.24925  0.91250  1.0000
  C   C64       1.0  0.04141  0.16053  0.91863  1.0000
  C   C65       1.0  0.13290  0.02726  0.73693  1.0000
  H   H58       1.0  0.02831  0.14975  0.93656  1.0000
  C   C66       1.0  0.43231  0.30386  0.61603  1.0000
  C   C67       1.0  0.04098  0.13669  0.60515  1.0000
  H   H59       1.0  0.07978  0.24004  0.92106  1.0000
  N   N6        1.0  0.12674  0.00496  0.70382  1.0000
  Fe  Fe12      1.0  0.47809  0.25114  0.79531  1.0000
  H   H60       1.0  0.08604  0.19991  0.85316  1.0000
  H   H61       1.0  0.05630  0.12388  0.89594  1.0000
  H   H62       1.0  0.02965  0.20021  0.93477  1.0000
  C   C68       1.0  0.04208  0.18916  0.91728  1.0000
  C   C69       1.0  0.01240  0.14780  0.59954  1.0000
  C   C70       1.0  0.07377  0.18895  0.87217  1.0000
  H   H63       1.0  0.33824  0.26225  0.87741  1.0000
  H   H64       1.0  0.26077  0.23775  0.49573  1.0000
  C   C71       1.0  0.42610  0.30387  0.65741  1.0000
  C   C72       1.0  0.11985  0.01054  0.65684  1.0000
  C   C73       1.0  0.40992  0.31263  0.57292  1.0000
  H   H65       1.0  0.42411  0.18891  0.88577  1.0000
  H   H66       1.0  0.00835  0.15521  0.62981  1.0000
  H   H67       1.0  0.15650  0.02498  0.76420  1.0000
  H   H68       1.0  0.01681  0.15711  0.76653  1.0000
  C   C74       1.0  0.39741  0.31280  0.65586  1.0000
  H   H69       1.0  0.49591  0.26849  0.68222  1.0000
  H   H70       1.0  0.21011  0.16483  0.50237  1.0000
  H   H71       1.0  0.14074  0.18899  0.52689  1.0000
  S   S26       1.0  0.41975  0.31407  0.52286  1.0000
  H   H72       1.0  0.17334  0.22315  0.50503  1.0000
  H   H73       1.0  0.48835  0.25366  0.62584  1.0000
  H   H74       1.0  0.11020  0.99372  0.58847  1.0000
  S   S27       1.0  0.39033  0.31469  0.70812  1.0000
  C   C75       1.0  0.13022  0.20557  0.50141  1.0000
  H   H75       1.0  0.08395  0.19287  0.49003  1.0000
  C   C76       1.0  0.14847  0.22465  0.48904  1.0000
  Fe  Fe13      1.0  0.38571  0.34481  0.35748  1.0000
  S   S28       1.0  0.40114  0.36811  0.42428  1.0000
  Fe  Fe14      1.0  0.32552  0.32609  0.36849  1.0000
  H   H76       1.0  0.28547  0.51923  0.30115  1.0000
  S   S29       1.0  0.33726  0.34729  0.43709  1.0000
  H   H77       1.0  0.30562  0.54936  0.25862  1.0000
  Fe  Fe15      1.0  0.35225  0.38307  0.40173  1.0000
  S   S30       1.0  0.34097  0.42469  0.42409  1.0000
  S   S31       1.0  0.41503  0.34350  0.31217  1.0000
  C   C77       1.0  0.24940  0.60622  0.26030  1.0000
  S   S32       1.0  0.33747  0.36277  0.33154  1.0000
  Fe  Fe16      1.0  0.34894  0.59169  0.37735  1.0000
  S   S33       1.0  0.35193  0.62281  0.32281  1.0000
  S   S34       1.0  0.34967  0.54803  0.35246  1.0000
  H   H78       1.0  0.35932  0.49621  0.31909  1.0000
  S   S35       1.0  0.31130  0.61527  0.38963  1.0000
  S   S36       1.0  0.38726  0.61079  0.43709  1.0000
  C   C78       1.0  0.28888  0.59004  0.23456  1.0000
  H   H79       1.0  0.23390  0.62233  0.26145  1.0000
  C   C79       1.0  0.34491  0.45883  0.40472  1.0000
  C   C80       1.0  0.33983  0.48083  0.42957  1.0000
  C   C81       1.0  0.34202  0.50826  0.41504  1.0000
  C   C82       1.0  0.34900  0.51402  0.37505  1.0000
  C   C83       1.0  0.35397  0.49203  0.35014  1.0000
  C   C84       1.0  0.35217  0.46462  0.36501  1.0000
  C   C85       1.0  0.47855  0.64591  0.19797  1.0000
  H   H80       1.0  0.33800  0.52489  0.43450  1.0000
  Fe  Fe17      1.0  0.35015  0.63695  0.44493  1.0000
  H   H81       1.0  0.35607  0.44800  0.34544  1.0000
  H   H82       1.0  0.28437  0.53891  0.34876  1.0000
  H   H83       1.0  0.45516  0.33711  0.26149  1.0000
  C   C86       1.0  0.49561  0.63472  0.17394  1.0000
  C   C87       1.0  0.25085  0.58120  0.28467  1.0000
  H   H84       1.0  0.33412  0.47664  0.46028  1.0000
  H   H85       1.0  0.24596  0.64760  0.34660  1.0000
  C   C88       1.0  0.28938  0.56509  0.25866  1.0000
  Fe  Fe18      1.0  0.38909  0.64260  0.38285  1.0000
  H   H86       1.0  0.30458  0.59354  0.21634  1.0000
  H   H87       1.0  0.26850  0.63041  0.21775  1.0000
  H   H88       1.0  0.24889  0.52719  0.30431  1.0000
  C   C89       1.0  0.27226  0.53530  0.31059  1.0000
  H   H89       1.0  0.23639  0.57820  0.30507  1.0000
  Fe  Fe19      1.0  0.38526  0.33133  0.45451  1.0000
  N   N7        1.0  0.27053  0.56095  0.28337  1.0000
  C   C90       1.0  0.26873  0.61070  0.23543  1.0000
  H   H90       1.0  0.33064  0.32737  0.18359  1.0000
  H   H91       1.0  0.37035  0.33748  0.21356  1.0000
  C   C91       1.0  0.34946  0.32930  0.21849  1.0000
  C   C92       1.0  0.44210  0.31739  0.31534  1.0000
  H   H92       1.0  0.34288  0.34470  0.23902  1.0000
  C   C93       1.0  0.45850  0.31936  0.28504  1.0000
  Fe  Fe20      1.0  0.31747  0.64781  0.34061  1.0000
  H   H93       1.0  0.47395  0.63397  0.22518  1.0000
  H   H94       1.0  0.50440  0.61393  0.18221  1.0000
  C   C94       1.0  0.38603  0.62876  0.58120  1.0000
  H   H95       1.0  0.38705  0.61376  0.55664  1.0000
  C   C95       1.0  0.34206  0.40580  0.53517  1.0000
  C   C96       1.0  0.40428  0.62538  0.62951  1.0000
  C   C97       1.0  0.41174  0.37950  0.63580  1.0000
  H   H96       1.0  0.41834  0.37387  0.67293  1.0000
  N   N8        1.0  0.37313  0.39533  0.56244  1.0000
  H   H97       1.0  0.36620  0.39202  0.62761  1.0000
  H   H98       1.0  0.41940  0.60779  0.64202  1.0000
  C   C98       1.0  0.42287  0.38147  0.56488  1.0000
  C   C99       1.0  0.40310  0.64477  0.66162  1.0000
  H   H99       1.0  0.33099  0.39339  0.50351  1.0000
  H   H100      1.0  0.32697  0.40507  0.55586  1.0000
  C   C100      1.0  0.39316  0.39166  0.54003  1.0000
  H   H101      1.0  0.38602  0.39625  0.50254  1.0000
  H   H102      1.0  0.43818  0.37753  0.54649  1.0000
  C   C101      1.0  0.38211  0.38955  0.60978  1.0000
  S   S37       1.0  0.42633  0.64070  0.72192  1.0000
  H   H103      1.0  0.45477  0.36658  0.63243  1.0000
  C   C102      1.0  0.43216  0.37534  0.61306  1.0000
  H   H104      1.0  0.34332  0.42733  0.52299  1.0000
  C   C103      1.0  0.37483  0.32138  0.61266  1.0000
  H   H105      1.0  0.36365  0.32797  0.53796  1.0000
  H   H106      1.0  0.35258  0.32820  0.61139  1.0000
  C   C104      1.0  0.38104  0.32123  0.57112  1.0000
  H   H107      1.0  0.50510  0.64829  0.59105  1.0000
  H   H108      1.0  0.47645  0.64977  0.50429  1.0000
  Fe  Fe21      1.0  0.10970  0.78743  0.29982  1.0000
  S   S38       1.0  0.09717  0.74740  0.32506  1.0000
  S   S39       1.0  0.13543  0.81911  0.35186  1.0000
  Fe  Fe22      1.0  0.07719  0.77311  0.19624  1.0000
  S   S40       1.0  0.06295  0.73172  0.21567  1.0000
  S   S41       1.0  0.06392  0.79266  0.12248  1.0000
  Fe  Fe23      1.0  0.05037  0.75462  0.26919  1.0000
  Fe  Fe24      1.0  0.11179  0.72920  0.27005  1.0000
  S   S42       1.0  0.14442  0.69237  0.29739  1.0000
  S   S43       1.0  0.06205  0.79585  0.24692  1.0000
  S   S44       1.0  0.12656  0.76927  0.24737  1.0000
  S   S45       1.0  0.35511  0.67025  0.39592  1.0000
  H   H109      1.0  0.48581  0.73061  0.16061  1.0000
  H   H110      1.0  0.45394  0.72213  0.10724  1.0000
  H   H111      1.0  0.05425  0.78859  0.34610  1.0000
  H   H112      1.0  0.44893  0.72283  0.16280  1.0000
  C   C105      1.0  0.15470  0.77514  0.47440  1.0000
  C   C106      1.0  0.06309  0.79917  0.37897  1.0000
  N   N9        1.0  0.47461  0.68856  0.15447  1.0000
  S   S46       1.0  0.27736  0.67296  0.28844  1.0000
  C   C107      1.0  0.20133  0.66748  0.32418  1.0000
  C   C108      1.0  0.48573  0.66742  0.36070  1.0000
  C   C109      1.0  0.25968  0.69572  0.43242  1.0000
  C   C110      1.0  0.43669  0.68937  0.31773  1.0000
  C   C111      1.0  0.45056  0.70504  0.29140  1.0000
  C   C112      1.0  0.48203  0.70189  0.29932  1.0000
  C   C113      1.0  0.19617  0.74475  0.36417  1.0000
  H   H113      1.0  0.19895  0.76418  0.38310  1.0000
  H   H114      1.0  0.41259  0.69229  0.31157  1.0000
  H   H115      1.0  0.43685  0.71988  0.26501  1.0000
  C   C114      1.0  0.06741  0.82748  0.37770  1.0000
  H   H116      1.0  0.06242  0.83852  0.34428  1.0000
  C   C115      1.0  0.04446  0.77650  0.06852  1.0000
  C   C116      1.0  0.03478  0.79238  0.02621  1.0000
  H   H117      1.0  0.04031  0.81395  0.02716  1.0000
  H   H118      1.0  0.45529  0.68165  0.20698  1.0000
  C   C117      1.0  0.49945  0.68269  0.33375  1.0000
  C   C118      1.0  0.18143  0.68769  0.29466  1.0000
  C   C119      1.0  0.49121  0.67771  0.13071  1.0000
  S   S47       1.0  0.43880  0.65186  0.39000  1.0000
  C   C120      1.0  0.24073  0.67842  0.29216  1.0000
  C   C121      1.0  0.22077  0.69850  0.26242  1.0000
  C   C122      1.0  0.19145  0.70335  0.26400  1.0000
  H   H119      1.0  0.22802  0.71043  0.23797  1.0000
  H   H120      1.0  0.17637  0.71883  0.24080  1.0000
  H   H121      1.0  0.30286  0.69004  0.42381  1.0000
  C   C123      1.0  0.15506  0.82998  0.44591  1.0000
  C   C124      1.0  0.14717  0.80969  0.41215  1.0000
  C   C125      1.0  0.14789  0.78223  0.42682  1.0000
  H   H122      1.0  0.15499  0.85127  0.43488  1.0000
  H   H123      1.0  0.14339  0.76638  0.40169  1.0000
  C   C126      1.0  0.23091  0.66307  0.32339  1.0000
  C   C127      1.0  0.06704  0.75513  0.42166  1.0000
  H   H124      1.0  0.49672  0.69014  0.10499  1.0000
  H   H125      1.0  0.21472  0.70528  0.43152  1.0000
  C   C128      1.0  0.23166  0.71010  0.41609  1.0000
  H   H126      1.0  0.17765  0.73247  0.36976  1.0000
  H   H127      1.0  0.24166  0.75066  0.33207  1.0000
  H   H128      1.0  0.18798  0.74955  0.32566  1.0000
  C   C129      1.0  0.24671  0.73547  0.36069  1.0000
  C   C130      1.0  0.27488  0.72140  0.37602  1.0000
  H   H129      1.0  0.15451  0.75385  0.48526  1.0000
  H   H130      1.0  0.29124  0.72533  0.35905  1.0000
  C   C131      1.0  0.46521  0.71742  0.14564  1.0000
  C   C132      1.0  0.28132  0.70141  0.41208  1.0000
  H   H131      1.0  0.04807  0.74840  0.38930  1.0000
  C   C133      1.0  0.45429  0.67066  0.35299  1.0000
  N   N10       1.0  0.22539  0.72951  0.38035  1.0000
  N   N11       1.0  0.07035  0.78496  0.42104  1.0000
  H   H132      1.0  0.49477  0.75205  0.00987  1.0000
  H   H133      1.0  0.08886  0.74531  0.42371  1.0000
  C   C134      1.0  0.46807  0.67299  0.18759  1.0000
  H   H134      1.0  0.08343  0.86308  0.41936  1.0000
  H   H135      1.0  0.19383  0.65522  0.34799  1.0000
  H   H136      1.0  0.04455  0.73624  0.09921  1.0000
  C   C135      1.0  0.03713  0.74869  0.06697  1.0000
  H   H137      1.0  0.26458  0.67996  0.46017  1.0000
  C   C136      1.0  0.07928  0.84123  0.41984  1.0000
  S   S48       1.0  0.49830  0.72228  0.26509  1.0000
  C   C137      1.0  0.08255  0.79820  0.46260  1.0000
  H   H138      1.0  0.06136  0.74782  0.45222  1.0000
  H   H139      1.0  0.42425  0.67023  0.47087  1.0000
  C   C138      1.0  0.01984  0.73705  0.02364  1.0000
  C   C139      1.0  0.08683  0.82655  0.46263  1.0000
  H   H140      1.0  0.01412  0.71554  0.02287  1.0000
  S   S49       1.0  0.00764  0.74765  0.28751  1.0000
  H   H141      1.0  0.49961  0.65310  0.38795  1.0000
  C   C140      1.0  0.50192  0.65067  0.13994  1.0000
  Fe  Fe25      1.0  0.18766  0.87761  0.65043  1.0000
  S   S50       1.0  0.20220  0.86506  0.72697  1.0000
  S   S51       1.0  0.18423  0.92097  0.61814  1.0000
  Fe  Fe26      1.0  0.17736  0.81819  0.62031  1.0000
  S   S52       1.0  0.19042  0.80154  0.69460  1.0000
  S   S53       1.0  0.16662  0.78570  0.56611  1.0000
  Fe  Fe27      1.0  0.16173  0.83599  0.70327  1.0000
  S   S54       1.0  0.12766  0.83451  0.74096  1.0000
  Fe  Fe28      1.0  0.22940  0.83142  0.71083  1.0000
  S   S55       1.0  0.27763  0.81802  0.75997  1.0000
  S   S56       1.0  0.14571  0.85058  0.62733  1.0000
  S   S57       1.0  0.21791  0.84605  0.63602  1.0000
  Fe  Fe29      1.0  0.46528  0.71759  0.84241  1.0000
  S   S58       1.0  0.47102  0.75264  0.79643  1.0000
  S   S59       1.0  0.47575  0.73084  0.91766  1.0000
  Fe  Fe30      1.0  0.44075  0.68080  0.75768  1.0000
  S   S60       1.0  0.44453  0.71370  0.70780  1.0000
  C   C141      1.0  0.28057  0.88835  0.70529  1.0000
  H   H142      1.0  0.28301  0.93803  0.77974  1.0000
  Fe  Fe31      1.0  0.42389  0.74134  0.74579  1.0000
  S   S61       1.0  0.38434  0.76976  0.70110  1.0000
  H   H143      1.0  0.16729  0.83869  0.51948  1.0000
  S   S62       1.0  0.41706  0.70764  0.79245  1.0000
  S   S63       1.0  0.03251  0.74056  0.74414  1.0000
  H   H144      1.0  0.20009  0.93674  0.71604  1.0000
  C   C142      1.0  0.36474  0.67045  0.59734  1.0000
  H   H145      1.0  0.11378  0.94544  0.61857  1.0000
  C   C143      1.0  0.06527  0.71143  0.87395  1.0000
  C   C144      1.0  0.24604  0.75946  0.65349  1.0000
  N   N12       1.0  0.46896  0.66746  0.60576  1.0000
  C   C145      1.0  0.28498  0.74033  0.62924  1.0000
  H   H146      1.0  0.34935  0.68788  0.58511  1.0000
  H   H147      1.0  0.38247  0.68246  0.66977  1.0000
  H   H148      1.0  0.04903  0.76728  0.92326  1.0000
  C   C146      1.0  0.16122  0.79545  0.50781  1.0000
  H   H149      1.0  0.32666  0.69500  0.68323  1.0000
  H   H150      1.0  0.09192  0.71220  0.82965  1.0000
  H   H151      1.0  0.29335  0.73631  0.60146  1.0000
  C   C147      1.0  0.29146  0.73746  0.71001  1.0000
  C   C148      1.0  0.05911  0.75518  0.90358  1.0000
  C   C149      1.0  0.30705  0.80483  0.74279  1.0000
  C   C150      1.0  0.33255  0.79137  0.77685  1.0000
  C   C151      1.0  0.35631  0.78041  0.76470  1.0000
  C   C152      1.0  0.35514  0.78330  0.71843  1.0000
  C   C153      1.0  0.32974  0.79695  0.68442  1.0000
  C   C154      1.0  0.30570  0.80747  0.69637  1.0000
  H   H152      1.0  0.33390  0.78925  0.81288  1.0000
  H   H153      1.0  0.37573  0.77004  0.79129  1.0000
  H   H154      1.0  0.32860  0.79928  0.64853  1.0000
  H   H155      1.0  0.28624  0.81767  0.66967  1.0000
  C   C155      1.0  0.05746  0.76740  0.74028  1.0000
  C   C156      1.0  0.05553  0.79354  0.75621  1.0000
  C   C157      1.0  0.07705  0.81381  0.75582  1.0000
  C   C158      1.0  0.10037  0.80846  0.73856  1.0000
  C   C159      1.0  0.10191  0.78246  0.72170  1.0000
  C   C160      1.0  0.08070  0.76201  0.72290  1.0000
  H   H156      1.0  0.03762  0.79813  0.76919  1.0000
  H   H157      1.0  0.07553  0.83386  0.76872  1.0000
  H   H158      1.0  0.11978  0.77798  0.70852  1.0000
  H   H159      1.0  0.08250  0.74185  0.71059  1.0000
  H   H160      1.0  0.17811  0.97588  0.57957  1.0000
  C   C161      1.0  0.18859  0.95307  0.64535  1.0000
  C   C162      1.0  0.19653  0.95513  0.69392  1.0000
  H   H161      1.0  0.03896  0.71760  0.91758  1.0000
  C   C163      1.0  0.48578  0.66688  0.65694  1.0000
  H   H162      1.0  0.34270  0.72385  0.66162  1.0000
  C   C164      1.0  0.26755  0.94364  0.70467  1.0000
  C   C165      1.0  0.50003  0.71673  0.97317  1.0000
  C   C166      1.0  0.08330  0.72395  0.85162  1.0000
  H   H163      1.0  0.31421  0.86872  0.79031  1.0000
  C   C167      1.0  0.48217  0.65720  0.57660  1.0000
  N   N13       1.0  0.28617  0.90095  0.74688  1.0000
  C   C168      1.0  0.26185  0.93097  0.66214  1.0000
  C   C169      1.0  0.43682  0.66957  0.50872  1.0000
  H   H164      1.0  0.30510  0.73152  0.74629  1.0000
  C   C170      1.0  0.27946  0.92816  0.74696  1.0000
  H   H165      1.0  0.30990  0.89763  0.82175  1.0000
  C   C171      1.0  0.26838  0.90316  0.66234  1.0000
  H   H166      1.0  0.26332  0.89304  0.62931  1.0000
  Fe  Fe32      1.0  0.49086  0.72090  0.76362  1.0000
  C   C172      1.0  0.12334  0.95667  0.69013  1.0000
  C   C173      1.0  0.05327  0.72707  0.90042  1.0000
  H   H167      1.0  0.08697  0.80403  0.91950  1.0000
  S   S64       1.0  0.48823  0.68681  0.81268  1.0000
  H   H168      1.0  0.22438  0.77028  0.64513  1.0000
  H   H169      1.0  0.05927  0.80749  0.85958  1.0000
  C   C174      1.0  0.25680  0.75404  0.61787  1.0000
  H   H170      1.0  0.34752  0.72163  0.72199  1.0000
  H   H171      1.0  0.13419  0.97405  0.75789  1.0000
  N   N14       1.0  0.30200  0.73242  0.67490  1.0000
  C   C175      1.0  0.33099  0.71736  0.68592  1.0000
  H   H172      1.0  0.25563  0.75601  0.72801  1.0000
  C   C176      1.0  0.38351  0.66746  0.64526  1.0000
  C   C177      1.0  0.26342  0.75116  0.69989  1.0000
  H   H173      1.0  0.28519  0.86662  0.70519  1.0000
  H   H174      1.0  0.08977  0.78681  0.49607  1.0000
  H   H175      1.0  0.06014  0.68977  0.87007  1.0000
  C   C178      1.0  0.46624  0.65801  0.52766  1.0000
  H   H176      1.0  0.24337  0.76063  0.58179  1.0000
  S   S65       1.0  0.34172  0.65606  0.50546  1.0000
  C   C179      1.0  0.12836  0.97846  0.72059  1.0000
  N   N15       1.0  0.07664  0.76734  0.88128  1.0000
  H   H177      1.0  0.10196  0.76176  0.83680  1.0000
  H   H178      1.0  0.09705  0.83687  0.49569  1.0000
  H   H179      1.0  0.47086  0.65879  0.67543  1.0000
  H   H180      1.0  0.27812  0.87428  0.79710  1.0000
  H   H181      1.0  0.12542  0.93563  0.70364  1.0000
  C   C180      1.0  0.08875  0.75210  0.85561  1.0000
  C   C181      1.0  0.29766  0.88473  0.79127  1.0000
  H   H182      1.0  0.20627  0.98250  0.75155  1.0000
  C   C182      1.0  0.11659  0.96216  0.64228  1.0000
  H   H183      1.0  0.00911  0.79342  0.95085  1.0000
  C   C183      1.0  0.08088  0.79709  0.88294  1.0000
  H   H184      1.0  0.26185  0.96516  0.70466  1.0000
  H   H185      1.0  0.09962  0.80368  0.87085  1.0000
  H   H186      1.0  0.25143  0.94249  0.62898  1.0000
  C   C184      1.0  0.18413  0.97724  0.61717  1.0000
  C   C185      1.0  0.00946  0.75306  0.98152  1.0000
  H   H187      1.0  0.40069  0.68904  0.52426  1.0000
  C   C186      1.0  0.20003  0.98111  0.71392  1.0000
  C   C187      1.0  0.44026  0.67912  0.58735  1.0000
  H   H188      1.0  0.00792  0.74206  0.63749  1.0000
  H   H189      1.0  0.42987  0.68736  0.61042  1.0000
  C   C188      1.0  0.42371  0.68025  0.53865  1.0000
  C   C189      1.0  0.01724  0.78077  0.98288  1.0000
  C   C190      1.0  0.16203  0.82290  0.49376  1.0000
  H   H190      1.0  0.49322  0.68790  0.66887  1.0000
  C   C191      1.0  0.36596  0.65118  0.56515  1.0000
  C   C192      1.0  0.69396  0.27046  0.37442  1.0000
  Fe  Fe33      1.0  0.88384  0.12814  0.36286  1.0000
  S   S66       1.0  0.89131  0.09662  0.42140  1.0000
  S   S67       1.0  0.92143  0.13035  0.33180  1.0000
  Fe  Fe34      1.0  0.81971  0.14492  0.36376  1.0000
  S   S68       1.0  0.82382  0.11531  0.42371  1.0000
  S   S69       1.0  0.77932  0.17423  0.32515  1.0000
  Fe  Fe35      1.0  0.87334  0.12924  0.45476  1.0000
  H   H191      1.0  0.75096  0.04388  0.32574  1.0000
  Fe  Fe36      1.0  0.84158  0.08510  0.38497  1.0000
  S   S70       1.0  0.81884  0.04362  0.36144  1.0000
  S   S71       1.0  0.86796  0.16115  0.39751  1.0000
  S   S72       1.0  0.83517  0.11441  0.32342  1.0000
  Fe  Fe37      1.0  0.57345  0.25901  0.21011  1.0000
  S   S73       1.0  0.56178  0.22077  0.24336  1.0000
  S   S74       1.0  0.56809  0.25921  0.13245  1.0000
  Fe  Fe38      1.0  0.60379  0.28490  0.30695  1.0000
  S   S75       1.0  0.59432  0.24794  0.34419  1.0000
  H   H192      1.0  0.72339  0.05478  0.34960  1.0000
  Fe  Fe39      1.0  0.61045  0.22338  0.29704  1.0000
  S   S76       1.0  0.64508  0.18854  0.33188  1.0000
  Fe  Fe40      1.0  0.54722  0.25019  0.28709  1.0000
  S   S77       1.0  0.62264  0.26041  0.26275  1.0000
  S   S78       1.0  0.55619  0.28820  0.25086  1.0000
  C   C193      1.0  0.66573  0.22205  0.44664  1.0000
  H   H193      1.0  0.71960  0.14979  0.22545  1.0000
  C   C194      1.0  0.60556  0.30307  0.41983  1.0000
  C   C195      1.0  0.83232  0.00966  0.38123  1.0000
  C   C196      1.0  0.57635  0.28632  0.00201  1.0000
  N   N16       1.0  0.68529  0.23450  0.42356  1.0000
  C   C197      1.0  0.71095  0.22094  0.42429  1.0000
  C   C198      1.0  0.85661  0.00408  0.42413  1.0000
  H   H194      1.0  0.68660  0.28966  0.35446  1.0000
  H   H195      1.0  0.86847  0.02081  0.44567  1.0000
  C   C199      1.0  0.74238  0.17793  0.32852  1.0000
  C   C200      1.0  0.73271  0.16160  0.35886  1.0000
  C   C201      1.0  0.70273  0.16483  0.35892  1.0000
  C   C202      1.0  0.68224  0.18469  0.32931  1.0000
  C   C203      1.0  0.69202  0.20110  0.29926  1.0000
  C   C204      1.0  0.72183  0.19766  0.29881  1.0000
  H   H196      1.0  0.74819  0.14628  0.38182  1.0000
  H   H197      1.0  0.69541  0.15198  0.38228  1.0000
  H   H198      1.0  0.67658  0.21642  0.27622  1.0000
  H   H199      1.0  0.72899  0.21038  0.27511  1.0000
  H   H200      1.0  0.76266  0.06674  0.37399  1.0000
  C   C205      1.0  0.96298  0.20472  0.21672  1.0000
  H   H201      1.0  0.76745  0.12269  0.24223  1.0000
  H   H202      1.0  0.94641  0.14354  0.16355  1.0000
  H   H203      1.0  0.00302  0.15457  0.04061  1.0000
  C   C206      1.0  0.96998  0.20190  0.35283  1.0000
  C   C207      1.0  0.94793  0.18194  0.35249  1.0000
  C   C208      1.0  0.94992  0.15563  0.33720  1.0000
  C   C209      1.0  0.97460  0.14936  0.32349  1.0000
  H   H204      1.0  0.68240  0.13534  0.26214  1.0000
  C   C210      1.0  0.97993  0.20403  0.15269  1.0000
  H   H205      1.0  0.92897  0.18711  0.36287  1.0000
  S   S79       1.0  0.50692  0.24723  0.31233  1.0000
  C   C211      1.0  0.99668  0.16925  0.32399  1.0000
  H   H206      1.0  0.64813  0.20896  0.42140  1.0000
  C   C212      1.0  0.53376  0.24790  0.04035  1.0000
  C   C213      1.0  0.53357  0.25962  0.08161  1.0000
  N   N17       1.0  0.97742  0.21712  0.18988  1.0000
  C   C214      1.0  0.67669  0.25888  0.39896  1.0000
  C   C215      1.0  0.95156  0.17812  0.20761  1.0000
  C   C216      1.0  0.98869  0.24518  0.19942  1.0000
  C   C217      1.0  0.96945  0.14202  0.46955  1.0000
  C   C218      1.0  0.50878  0.25172  0.99701  1.0000
  H   H207      1.0  0.97081  0.16210  0.45233  1.0000
  H   H208      1.0  0.96778  0.22236  0.36365  1.0000
  C   C219      1.0  0.72899  0.23204  0.40051  1.0000
  H   H209      1.0  0.58840  0.29235  0.39202  1.0000
  H   H210      1.0  0.65363  0.23797  0.45854  1.0000
  H   H211      1.0  0.65615  0.26935  0.39786  1.0000
  H   H212      1.0  0.99049  0.21421  0.13056  1.0000
  H   H213      1.0  0.55374  0.23635  0.04173  1.0000
  H   H214      1.0  0.74893  0.22093  0.40020  1.0000
  C   C220      1.0  0.81710  0.98753  0.35389  1.0000
  C   C221      1.0  0.96901  0.17735  0.14276  1.0000
  N   N18       1.0  0.73597  0.08518  0.30768  1.0000
  C   C222      1.0  0.70961  0.10008  0.29885  1.0000
  C   C223      1.0  0.75636  0.09288  0.28719  1.0000
  C   C224      1.0  0.70293  0.12313  0.26822  1.0000
  C   C225      1.0  0.75065  0.11605  0.25698  1.0000
  C   C226      1.0  0.72374  0.13122  0.24747  1.0000
  C   C227      1.0  0.74340  0.06153  0.34089  1.0000
  H   H215      1.0  0.69376  0.09449  0.31596  1.0000
  H   H216      1.0  0.77745  0.08127  0.29474  1.0000
  H   H217      1.0  0.94039  0.16825  0.22934  1.0000
  H   H218      1.0  0.96958  0.25996  0.18215  1.0000
  C   C228      1.0  0.72025  0.25687  0.37515  1.0000
  H   H219      1.0  0.71708  0.20106  0.44211  1.0000
  H   H220      1.0  0.97642  0.12904  0.31175  1.0000
  C   C229      1.0  0.95489  0.16429  0.17064  1.0000
  H   H221      1.0  0.94630  0.14023  0.47175  1.0000
  H   H222      1.0  0.73352  0.26530  0.35545  1.0000
  H   H223      1.0  0.99840  0.24847  0.23798  1.0000
  H   H224      1.0  0.67950  0.20928  0.47808  1.0000
  H   H225      1.0  0.97150  0.16696  0.11356  1.0000
  H   H226      1.0  0.58527  0.29205  0.47041  1.0000
  C   C230      1.0  0.99424  0.19576  0.33804  1.0000
  C   C231      1.0  0.99724  0.19229  0.99944  1.0000
  H   H227      1.0  0.96044  0.21532  0.24564  1.0000
  H   H228      1.0  0.79822  0.99155  0.32073  1.0000
  H   H229      1.0  0.58886  0.28826  0.03961  1.0000
  H   H230      1.0  0.97106  0.12547  0.44650  1.0000
  H   H231      1.0  0.60885  0.25714  0.99535  1.0000
  C   C232      1.0  0.60346  0.30336  0.46428  1.0000
  H   H232      1.0  0.50713  0.28365  0.11077  1.0000
  C   C233      1.0  0.50753  0.27434  0.07944  1.0000
  H   H233      1.0  0.54515  0.31225  0.04341  1.0000
  C   C234      1.0  0.00417  0.22021  0.00110  1.0000
  H   H234      1.0  0.79997  0.30011  0.86021  1.0000
  Fe  Fe41      1.0  0.95799  0.19352  0.86981  1.0000
  S   S80       1.0  0.96896  0.23411  0.84271  1.0000
  S   S81       1.0  0.97510  0.17650  0.94595  1.0000
  Fe  Fe42      1.0  0.92232  0.17455  0.76976  1.0000
  S   S82       1.0  0.93111  0.21363  0.73663  1.0000
  S   S83       1.0  0.89323  0.14193  0.72318  1.0000
  Fe  Fe43      1.0  0.97951  0.20921  0.78942  1.0000
  Fe  Fe44      1.0  0.91901  0.23437  0.79203  1.0000
  S   S84       1.0  0.88695  0.27202  0.76693  1.0000
  S   S85       1.0  0.97135  0.16880  0.81932  1.0000
  S   S86       1.0  0.90754  0.19525  0.82246  1.0000
  S   S87       1.0  0.65841  0.30421  0.68049  1.0000
  C   C235      1.0  0.84255  0.18530  0.62453  1.0000
  C   C236      1.0  0.58710  0.31215  0.76127  1.0000
  H   H235      1.0  0.82497  0.15707  0.68331  1.0000
  C   C237      1.0  0.84717  0.27479  0.75837  1.0000
  C   C238      1.0  0.85692  0.20041  0.59890  1.0000
  H   H236      1.0  0.87428  0.25691  0.66558  1.0000
  H   H237      1.0  0.84151  0.17953  0.73050  1.0000
  C   C239      1.0  0.80186  0.25973  0.77355  1.0000
  C   C240      1.0  0.83294  0.25598  0.77911  1.0000
  S   S88       1.0  0.74625  0.28701  0.74526  1.0000
  C   C241      1.0  0.82962  0.29694  0.73099  1.0000
  H   H238      1.0  0.79135  0.24535  0.79065  1.0000
  H   H239      1.0  0.84604  0.23888  0.80038  1.0000
  C   C242      1.0  0.89824  0.14016  0.66912  1.0000
  C   C243      1.0  0.92141  0.15529  0.66133  1.0000
  C   C244      1.0  0.92334  0.15626  0.61675  1.0000
  C   C245      1.0  0.90219  0.14208  0.57953  1.0000
  C   C246      1.0  0.87943  0.12624  0.58738  1.0000
  C   C247      1.0  0.87768  0.12506  0.63239  1.0000
  H   H240      1.0  0.93792  0.16628  0.68966  1.0000
  H   H241      1.0  0.94114  0.16840  0.61105  1.0000
  H   H242      1.0  0.86325  0.11502  0.55889  1.0000
  H   H243      1.0  0.85993  0.11304  0.63844  1.0000
  C   C248      1.0  0.54403  0.28004  0.90651  1.0000
  C   C249      1.0  0.50681  0.25930  0.65944  1.0000
  C   C250      1.0  0.54767  0.27148  0.77612  1.0000
  C   C251      1.0  0.57288  0.26427  0.76423  1.0000
  C   C252      1.0  0.59231  0.28448  0.75636  1.0000
  N   N19       1.0  0.99397  0.13969  0.51647  1.0000
  C   C253      1.0  0.86518  0.23689  0.65330  1.0000
  H   H244      1.0  0.85354  0.30103  0.86174  1.0000
  H   H245      1.0  0.57738  0.24291  0.76094  1.0000
  H   H246      1.0  0.61153  0.27864  0.74708  1.0000
  C   C254      1.0  0.98909  0.14932  0.55462  1.0000
  N   N20       1.0  0.84066  0.19534  0.66454  1.0000
  H   H247      1.0  0.51889  0.24047  0.67884  1.0000
  C   C255      1.0  0.82672  0.17901  0.69241  1.0000
  C   C256      1.0  0.85128  0.22093  0.67858  1.0000
  H   H248      1.0  0.84968  0.22883  0.71017  1.0000
  H   H249      1.0  0.58763  0.27778  0.61116  1.0000
  C   C257      1.0  0.79844  0.30062  0.72521  1.0000
  C   C258      1.0  0.86843  0.22633  0.61361  1.0000
  H   H250      1.0  0.96707  0.15825  0.55050  1.0000
  H   H251      1.0  0.83383  0.16513  0.61307  1.0000
  C   C259      1.0  0.54220  0.29917  0.78034  1.0000
  C   C260      1.0  0.57058  0.28566  0.62381  1.0000
  C   C261      1.0  0.52733  0.30554  0.65692  1.0000
  N   N21       1.0  0.52858  0.27812  0.65004  1.0000
  S   S89       1.0  0.90517  0.14560  0.52405  1.0000
  H   H252      1.0  0.88015  0.23807  0.59463  1.0000
  H   H253      1.0  0.84029  0.31157  0.71456  1.0000
  H   H254      1.0  0.55052  0.24642  0.62764  1.0000
  H   H255      1.0  0.85974  0.19176  0.56852  1.0000
  C   C262      1.0  0.57137  0.26548  0.92915  1.0000
  C   C263      1.0  0.78445  0.28218  0.74701  1.0000
  H   H256      1.0  0.80349  0.18715  0.68684  1.0000
  C   C264      1.0  0.54962  0.26812  0.63325  1.0000
  H   H257      1.0  0.57973  0.25178  0.90927  1.0000
  S   S90       1.0  0.52354  0.24523  0.78473  1.0000
  H   H258      1.0  0.52285  0.30512  0.78916  1.0000
  H   H259      1.0  0.50962  0.24310  0.96544  1.0000
  H   H260      1.0  0.53128  0.27760  0.86917  1.0000
  C   C265      1.0  0.56982  0.31353  0.63156  1.0000
  C   C266      1.0  0.53324  0.29752  0.93233  1.0000
  H   H261      1.0  0.51095  0.31347  0.67076  1.0000
  H   H262      1.0  0.51170  0.30848  0.91460  1.0000
  C   C267      1.0  0.58769  0.26856  0.97725  1.0000
  N   N22       1.0  0.54929  0.30030  0.97954  1.0000
  H   H263      1.0  0.99576  0.23289  0.96914  1.0000
  C   C268      1.0  0.53097  0.33372  0.38589  1.0000
  H   H264      1.0  0.65075  0.56135  0.44124  1.0000
  H   H265      1.0  0.67598  0.63025  0.43932  1.0000
  C   C269      1.0  0.54278  0.34043  0.35110  1.0000
  C   C270      1.0  0.61490  0.59149  0.42873  1.0000
  H   H266      1.0  0.57732  0.36331  0.33486  1.0000
  H   H267      1.0  0.53376  0.33080  0.31729  1.0000
  C   C271      1.0  0.63623  0.57187  0.45592  1.0000
  H   H268      1.0  0.66690  0.34516  0.43997  1.0000
  H   H269      1.0  0.61304  0.59668  0.39294  1.0000
  C   C272      1.0  0.53146  0.33696  0.46606  1.0000
  H   H270      1.0  0.51239  0.32006  0.99135  1.0000
  C   C273      1.0  0.57939  0.37022  0.40518  1.0000
  H   H271      1.0  0.59918  0.38361  0.41378  1.0000
  H   H272      1.0  0.58134  0.62140  0.42791  1.0000
  S   S91       1.0  0.62982  0.31904  0.35368  1.0000
  C   C274      1.0  0.56712  0.35882  0.36088  1.0000
  N   N23       1.0  0.54296  0.34519  0.42911  1.0000
  C   C275      1.0  0.64928  0.33332  0.44678  1.0000
  C   C276      1.0  0.56708  0.36301  0.43920  1.0000
  H   H273      1.0  0.57767  0.37094  0.47429  1.0000
  C   C277      1.0  0.62833  0.31812  0.41065  1.0000
  C   C278      1.0  0.65930  0.64322  0.44547  1.0000
  H   H274      1.0  0.53027  0.35486  0.48674  1.0000
  H   H275      1.0  0.51582  0.64255  0.12174  1.0000
  C   C279      1.0  0.59701  0.60544  0.44872  1.0000
  H   H276      1.0  0.55932  0.62179  0.48822  1.0000
  H   H277      1.0  0.51256  0.31891  0.37838  1.0000
  H   H278      1.0  0.50788  0.32826  0.45098  1.0000
  C   C280      1.0  0.53801  0.31918  0.00580  1.0000
  H   H279      1.0  0.54716  0.34001  0.00393  1.0000
  Fe  Fe45      1.0  0.64677  0.33842  0.71785  1.0000
  S   S92       1.0  0.63797  0.36926  0.65781  1.0000
  H   H280      1.0  0.59485  0.63362  0.53171  1.0000
  C   C281      1.0  0.78658  0.33740  0.81763  1.0000
  S   S93       1.0  0.70211  0.34752  0.64790  1.0000
  H   H281      1.0  0.83136  0.37423  0.77400  1.0000
  Fe  Fe46      1.0  0.68837  0.37922  0.68901  1.0000
  S   S94       1.0  0.71209  0.42081  0.70772  1.0000
  Fe  Fe47      1.0  0.65195  0.33540  0.62180  1.0000
  H   H282      1.0  0.65587  0.55117  0.52426  1.0000
  S   S95       1.0  0.69649  0.35073  0.75226  1.0000
  Fe  Fe48      1.0  0.68269  0.58565  0.65725  1.0000
  S   S96       1.0  0.70120  0.59980  0.73196  1.0000
  S   S97       1.0  0.67025  0.54302  0.62648  1.0000
  Fe  Fe49      1.0  0.72558  0.63296  0.70530  1.0000
  H   H283      1.0  0.62332  0.57584  0.55732  1.0000
  Fe  Fe50      1.0  0.66049  0.62889  0.70971  1.0000
  C   C282      1.0  0.77263  0.37839  0.76566  1.0000
  S   S98       1.0  0.70950  0.61697  0.63170  1.0000
  S   S99       1.0  0.64063  0.61270  0.63725  1.0000
  H   H284      1.0  0.86915  0.33824  0.81821  1.0000
  C   C283      1.0  0.66113  0.64707  0.49177  1.0000
  C   C284      1.0  0.63918  0.56621  0.50241  1.0000
  C   C285      1.0  0.74744  0.62425  0.84910  1.0000
  C   C286      1.0  0.69882  0.45464  0.68593  1.0000
  C   C287      1.0  0.67325  0.45962  0.64433  1.0000
  C   C288      1.0  0.66474  0.48676  0.62707  1.0000
  C   C289      1.0  0.68125  0.50933  0.65147  1.0000
  C   C290      1.0  0.70647  0.50436  0.69353  1.0000
  C   C291      1.0  0.71531  0.47720  0.71035  1.0000
  H   H285      1.0  0.66039  0.44257  0.62499  1.0000
  H   H286      1.0  0.64525  0.49027  0.59447  1.0000
  H   H287      1.0  0.71955  0.52140  0.71261  1.0000
  H   H288      1.0  0.73517  0.47367  0.74247  1.0000
  H   H289      1.0  0.75835  0.36996  0.73111  1.0000
  H   H290      1.0  0.76295  0.33616  0.81557  1.0000
  C   C292      1.0  0.64711  0.33371  0.49154  1.0000
  S   S100      1.0  0.62916  0.63220  0.75163  1.0000
  H   H291      1.0  0.73062  0.60717  0.84098  1.0000
  H   H292      1.0  0.57709  0.60263  0.54273  1.0000
  H   H293      1.0  0.55776  0.34066  0.77733  1.0000
  N   N24       1.0  0.59987  0.59959  0.49422  1.0000
  H   H294      1.0  0.67933  0.63732  0.52128  1.0000
  S   S101      1.0  0.61061  0.33867  0.75183  1.0000
  H   H295      1.0  0.78355  0.39754  0.75908  1.0000
  H   H296      1.0  0.68777  0.63628  0.82665  1.0000
  C   C293      1.0  0.83747  0.31742  0.84380  1.0000
  H   H297      1.0  0.57823  0.63336  0.78228  1.0000
  H   H298      1.0  0.75709  0.38435  0.78381  1.0000
  C   C294      1.0  0.82468  0.35850  0.79412  1.0000
  N   N25       1.0  0.79539  0.35796  0.79394  1.0000
  H   H299      1.0  0.76359  0.61992  0.83110  1.0000
  H   H300      1.0  0.78541  0.31795  0.70460  1.0000
  Fe  Fe51      1.0  0.66874  0.64465  0.61818  1.0000
  C   C295      1.0  0.62386  0.31895  0.50010  1.0000
  H   H301      1.0  0.76048  0.62429  0.88769  1.0000
  C   C296      1.0  0.62072  0.58035  0.52108  1.0000
  C   C297      1.0  0.58184  0.61516  0.51519  1.0000
  C   C298      1.0  0.84621  0.33833  0.81925  1.0000
  H   H302      1.0  0.66279  0.34602  0.51885  1.0000
  H   H303      1.0  0.54814  0.34511  0.65584  1.0000
  Fe  Fe52      1.0  0.70774  0.31871  0.70970  1.0000
  C   C299      1.0  0.56201  0.31931  0.77348  1.0000
  S   S102      1.0  0.61667  0.32183  0.55237  1.0000
  S   S103      1.0  0.77367  0.64745  0.75269  1.0000
  H   H304      1.0  0.54722  0.32136  0.49030  1.0000
  C   C300      1.0  0.54806  0.32361  0.64809  1.0000
  H   H305      1.0  0.58643  0.32722  0.62548  1.0000
  C   C301      1.0  0.80749  0.31694  0.84312  1.0000
  H   H306      1.0  0.79616  0.88699  0.19704  1.0000
  Fe  Fe53      1.0  0.81568  0.82968  0.34744  1.0000
  S   S104      1.0  0.82163  0.84641  0.41779  1.0000
  S   S105      1.0  0.77286  0.81022  0.29318  1.0000
  Fe  Fe54      1.0  0.88506  0.83583  0.36417  1.0000
  S   S106      1.0  0.89569  0.85224  0.43636  1.0000
  S   S107      1.0  0.92160  0.83602  0.33039  1.0000
  Fe  Fe55      1.0  0.86402  0.81995  0.44537  1.0000
  S   S108      1.0  0.63435  0.65190  0.34953  1.0000
  Fe  Fe56      1.0  0.85279  0.87821  0.40363  1.0000
  S   S109      1.0  0.86034  0.92060  0.43583  1.0000
  S   S110      1.0  0.85662  0.80120  0.37590  1.0000
  S   S111      1.0  0.84367  0.86369  0.33055  1.0000
  Fe  Fe57      1.0  0.60782  0.74314  0.26545  1.0000
  S   S112      1.0  0.62351  0.70406  0.24482  1.0000
  S   S113      1.0  0.63950  0.77977  0.29390  1.0000
  Fe  Fe58      1.0  0.54598  0.71686  0.26171  1.0000
  S   S114      1.0  0.55864  0.67636  0.24157  1.0000
  Fe  Fe59      1.0  0.60546  0.68373  0.29623  1.0000
  H   H307      1.0  0.00337  0.80772  0.27655  1.0000
  Fe  Fe60      1.0  0.57486  0.70087  0.19152  1.0000
  S   S115      1.0  0.56485  0.68336  0.11892  1.0000
  S   S116      1.0  0.59194  0.72282  0.31960  1.0000
  S   S117      1.0  0.55986  0.74145  0.20867  1.0000
  H   H308      1.0  0.68431  0.69674  0.36037  1.0000
  C   C302      1.0  0.98307  0.79846  0.08637  1.0000
  H   H309      1.0  0.64691  0.75611  0.38303  1.0000
  H   H310      1.0  0.96970  0.72477  0.12351  1.0000
  H   H311      1.0  0.85302  0.77825  0.23279  1.0000
  C   C303      1.0  0.73730  0.79994  0.29772  1.0000
  C   C304      1.0  0.71913  0.78028  0.26699  1.0000
  C   C305      1.0  0.68975  0.77302  0.26669  1.0000
  C   C306      1.0  0.67774  0.78591  0.29629  1.0000
  C   C307      1.0  0.69606  0.80529  0.32748  1.0000
  C   C308      1.0  0.72576  0.81205  0.32862  1.0000
  H   H312      1.0  0.72765  0.77083  0.24277  1.0000
  H   H313      1.0  0.67597  0.75820  0.24230  1.0000
  H   H314      1.0  0.68701  0.81554  0.35037  1.0000
  H   H315      1.0  0.73921  0.82738  0.35215  1.0000
  C   C309      1.0  0.54011  0.69695  0.06322  1.0000
  H   H316      1.0  0.96284  0.78477  0.01558  1.0000
  C   C310      1.0  0.98714  0.80066  0.29192  1.0000
  C   C311      1.0  0.98700  0.76451  0.14747  1.0000
  H   H317      1.0  0.87261  0.79416  0.28847  1.0000
  H   H318      1.0  0.88697  0.79828  0.24179  1.0000
  C   C312      1.0  0.98480  0.77264  0.30105  1.0000
  C   C313      1.0  0.69384  0.70636  0.44969  1.0000
  C   C314      1.0  0.96793  0.81964  0.30180  1.0000
  C   C315      1.0  0.94630  0.81103  0.32132  1.0000
  C   C316      1.0  0.94421  0.78304  0.33097  1.0000
  C   C317      1.0  0.96321  0.76400  0.32061  1.0000
  C   C318      1.0  0.53429  0.68136  0.02303  1.0000
  H   H319      1.0  0.96974  0.84121  0.29406  1.0000
  H   H320      1.0  0.92781  0.77601  0.34606  1.0000
  H   H321      1.0  0.96113  0.74240  0.32781  1.0000
  C   C319      1.0  0.84985  0.95460  0.41248  1.0000
  H   H322      1.0  0.81385  0.94344  0.34789  1.0000
  C   C320      1.0  0.82597  0.96018  0.36913  1.0000
  H   H323      1.0  0.99409  0.75856  0.18457  1.0000
  N   N26       1.0  0.84640  0.82139  0.23307  1.0000
  C   C321      1.0  0.85934  0.84578  0.22724  1.0000
  C   C322      1.0  0.81585  0.82014  0.22631  1.0000
  C   C323      1.0  0.84143  0.86967  0.21364  1.0000
  C   C324      1.0  0.79725  0.84360  0.21266  1.0000
  C   C325      1.0  0.81017  0.86851  0.20632  1.0000
  C   C326      1.0  0.86565  0.79677  0.24967  1.0000
  H   H324      1.0  0.88381  0.84702  0.23426  1.0000
  H   H325      1.0  0.80580  0.80104  0.23267  1.0000
  H   H326      1.0  0.85197  0.88906  0.21025  1.0000
  H   H327      1.0  0.77323  0.84254  0.20879  1.0000
  H   H328      1.0  0.53011  0.73476  0.08872  1.0000
  N   N27       1.0  0.96468  0.75282  0.06601  1.0000
  H   H329      1.0  0.63742  0.76170  0.45637  1.0000
  H   H330      1.0  0.66409  0.72781  0.33620  1.0000
  C   C327      1.0  0.65881  0.74279  0.41344  1.0000
  C   C328      1.0  0.96909  0.77902  0.05256  1.0000
  C   C329      1.0  0.68326  0.71888  0.36701  1.0000
  C   C330      1.0  0.61442  0.67273  0.41531  1.0000
  N   N28       1.0  0.67819  0.72260  0.41088  1.0000
  C   C331      1.0  0.97320  0.74550  0.11275  1.0000
  H   H331      1.0  0.98799  0.81881  0.07576  1.0000
  H   H332      1.0  0.92580  0.72930  0.02703  1.0000
  C   C332      1.0  0.86508  0.97673  0.43979  1.0000
  H   H333      1.0  0.60032  0.69060  0.46740  1.0000
  C   C333      1.0  0.61670  0.67717  0.46141  1.0000
  H   H334      1.0  0.54514  0.66149  0.02663  1.0000
  H   H335      1.0  0.56372  0.73906  0.99200  1.0000
  H   H336      1.0  0.52366  0.68003  0.34033  1.0000
  H   H337      1.0  0.59566  0.68188  0.38612  1.0000
  C   C334      1.0  0.99213  0.79109  0.13406  1.0000
  H   H338      1.0  0.70918  0.69035  0.44767  1.0000
  C   C335      1.0  0.65358  0.74626  0.45503  1.0000
  H   H339      1.0  0.88356  0.97272  0.47339  1.0000
  H   H340      1.0  0.70488  0.72913  0.36863  1.0000
  C   C336      1.0  0.52579  0.72251  0.05815  1.0000
  C   C337      1.0  0.95000  0.73255  0.03034  1.0000
  H   H341      1.0  0.96279  0.71278  0.03999  1.0000
  C   C338      1.0  0.63611  0.65633  0.40719  1.0000
  H   H342      1.0  0.58887  0.69502  0.99097  1.0000
  C   C339      1.0  0.50576  0.73225  0.01340  1.0000
  H   H343      1.0  0.95008  0.73913  0.99517  1.0000
  H   H344      1.0  0.00373  0.80582  0.16053  1.0000
  S   S118      1.0  0.53304  0.72640  0.74379  1.0000
  H   H345      1.0  0.66191  0.68081  0.79771  1.0000
  H   H346      1.0  0.70138  0.69626  0.52256  1.0000
  Fe  Fe61      1.0  0.92700  0.72728  0.75843  1.0000
  S   S119      1.0  0.92137  0.76074  0.80310  1.0000
  S   S120      1.0  0.88899  0.69873  0.71362  1.0000
  Fe  Fe62      1.0  0.94352  0.78818  0.76401  1.0000
  S   S121      1.0  0.92716  0.82747  0.72106  1.0000
  Fe  Fe63      1.0  0.97052  0.75059  0.85130  1.0000
  C   C340      1.0  0.57908  0.69810  0.91621  1.0000
  S   S122      1.0  0.94621  0.75551  0.71679  1.0000
  S   S123      1.0  0.97505  0.71564  0.80779  1.0000
  H   H347      1.0  0.55107  0.79062  0.92175  1.0000
  H   H348      1.0  0.82764  0.67574  0.81127  1.0000
  H   H349      1.0  0.93845  0.68211  0.67073  1.0000
  N   N29       1.0  0.55019  0.74734  0.91803  1.0000
  H   H350      1.0  0.90267  0.92621  0.58913  1.0000
  C   C341      1.0  0.68649  0.67884  0.80628  1.0000
  H   H351      1.0  0.66459  0.73130  0.52672  1.0000
  C   C342      1.0  0.51436  0.69117  0.97817  1.0000
  C   C343      1.0  0.85613  0.68623  0.72443  1.0000
  C   C344      1.0  0.85403  0.68716  0.76879  1.0000
  C   C345      1.0  0.82852  0.67546  0.77650  1.0000
  S   S124      1.0  0.68622  0.66281  0.68970  1.0000
  H   H352      1.0  0.87243  0.69629  0.79747  1.0000
  C   C346      1.0  0.88618  0.91620  0.55774  1.0000
  C   C347      1.0  0.91084  0.81895  0.66133  1.0000
  C   C348      1.0  0.89047  0.79700  0.64817  1.0000
  C   C349      1.0  0.87783  0.78954  0.60106  1.0000
  C   C350      1.0  0.88530  0.80399  0.56648  1.0000
  C   C351      1.0  0.90522  0.82637  0.57920  1.0000
  C   C352      1.0  0.91802  0.83382  0.62669  1.0000
  H   H353      1.0  0.88450  0.78560  0.67451  1.0000
  H   H354      1.0  0.86225  0.77238  0.59152  1.0000
  H   H355      1.0  0.91131  0.83747  0.55274  1.0000
  H   H356      1.0  0.93389  0.85076  0.63674  1.0000
  C   C353      1.0  0.87352  0.88819  0.61649  1.0000
  C   C354      1.0  0.55779  0.69916  0.74246  1.0000
  C   C355      1.0  0.55698  0.67337  0.76332  1.0000
  S   S125      1.0  0.98484  0.73781  0.92923  1.0000
  H   H357      1.0  0.88973  0.89981  0.64447  1.0000
  C   C356      1.0  0.60082  0.68322  0.72226  1.0000
  C   C357      1.0  0.57970  0.70387  0.72168  1.0000
  C   C358      1.0  0.70338  0.70111  0.79958  1.0000
  C   C359      1.0  0.73496  0.69817  0.81058  1.0000
  H   H358      1.0  0.61765  0.68725  0.70639  1.0000
  H   H359      1.0  0.58047  0.72369  0.70526  1.0000
  S   S126      1.0  0.99202  0.78153  0.81647  1.0000
  C   C360      1.0  0.85772  0.86661  0.62851  1.0000
  H   H360      1.0  0.92876  0.76217  0.56296  1.0000
  C   C361      1.0  0.84945  0.87863  0.53538  1.0000
  C   C362      1.0  0.93648  0.69898  0.64571  1.0000
  N   N30       1.0  0.95947  0.73669  0.61848  1.0000
  H   H361      1.0  0.52707  0.77347  0.94895  1.0000
  C   C363      1.0  0.83198  0.67401  0.68773  1.0000
  C   C364      1.0  0.83349  0.85675  0.54615  1.0000
  H   H362      1.0  0.69192  0.72048  0.78540  1.0000
  C   C365      1.0  0.90504  0.72893  0.58191  1.0000
  H   H363      1.0  0.74834  0.71516  0.80487  1.0000
  H   H364      1.0  0.86973  0.93199  0.53526  1.0000
  C   C366      1.0  0.83774  0.85072  0.59306  1.0000
  C   C367      1.0  0.90764  0.70650  0.61261  1.0000
  C   C368      1.0  0.96237  0.71430  0.64802  1.0000
  C   C369      1.0  0.68964  0.70965  0.49214  1.0000
  H   H365      1.0  0.98428  0.76499  0.59123  1.0000
  C   C370      1.0  0.56558  0.71407  0.87498  1.0000
  H   H366      1.0  0.54019  0.66926  0.77919  1.0000
  S   S127      1.0  0.87093  0.79193  0.50879  1.0000
  N   N31       1.0  0.86932  0.89386  0.57037  1.0000
  H   H367      1.0  0.83333  0.67303  0.65332  1.0000
  H   H368      1.0  0.58974  0.67861  0.91520  1.0000
  C   C371      1.0  0.60072  0.65777  0.74465  1.0000
  H   H369      1.0  0.51010  0.67900  0.94754  1.0000
  H   H370      1.0  0.88268  0.73519  0.55628  1.0000
  H   H371      1.0  0.82636  0.83322  0.60206  1.0000
  H   H372      1.0  0.54067  0.75098  0.84411  1.0000
  H   H373      1.0  0.84629  0.88312  0.49892  1.0000
  H   H374      1.0  0.98790  0.76972  0.65140  1.0000
  C   C372      1.0  0.93128  0.74409  0.58573  1.0000
  C   C373      1.0  0.55122  0.73882  0.87652  1.0000
  H   H375      1.0  0.86210  0.86141  0.66525  1.0000
  H   H376      1.0  0.88727  0.69538  0.61176  1.0000
  C   C374      1.0  0.64018  0.66460  0.49969  1.0000
  H   H377      1.0  0.89941  0.90822  0.53723  1.0000
  C   C375      1.0  0.56432  0.73227  0.95896  1.0000
  H   H378      1.0  0.56592  0.70726  0.84184  1.0000
  C   C376      1.0  0.80616  0.66277  0.69521  1.0000
  C   C377      1.0  0.57858  0.65298  0.76494  1.0000
  C   C378      1.0  0.80443  0.66312  0.73987  1.0000
  S   S128      1.0  0.64398  0.67327  0.55664  1.0000
  H   H379      1.0  0.98452  0.70896  0.67507  1.0000
  H   H380      1.0  0.81864  0.84407  0.51843  1.0000
  H   H381      1.0  0.77363  0.67061  0.83582  1.0000
  C   C379      1.0  0.57869  0.70732  0.95862  1.0000
  C   C380      1.0  0.66900  0.72944  0.49452  1.0000
  H   H382      1.0  0.51400  0.77640  0.88666  1.0000
  C   C381      1.0  0.98618  0.75422  0.62477  1.0000
  C   C382      1.0  0.53505  0.77335  0.91896  1.0000
  Fe  Fe64      1.0  0.99336  0.74750  0.77009  1.0000
  C   C383      1.0  0.74912  0.67284  0.82786  1.0000
  H   H383      1.0  0.50661  0.65356  0.66807  1.0000
  H   H384      1.0  0.78802  0.65322  0.66673  1.0000
  C   C384      1.0  0.70129  0.65365  0.82268  1.0000
  N   N32       1.0  0.73214  0.65079  0.83239  1.0000
