data_image0
_chemical_formula_structural       C3H2SCSHFeHNHCHCHCS3CHCSC2HNSH2CHC6H5C3HSH2SCHFeNH2C6H3C2HFe2H2CHSC2HCHS2HCSC2FeC2H3NS2CFeS2HCFeSCSFeS2FeS2FeSFeS3H2C4FeSC2FeS2FeS2FeSFeS3FeS2FeS2FeS2FeSFeS3FeSFeS4C2SH6CSCNCHSC6H4C6H6C6H4C6H4C6H4C6H4C6HCH2C6H3CHC2H2C6H4CHCH2CH2CH2CFeNC5H6SCH3NC6H8NC5SFeHC2H4NC6H6CHCH2C2HSNCH2FeSFeHC2SFeCHCHC7SFeC2HFeH3CH4CH3NSH2C2H2NCHSNH2CFeCHCH2C3H2NCHC2HCHCH3CHNHCHCHC3H4CH5C2H2CFeC2HCH3SCHCFeHSH3C2H4C4HSCHCHNH4S2HC2H2C5FeSCFeSCFeS2FeCFeS3HCH2NH3C4SHS2C2HCH2CHC3H5CHC2FeSCHC3HC2HSH10CSHC2H2CHCHFeCSH2SC2HCHCSC4H2NHCH2FeHSH3C5H2CH2CNCH2C2H2CH2C2H2S2HNCNC2HC4NC7H2C4HCH3CHCH2SH2CHSCFeCFeS2FeS2FeSFeS3FeHFeS2FeSFeSFeS2FeSFeS2FeS2FeSFeS3HS2CFeS2FeS2FeSFeS4C6H4C6H3FeC6H6C6H4C6H5NHC2HCH2SC2HSC6H4C6H4C3H2CHCH2C6FeH3SNC6H9C3NC2H3C2HNHNC6H6CHNC6H8CHCHC2SHC2S2C5H5C2FeH3CH2CH5SC2H2CH2CFeC2HCFeH2CH3C2NCSHC4H2N2CHCHCHC2H3C2H2C3H2C2SCH5NH2C3H2CHSC2SHSH2CSHCH3CH2CH4C4HNFeSCNHC2HSHCH3SHC3HCH3CH2S2CSH2CHCH2NHSCHSH2CH2FeSC3NHCHCH3CHC3HC3H2C2SHC2HC3Fe2HSFeCSHCH2SH2CSHS2H2SHFeS2FeS2FeSFeS3FeS2FeSFeS3FeS2FeS2Fe2C2S2CH3C2H2C2NHNH2CNH4C2HC2HC4HCHCNHC2H2C6H4CHCH2C5H3C6H7C2SC3HCHCH3C3H4CHCFeCHC3H3C6HCH3NHC4HC4HCH2CH2SCH2CNFeCHC2HCH3SCSC3HSH3CFeCH4CNHC2NCH4SNC6H5C2H2CHCFeCH3CHC3H2C4HSCH2C2HC2HC2H2CS2HCHFeS2FeS2FeSFeS3FeS2FeSHFeSFeS3HSFeS2FeS2FeSFeS3HFeS2FeS2FeSFeS3FeS2FeNHNFeCS2H6SHNC7H4C6H4C6H4C6H4C6H4CFeCSHCHC6H4C6H4C6H4C4H6NC2H2C3HCH2NC6H3C2H3CH3CHC5N2SC2NC6H7CSHSH2CHNHCH4CH2CHCHNC6H11C3H3CNC6H8SH2CH2FeHC3FeHCH3C3H2CHCH3FeCHC2HC5H3NHCHSCH2SC3HC2SH2CH5SCS2H2CFeHCH3FeS2HCFeCH3SC6HCSCFeC3H3C3NC3HSHCH2FeHC2S2H7CNHC5SHCH2FeS2CHSCHSHFeSFeSCFeHFeS2FeS2FeSFeS3FeCSCHSH2FeS2FeSFeS2CFeCSFeCSC2H2S2C3H2CNH2CSH2FeC7H3C3H2CHC6H2C6H4C6H4CHC6H3SHC6H2C7H5NHFeSCH2C2HCH3CSC2H2CFeH2SH6SHSH4CH5FeHCSHSHC4HNC6H9C4HC2H2NHFeCFeH3CSCNSCFeNC4HCH3SHNHC2HFeCFeH2C2NHNH3S2CHCSHCH3SHS2C3HC2HNCNSH2SH2NC2H6FeSHFeSH2SHC3NC2H4CHSC2NCH3CH2C2FeHCHC7H2SHCHCHSCHSHC2HC2HSFeHCHFeCFeCSH3CFeS2FeHSFeSFeCS2FeS2FeS2FeSFeS3CHFeSHS2CS2FeSFeS2FeS2FeS2FeSFeS5FeSFeNS2HSC3FeSCSFeS2FeS2FeSFeS3C6H4C6H6C2H3C6H4C3SHCHFeC6H4C6H5C6H4C6H4CHFe2C2H4C6H6C3HCHC5H3CS3HCHCH2CHCHSNC5H4CHNC6H10C2HFeHCH2FeC2HC5SCHC2H5CHNCHCFeC3H2CHSNHNC6H8NC3H4NC6H8FeH4C2S2NFeC2H2CH3CHCHCHSH2FeSC2H2CH2C2HCH2CFeC2H2FeSH2C3H2SNC3H2NC7H2NH2FeSH8SHNH2C2H2CHNCH2C2SH4C2HC3H3CH2FeSFeSH2FeSHSFeS2FeS2FeCFeS3H2SHCHCSFeS2Fe2S2CH2CSNH2CSCHC2HCH5C3HCH2C3H3CHC2HCSC2HC8HCHSHC5H6CNC3HC6H5CH2C2HFeHCFeCS2H3CH4SHCHC2HCH2NC2SNCH4NSCHFeCFeHFeHC2FeNCH3CHNSC3NC3SHCH2CH3CH3SH3CHC2HC2HSHCNHCHC2HCHSHC2HCHCHC4HCHC3NC6H2NH3CH2CH4CHC2H3CSC5H3CSH2CHC2FeC5H5SHCHSC2NCHC5H4C2SFeS2FeS2FeSFeS3CSHFeSHFeSFeCS2CHS3FeSFeS2FeS2FeSFeS3CSFeS2FeS2FeSFeS3FeS2FeSNFeSFeS3CHCH2C6H4C6H6C14H4C6H4C6H4NC2SHC3FeC6H4C6H4C6H4C6H5CH4SHC3H3NC6H8C2H2C3H2CNC6H8NC6H8NC2H2SCHC2HCH3CH2NC6H8C2HCHCSFeCSCH2CH2CH2C2HC2H2CH3C2HCH2CHSH2SCNC2SCH2NHNFeCH4C2HC2SHFeH2Fe2H2S2HC4HCHCSNFeCH2CHNC2HFeH2CHS2H2C2HC3SCHNHCHC2FeCNH4CH4CH2CH5FeH2CHSCSHSC2H2C5HSHC6H4CSCSC2H2C2HCH3S2FeS2FeS2FeSFeS4HC4FeH2C6H6C3HCH2NHC6H7C3H5CS3CH2CNH4C2HSCHSC2HFeH3CNC2HCHCHFeCH2CHCFeC2HFeHCHC3HNSC2HSC2H6CSC3SCH4C2HCSHC4HNCFeHSHNH2FeH2CH2CFeNH2CH2C2FeHCHCH3CFeS2FeS2FeSFeS4FeS2FeS2FeS2FeSFeS3HSHC2SH2FeHNFeSHSCFeHFeS2FeS2FeSFeS3C7H3C6H5C2HS2FeHC6H4C2HNC2HCH2C4H3CHC9H4C6H4C6H4C6H6CHC3HCH5CNC6H6C4NC6H8NC6H2CH5NH2CHCHCHCHC2H3CHCSH3C3SC2NSHSCH2C3H3CNHC2HCSHCSH3C2HSCFeHCHFeHC3HSNFeHCH2SNHCH5CH2CSFeCH3CHCHC2HSHCH5C2H2CHNCN2SH3CHC2SH2CSH3C3SC7H2C2HCNCH4CSCFeH3FeS2FeS2HFeCS2FeS2FeS2FeSFeS3C7NCHCHS2HFeCSHSH2SHCS2CHCHFeS2CHFeSFeSFeS2FeS2FeSFeSHSC6H4C6H4C6H6SC2HC2SH2C4HC2H3CHC4H4CHC4HCH2CHC6H4CFeC4H3SC6H2FeHCHNC6H8NFeHC2H2SH2NHC2NC6H8NC6H8SCH2FeHCHCH2NCHC3H3CH2SC3HSC2HCH2C4HFeSH2C4HCH2CH4C3FeS2FeS2Fe2S3FeS2FeS2FeSFeS3FeS2FeS2FeSFeS3FeHNCSNFeSFeSHCFeS2FeS2FeSFeS3CH2CH3FeSHC6H2SH3C3HC6H4C3H5C9H4C6H5C4H4NC6H4C6H4C3HSH2C6H5C5H5FeCNC2HSCHC3H4CNC6H4SH3CH2SHCHCH5C2HCN2C6H8NC6H4C3HC2H2NCHCHSC3SHC2HSC2HCHS2H2CH2CFeCH3C2SH2FeCH3C2H4CHC2SHC3HNCHCH4CSFeHNC2SH3CH5CSNSC2H4CNHCH2FeH6CHC5H2C2H2CHCH3C3SHFeH2CSNH2CHC3SFeCHCH2SHCH3C2H2CH4CH2SCHNSCH4C3HFe2CSC3H2CSH4NHNFeSFeSCFeS2CSCFeSCFeSFeSCSFeS2FeSHFeSFeHS3H3SC2SHCSHFeCFeSNC4HS2H2FeSFeSFeSCHS2HCH2C7H2SHC2FeH2CH4C6H4CH3CFeC2HC4HCH2FeHC6H7SCSHFeCHFeCHSCHCH2C7H4C3HSHS2NC4SH3CHCH3CFeSH3CH2SC2HC5H2SFeHC3HSCH3CH4CHSCSH2CH2C3SC2H3CHC4FeNH2CFeC2HSHNSCSC3FeHC2H2CH2CHNHCSCHNC2H2C2SHC2HNCHSCH2CHCHSCSNCH5FeH3CH2CS2H2FeHSH2SCHSCNC4HC2H3CHC3HC2HSFeHCHCHCH3C2HC2NH4C5HC2H2S2CSCSHC2HSHCHCHCFeH4CHNH4FeHFeNCHCHC2HCH2C2H2CHFeHC3HSH2C2S3HSFeS2FeS2FeSFeS3C2HCSHC2FeSCH2FeHC3SFeS2FeS2FeSFeS3FeS2FeS2FeSFeS3CSHSFeSFeSHC6H4CSC4H3C8H3C6H4FeCHC7H3CHCH6C6H4C6H4C6H4C2SHC7H3FeCFeCH5NC2HCH6NC6H9CH2C5SH3SCNC6H5SCHNC6H9CSCH2SCFeH2C3SHCHNH3CHNSHCHCNC6H9NC6H6FeHS2HS2C2HFeH2C4H2C3H3C3H5FeH4NSHCHFeCSC2SNCHCNHNC3HS2C2FeCH3SHC4HFeH5CHCNCSCSHNSH2FeSHS2CFeSFeHSCFeS2FeS2FeSFeS3H2C3HSHCSFe2HSFeSHFeSFeS2HFeHCHCHC2H2CH2C9H2NC3H2CH2SCFeHC4HCH4CH4CHNCHFeC2H2CHCH2CH7C2NH2FeHCSHCHSC6H4C2H4CHCHCH2FeC3HSC2HCHCHNC2HC4H2FeNC2SH2SHCHCHC2NH2FeH2CNC2NC2HSH3C2SHCHCHC3H2
_chemical_formula_sum              "C2304 H2304 S768 Fe384 N192"
_cell_length_a       133.493
_cell_length_b       66.341
_cell_length_c       67.3152
_cell_angle_alpha    74.1058
_cell_angle_beta     74.0619
_cell_angle_gamma    74.2345

_space_group_name_H-M_alt    "P 1"
_space_group_IT_number       1

loop_
  _space_group_symop_operation_xyz
  'x, y, z'

loop_
  _atom_site_type_symbol
  _atom_site_label
  _atom_site_symmetry_multiplicity
  _atom_site_fract_x
  _atom_site_fract_y
  _atom_site_fract_z
  _atom_site_occupancy
  C   C1        1.0  0.99196  0.39360  0.29855  1.0000
  C   C2        1.0  0.20278  0.10277  0.23175  1.0000
  C   C3        1.0  0.20463  0.07944  0.26638  1.0000
  H   H1        1.0  0.01652  0.38595  0.25285  1.0000
  H   H2        1.0  0.03928  0.47294  0.23456  1.0000
  S   S1        1.0  0.21738  0.05849  0.19559  1.0000
  C   C4        1.0  0.02558  0.44580  0.20422  1.0000
  S   S2        1.0  0.17375  0.06623  0.26205  1.0000
  H   H3        1.0  0.21190  0.03694  0.24001  1.0000
  Fe  Fe1       1.0  0.17499  0.05331  0.29584  1.0000
  H   H4        1.0  0.20307  0.11906  0.23261  1.0000
  N   N1        1.0  0.01986  0.42820  0.21178  1.0000
  H   H5        1.0  0.02172  0.45926  0.19288  1.0000
  C   C5        1.0  0.01564  0.39707  0.23793  1.0000
  H   H6        1.0  0.23444  0.05819  0.24492  1.0000
  C   C6        1.0  0.00257  0.47303  0.15978  1.0000
  H   H7        1.0  0.15026  0.02190  0.26197  1.0000
  C   C7        1.0  0.17296  0.01352  0.24945  1.0000
  S   S3        1.0  0.18243  0.01911  0.30769  1.0000
  S   S4        1.0  0.01920  0.42588  0.29509  1.0000
  S   S5        1.0  0.04411  0.39497  0.26200  1.0000
  C   C8        1.0  0.00080  0.47290  0.28113  1.0000
  H   H8        1.0  0.19622  0.08530  0.27243  1.0000
  C   C9        1.0  0.15540  0.00763  0.27004  1.0000
  S   S6        1.0  0.18262  0.06712  0.31328  1.0000
  C   C10       1.0  0.99926  0.37684  0.29018  1.0000
  C   C11       1.0  0.99677  0.36835  0.27555  1.0000
  H   H9        1.0  0.17165  0.02735  0.25619  1.0000
  N   N2        1.0  0.16540  0.00138  0.25515  1.0000
  S   S7        1.0  0.23203  0.01055  0.23414  1.0000
  H   H10       1.0  0.00667  0.37001  0.29542  1.0000
  H   H11       1.0  0.00231  0.35499  0.26955  1.0000
  C   C12       1.0  0.21978  0.07909  0.23789  1.0000
  H   H12       1.0  0.19434  0.10105  0.23633  1.0000
  C   C13       1.0  0.04640  0.41836  0.24312  1.0000
  C   C14       1.0  0.04155  0.43878  0.24726  1.0000
  C   C15       1.0  0.04302  0.45719  0.23134  1.0000
  C   C16       1.0  0.04947  0.45513  0.21140  1.0000
  C   C17       1.0  0.05448  0.43474  0.20748  1.0000
  C   C18       1.0  0.05286  0.41641  0.22322  1.0000
  H   H13       1.0  0.03670  0.44042  0.26270  1.0000
  H   H14       1.0  0.20576  0.10097  0.21504  1.0000
  H   H15       1.0  0.05949  0.43309  0.19211  1.0000
  H   H16       1.0  0.05663  0.40066  0.21997  1.0000
  H   H17       1.0  0.02568  0.45248  0.21758  1.0000
  C   C19       1.0  0.21067  0.06408  0.27989  1.0000
  C   C20       1.0  0.01390  0.42533  0.19957  1.0000
  C   C21       1.0  0.99170  0.46412  0.28791  1.0000
  H   H18       1.0  0.02591  0.41595  0.24002  1.0000
  S   S8        1.0  0.99450  0.40397  0.31775  1.0000
  H   H19       1.0  0.00512  0.38128  0.23129  1.0000
  H   H20       1.0  0.00922  0.49467  0.25684  1.0000
  S   S9        1.0  0.05109  0.47766  0.19087  1.0000
  C   C22       1.0  0.00928  0.39441  0.22584  1.0000
  H   H21       1.0  0.00353  0.40663  0.19694  1.0000
  Fe  Fe2       1.0  0.03402  0.40015  0.29352  1.0000
  N   N3        1.0  0.20918  0.08650  0.24560  1.0000
  H   H22       1.0  0.22339  0.08450  0.22137  1.0000
  H   H23       1.0  0.20703  0.05813  0.29626  1.0000
  C   C23       1.0  0.20520  0.05737  0.21385  1.0000
  C   C24       1.0  0.19584  0.06969  0.20756  1.0000
  C   C25       1.0  0.18613  0.07158  0.22235  1.0000
  C   C26       1.0  0.18576  0.06140  0.24358  1.0000
  C   C27       1.0  0.19501  0.04835  0.24984  1.0000
  C   C28       1.0  0.20473  0.04625  0.23492  1.0000
  H   H24       1.0  0.19614  0.07830  0.19129  1.0000
  H   H25       1.0  0.17897  0.08159  0.21744  1.0000
  H   H26       1.0  0.19476  0.04040  0.26623  1.0000
  C   C29       1.0  0.02092  0.41413  0.23059  1.0000
  C   C30       1.0  0.00840  0.40861  0.20653  1.0000
  H   H27       1.0  0.01336  0.43595  0.18431  1.0000
  Fe  Fe3       1.0  0.02393  0.43135  0.32223  1.0000
  Fe  Fe4       1.0  0.23199  0.03456  0.20355  1.0000
  H   H28       1.0  0.18839  0.01816  0.23016  1.0000
  H   H29       1.0  0.03394  0.43990  0.19630  1.0000
  C   C31       1.0  0.00222  0.48769  0.26198  1.0000
  H   H30       1.0  0.00675  0.46852  0.29062  1.0000
  S   S10       1.0  0.99141  0.44164  0.16729  1.0000
  C   C32       1.0  0.22606  0.06399  0.25105  1.0000
  C   C33       1.0  0.22146  0.05632  0.27212  1.0000
  H   H31       1.0  0.15703  0.01155  0.28374  1.0000
  C   C34       1.0  0.18243  0.00841  0.23473  1.0000
  H   H32       1.0  0.22626  0.04437  0.28238  1.0000
  S   S11       1.0  0.15988  0.05334  0.32057  1.0000
  S   S12       1.0  0.03968  0.40827  0.31824  1.0000
  H   H33       1.0  0.00663  0.46785  0.14515  1.0000
  C   C35       1.0  0.99443  0.49408  0.25001  1.0000
  S   S13       1.0  0.02616  0.37399  0.31585  1.0000
  C   C36       1.0  0.00494  0.49060  0.16406  1.0000
  C   C37       1.0  0.99468  0.46266  0.17390  1.0000
  Fe  Fe5       1.0  0.01160  0.40060  0.31902  1.0000
  C   C38       1.0  0.99183  0.48708  0.19697  1.0000
  C   C39       1.0  0.98950  0.46944  0.19277  1.0000
  H   H34       1.0  0.99079  0.45218  0.30262  1.0000
  H   H35       1.0  0.18162  0.38143  0.56271  1.0000
  H   H36       1.0  0.21696  0.39796  0.50169  1.0000
  N   N4        1.0  0.08812  0.29101  0.39454  1.0000
  S   S14       1.0  0.17892  0.14120  0.63786  1.0000
  S   S15       1.0  0.20635  0.34336  0.62984  1.0000
  C   C40       1.0  0.00886  0.47294  0.34142  1.0000
  Fe  Fe6       1.0  0.18141  0.38340  0.61201  1.0000
  S   S16       1.0  0.18757  0.35134  0.60381  1.0000
  S   S17       1.0  0.16691  0.40155  0.59901  1.0000
  H   H37       1.0  0.14478  0.28915  0.65006  1.0000
  C   C41       1.0  0.00660  0.48682  0.35514  1.0000
  Fe  Fe7       1.0  0.20371  0.35882  0.59690  1.0000
  S   S18       1.0  0.21434  0.35291  0.56570  1.0000
  C   C42       1.0  0.18340  0.25705  0.63834  1.0000
  S   S19       1.0  0.19741  0.39224  0.60276  1.0000
  Fe  Fe8       1.0  0.18719  0.33946  0.46473  1.0000
  S   S20       1.0  0.19853  0.31238  0.48059  1.0000
  S   S21       1.0  0.19191  0.36993  0.44392  1.0000
  Fe  Fe9       1.0  0.16873  0.31666  0.48306  1.0000
  S   S22       1.0  0.17857  0.28771  0.50036  1.0000
  S   S23       1.0  0.15122  0.31681  0.49081  1.0000
  Fe  Fe10      1.0  0.18494  0.31146  0.50864  1.0000
  S   S24       1.0  0.18614  0.30515  0.54224  1.0000
  Fe  Fe11      1.0  0.19114  0.29111  0.47071  1.0000
  S   S25       1.0  0.20287  0.26287  0.45983  1.0000
  S   S26       1.0  0.17409  0.34030  0.49390  1.0000
  S   S27       1.0  0.18085  0.31826  0.45222  1.0000
  H   H38       1.0  0.04188  0.45529  0.65119  1.0000
  H   H39       1.0  0.03254  0.40070  0.39630  1.0000
  C   C43       1.0  0.13639  0.09224  0.39241  1.0000
  C   C44       1.0  0.20289  0.37720  0.44775  1.0000
  C   C45       1.0  0.09829  0.27891  0.39152  1.0000
  C   C46       1.0  0.19002  0.10564  0.37939  1.0000
  Fe  Fe12      1.0  0.16810  0.06440  0.33944  1.0000
  S   S28       1.0  0.15942  0.09357  0.35345  1.0000
  C   C47       1.0  0.16721  0.31319  0.59078  1.0000
  C   C48       1.0  0.19014  0.24827  0.55618  1.0000
  Fe  Fe13      1.0  0.15263  0.19754  0.42872  1.0000
  S   S29       1.0  0.16835  0.17788  0.41541  1.0000
  S   S30       1.0  0.14423  0.22398  0.40636  1.0000
  Fe  Fe14      1.0  0.15393  0.17673  0.47385  1.0000
  S   S31       1.0  0.16951  0.15473  0.46440  1.0000
  S   S32       1.0  0.14697  0.17657  0.50843  1.0000
  Fe  Fe15      1.0  0.17394  0.18393  0.44133  1.0000
  S   S33       1.0  0.19073  0.18687  0.43761  1.0000
  Fe  Fe16      1.0  0.16263  0.15021  0.43935  1.0000
  S   S34       1.0  0.16743  0.11659  0.43277  1.0000
  S   S35       1.0  0.15881  0.20638  0.45225  1.0000
  S   S36       1.0  0.14635  0.16952  0.45117  1.0000
  Fe  Fe17      1.0  0.17043  0.20990  0.58525  1.0000
  S   S37       1.0  0.17211  0.21640  0.54991  1.0000
  S   S38       1.0  0.16834  0.23788  0.59972  1.0000
  Fe  Fe18      1.0  0.10891  0.33794  0.42894  1.0000
  S   S39       1.0  0.10334  0.31565  0.45927  1.0000
  S   S40       1.0  0.12587  0.34253  0.41803  1.0000
  Fe  Fe19      1.0  0.08731  0.34909  0.41623  1.0000
  S   S41       1.0  0.08005  0.32775  0.44583  1.0000
  S   S42       1.0  0.08024  0.36746  0.38770  1.0000
  Fe  Fe20      1.0  0.08849  0.34135  0.46226  1.0000
  S   S43       1.0  0.08119  0.35073  0.49372  1.0000
  Fe  Fe21      1.0  0.09568  0.30425  0.44008  1.0000
  S   S44       1.0  0.09741  0.26868  0.44506  1.0000
  S   S45       1.0  0.09455  0.36470  0.43312  1.0000
  S   S46       1.0  0.10233  0.32457  0.40931  1.0000
  Fe  Fe22      1.0  0.12115  0.34625  0.61180  1.0000
  S   S47       1.0  0.13537  0.33831  0.62631  1.0000
  Fe  Fe23      1.0  0.11099  0.35686  0.57342  1.0000
  S   S48       1.0  0.09528  0.35053  0.59356  1.0000
  S   S49       1.0  0.11491  0.36266  0.53770  1.0000
  S   S50       1.0  0.11308  0.37705  0.59340  1.0000
  S   S51       1.0  0.12073  0.32705  0.58971  1.0000
  C   C49       1.0  0.23513  0.40246  0.65594  1.0000
  C   C50       1.0  0.09376  0.31959  0.36637  1.0000
  S   S52       1.0  0.03643  0.36319  0.37041  1.0000
  H   H40       1.0  0.10233  0.37945  0.65412  1.0000
  H   H41       1.0  0.20213  0.39719  0.48907  1.0000
  H   H42       1.0  0.17503  0.37655  0.53354  1.0000
  H   H43       1.0  0.07828  0.29112  0.42509  1.0000
  H   H44       1.0  0.18427  0.24943  0.54674  1.0000
  H   H45       1.0  0.22142  0.36102  0.47819  1.0000
  C   C51       1.0  0.18240  0.38204  0.53009  1.0000
  S   S53       1.0  0.01520  0.40807  0.34656  1.0000
  C   C52       1.0  0.15323  0.29886  0.58693  1.0000
  N   N5        1.0  0.21651  0.35180  0.40879  1.0000
  C   C53       1.0  0.21057  0.33454  0.41745  1.0000
  H   H46       1.0  0.23315  0.44683  0.62640  1.0000
  S   S54       1.0  0.17468  0.03079  0.35549  1.0000
  C   C54       1.0  0.09042  0.35489  0.50566  1.0000
  C   C55       1.0  0.08716  0.35907  0.52605  1.0000
  C   C56       1.0  0.09460  0.36139  0.53609  1.0000
  C   C57       1.0  0.10535  0.35941  0.52584  1.0000
  C   C58       1.0  0.10858  0.35523  0.50546  1.0000
  C   C59       1.0  0.10113  0.35326  0.49529  1.0000
  H   H47       1.0  0.07886  0.36047  0.53410  1.0000
  H   H48       1.0  0.09196  0.36510  0.55158  1.0000
  H   H49       1.0  0.11686  0.35345  0.49750  1.0000
  H   H50       1.0  0.10364  0.35042  0.47946  1.0000
  C   C60       1.0  0.06829  0.36489  0.38306  1.0000
  C   C61       1.0  0.06111  0.35398  0.39871  1.0000
  C   C62       1.0  0.05148  0.35314  0.39448  1.0000
  C   C63       1.0  0.04894  0.36324  0.37466  1.0000
  C   C64       1.0  0.05622  0.37384  0.35899  1.0000
  C   C65       1.0  0.06584  0.37467  0.36319  1.0000
  H   H51       1.0  0.06290  0.34644  0.41412  1.0000
  H   H52       1.0  0.04588  0.34489  0.40670  1.0000
  H   H53       1.0  0.05447  0.38140  0.34360  1.0000
  H   H54       1.0  0.07138  0.38302  0.35094  1.0000
  H   H55       1.0  0.15316  0.01143  0.38424  1.0000
  H   H56       1.0  0.21647  0.39123  0.52946  1.0000
  C   C66       1.0  0.13135  0.23596  0.41803  1.0000
  C   C67       1.0  0.12804  0.25824  0.41264  1.0000
  C   C68       1.0  0.11779  0.26830  0.42170  1.0000
  C   C69       1.0  0.11060  0.25610  0.43536  1.0000
  C   C70       1.0  0.11387  0.23372  0.44065  1.0000
  C   C71       1.0  0.12432  0.22367  0.43229  1.0000
  H   H57       1.0  0.13348  0.26779  0.40168  1.0000
  H   H58       1.0  0.11547  0.28548  0.41779  1.0000
  H   H59       1.0  0.10834  0.22417  0.45124  1.0000
  H   H60       1.0  0.12685  0.20639  0.43640  1.0000
  C   C72       1.0  0.15391  0.18758  0.52013  1.0000
  C   C73       1.0  0.15100  0.18673  0.54197  1.0000
  C   C74       1.0  0.15648  0.19559  0.55143  1.0000
  C   C75       1.0  0.16476  0.20565  0.53894  1.0000
  C   C76       1.0  0.16755  0.20676  0.51711  1.0000
  C   C77       1.0  0.16227  0.19746  0.50779  1.0000
  H   H61       1.0  0.14453  0.17912  0.55160  1.0000
  H   H62       1.0  0.15425  0.19477  0.56830  1.0000
  H   H63       1.0  0.17402  0.21435  0.50742  1.0000
  H   H64       1.0  0.16473  0.19788  0.49105  1.0000
  C   C78       1.0  0.16503  0.11045  0.41075  1.0000
  C   C79       1.0  0.15969  0.12607  0.39631  1.0000
  C   C80       1.0  0.15815  0.12066  0.37871  1.0000
  C   C81       1.0  0.16207  0.09974  0.37518  1.0000
  C   C82       1.0  0.16746  0.08412  0.38955  1.0000
  C   C83       1.0  0.16881  0.08942  0.40740  1.0000
  H   H65       1.0  0.15672  0.14229  0.39875  1.0000
  H   H66       1.0  0.15389  0.13281  0.36775  1.0000
  H   H67       1.0  0.17046  0.06792  0.38707  1.0000
  H   H68       1.0  0.17293  0.07725  0.41855  1.0000
  C   C84       1.0  0.14469  0.32277  0.47001  1.0000
  C   C85       1.0  0.13375  0.32359  0.47508  1.0000
  C   C86       1.0  0.12804  0.32923  0.45912  1.0000
  C   C87       1.0  0.13322  0.33393  0.43792  1.0000
  C   C88       1.0  0.14425  0.33284  0.43273  1.0000
  C   C89       1.0  0.15001  0.32724  0.44880  1.0000
  H   H69       1.0  0.12961  0.32047  0.49142  1.0000
  H   H70       1.0  0.11955  0.33071  0.46330  1.0000
  H   H71       1.0  0.14831  0.33660  0.41630  1.0000
  H   H72       1.0  0.15848  0.32670  0.44476  1.0000
  C   C90       1.0  0.19878  0.24200  0.45473  1.0000
  C   C91       1.0  0.20671  0.22495  0.44829  1.0000
  C   C92       1.0  0.20402  0.20820  0.44338  1.0000
  C   C93       1.0  0.19337  0.20820  0.44489  1.0000
  C   C94       1.0  0.18532  0.22501  0.45181  1.0000
  C   C95       1.0  0.18804  0.24200  0.45667  1.0000
  H   H73       1.0  0.14876  0.29609  0.57707  1.0000
  C   C96       1.0  0.14444  0.24283  0.49144  1.0000
  H   H74       1.0  0.17707  0.22514  0.45299  1.0000
  H   H75       1.0  0.18192  0.25523  0.46153  1.0000
  C   C97       1.0  0.15808  0.38416  0.60597  1.0000
  C   C98       1.0  0.14975  0.38829  0.59548  1.0000
  C   C99       1.0  0.14280  0.37405  0.60119  1.0000
  C   C100      1.0  0.14415  0.35588  0.61754  1.0000
  C   C101      1.0  0.15241  0.35191  0.62800  1.0000
  C   C102      1.0  0.15938  0.36592  0.62218  1.0000
  H   H76       1.0  0.14873  0.40240  0.58291  1.0000
  H   H77       1.0  0.13639  0.37722  0.59311  1.0000
  H   H78       1.0  0.21472  0.32056  0.41011  1.0000
  C   C103      1.0  0.23477  0.47264  0.34919  1.0000
  H   H79       1.0  0.98961  0.42092  0.40017  1.0000
  C   C104      1.0  0.19876  0.27118  0.61665  1.0000
  C   C105      1.0  0.19580  0.28797  0.62740  1.0000
  H   H80       1.0  0.20583  0.27024  0.60406  1.0000
  H   H81       1.0  0.20062  0.29982  0.62328  1.0000
  C   C106      1.0  0.20863  0.33653  0.55749  1.0000
  C   C107      1.0  0.20367  0.32129  0.57280  1.0000
  C   C108      1.0  0.19703  0.31134  0.56773  1.0000
  C   C109      1.0  0.19546  0.31628  0.54713  1.0000
  C   C110      1.0  0.20109  0.33026  0.53123  1.0000
  C   C111      1.0  0.20778  0.34029  0.53641  1.0000
  H   H82       1.0  0.20467  0.31783  0.58884  1.0000
  H   H83       1.0  0.19285  0.30024  0.57996  1.0000
  H   H84       1.0  0.20001  0.33391  0.51519  1.0000
  H   H85       1.0  0.21184  0.35168  0.52437  1.0000
  C   C112      1.0  0.20834  0.36484  0.46354  1.0000
  H   H86       1.0  0.14426  0.28306  0.61586  1.0000
  C   C113      1.0  0.23295  0.39812  0.63846  1.0000
  H   H87       1.0  0.20565  0.35097  0.47412  1.0000
  H   H88       1.0  0.16567  0.36268  0.63053  1.0000
  C   C114      1.0  0.13834  0.26568  0.45399  1.0000
  H   H89       1.0  0.13273  0.22435  0.49514  1.0000
  H   H90       1.0  0.22137  0.39057  0.62611  1.0000
  C   C115      1.0  0.13953  0.06315  0.37408  1.0000
  H   H91       1.0  0.20215  0.40516  0.42225  1.0000
  H   H92       1.0  0.15520  0.26786  0.50083  1.0000
  C   C116      1.0  0.22083  0.38868  0.45236  1.0000
  Fe  Fe24      1.0  0.18952  0.33898  0.63710  1.0000
  N   N6        1.0  0.19057  0.13340  0.39548  1.0000
  C   C117      1.0  0.19226  0.11210  0.39555  1.0000
  C   C118      1.0  0.18644  0.14869  0.37980  1.0000
  C   C119      1.0  0.18387  0.14277  0.36369  1.0000
  C   C120      1.0  0.18569  0.12109  0.36351  1.0000
  C   C121      1.0  0.19273  0.13964  0.41293  1.0000
  H   H93       1.0  0.18497  0.16559  0.37983  1.0000
  H   H94       1.0  0.18031  0.15492  0.35166  1.0000
  H   H95       1.0  0.20057  0.13044  0.41640  1.0000
  H   H96       1.0  0.19291  0.15696  0.40926  1.0000
  H   H97       1.0  0.18640  0.13646  0.42737  1.0000
  H   H98       1.0  0.15639  0.02448  0.41283  1.0000
  S   S55       1.0  0.23724  0.44465  0.40584  1.0000
  C   C122      1.0  0.14372  0.04190  0.37191  1.0000
  H   H99       1.0  0.13710  0.10358  0.37672  1.0000
  H   H100      1.0  0.22440  0.27726  0.50793  1.0000
  H   H101      1.0  0.07780  0.32083  0.38485  1.0000
  N   N7        1.0  0.11358  0.30267  0.54015  1.0000
  C   C123      1.0  0.10711  0.30359  0.55968  1.0000
  C   C124      1.0  0.10942  0.30296  0.52360  1.0000
  C   C125      1.0  0.09619  0.30451  0.56315  1.0000
  C   C126      1.0  0.09852  0.30392  0.52648  1.0000
  C   C127      1.0  0.09188  0.30476  0.54639  1.0000
  C   C128      1.0  0.12492  0.30266  0.53671  1.0000
  H   H102      1.0  0.11035  0.30368  0.57271  1.0000
  H   H103      1.0  0.11444  0.30294  0.50793  1.0000
  H   H104      1.0  0.09115  0.30520  0.57876  1.0000
  H   H105      1.0  0.09517  0.30476  0.51320  1.0000
  H   H106      1.0  0.08338  0.30602  0.54867  1.0000
  H   H107      1.0  0.12788  0.29552  0.55156  1.0000
  H   H108      1.0  0.12988  0.29315  0.52483  1.0000
  H   H109      1.0  0.12613  0.31941  0.53107  1.0000
  N   N8        1.0  0.05515  0.41994  0.38092  1.0000
  C   C129      1.0  0.04763  0.40864  0.39338  1.0000
  C   C130      1.0  0.05361  0.43311  0.36195  1.0000
  C   C131      1.0  0.03829  0.41034  0.38686  1.0000
  C   C132      1.0  0.04434  0.43526  0.35502  1.0000
  C   C133      1.0  0.03665  0.42380  0.36759  1.0000
  S   S56       1.0  0.17357  0.20246  0.64274  1.0000
  Fe  Fe25      1.0  0.19872  0.37631  0.63643  1.0000
  H   H110      1.0  0.05960  0.44192  0.35199  1.0000
  C   C134      1.0  0.22510  0.35094  0.41657  1.0000
  C   C135      1.0  0.22824  0.38373  0.39167  1.0000
  H   H111      1.0  0.02949  0.42513  0.36225  1.0000
  H   H112      1.0  0.06126  0.36507  0.64948  1.0000
  H   H113      1.0  0.21490  0.44306  0.63931  1.0000
  H   H114      1.0  0.11257  0.28989  0.65040  1.0000
  N   N9        1.0  0.12957  0.38359  0.47860  1.0000
  C   C136      1.0  0.13083  0.37902  0.45931  1.0000
  C   C137      1.0  0.12017  0.39565  0.48742  1.0000
  C   C138      1.0  0.12248  0.38612  0.44857  1.0000
  C   C139      1.0  0.11164  0.40304  0.47711  1.0000
  C   C140      1.0  0.11280  0.39804  0.45765  1.0000
  C   C141      1.0  0.13790  0.37390  0.49080  1.0000
  H   H115      1.0  0.11904  0.39875  0.50299  1.0000
  H   H116      1.0  0.12344  0.38189  0.43356  1.0000
  H   H117      1.0  0.10407  0.41182  0.48460  1.0000
  H   H118      1.0  0.10616  0.40306  0.44978  1.0000
  H   H119      1.0  0.14585  0.36933  0.48044  1.0000
  H   H120      1.0  0.13854  0.38514  0.49974  1.0000
  C   C142      1.0  0.19578  0.39117  0.54189  1.0000
  H   H121      1.0  0.19875  0.39269  0.55478  1.0000
  C   C143      1.0  0.18612  0.38465  0.54649  1.0000
  H   H122      1.0  0.21062  0.41822  0.51715  1.0000
  H   H123      1.0  0.19509  0.09999  0.40845  1.0000
  C   C144      1.0  0.22307  0.39349  0.63978  1.0000
  C   C145      1.0  0.21189  0.40097  0.51722  1.0000
  H   H124      1.0  0.13824  0.36938  0.45234  1.0000
  S   S57       1.0  0.18552  0.19221  0.59601  1.0000
  N   N10       1.0  0.20160  0.39489  0.52155  1.0000
  C   C146      1.0  0.19247  0.25590  0.62188  1.0000
  H   H125      1.0  0.15637  0.29567  0.65298  1.0000
  H   H126      1.0  0.19120  0.08872  0.37969  1.0000
  Fe  Fe26      1.0  0.18273  0.21901  0.61236  1.0000
  S   S58       1.0  0.19606  0.23554  0.60767  1.0000
  Fe  Fe27      1.0  0.10520  0.32191  0.61117  1.0000
  H   H127      1.0  0.13595  0.35913  0.50228  1.0000
  C   C147      1.0  0.19775  0.39337  0.50527  1.0000
  C   C148      1.0  0.18820  0.38658  0.50929  1.0000
  S   S59       1.0  0.10413  0.28774  0.61643  1.0000
  Fe  Fe28      1.0  0.09795  0.36847  0.61505  1.0000
  C   C149      1.0  0.11124  0.40334  0.63588  1.0000
  H   H128      1.0  0.07221  0.28629  0.40630  1.0000
  C   C150      1.0  0.14719  0.05650  0.40381  1.0000
  H   H129      1.0  0.18538  0.38473  0.49635  1.0000
  C   C151      1.0  0.11548  0.27241  0.62604  1.0000
  C   C152      1.0  0.15156  0.03519  0.40200  1.0000
  C   C153      1.0  0.18068  0.27342  0.64960  1.0000
  C   C154      1.0  0.21477  0.27057  0.53942  1.0000
  C   C155      1.0  0.13403  0.24939  0.64070  1.0000
  C   C156      1.0  0.21464  0.44892  0.65303  1.0000
  C   C157      1.0  0.07974  0.28308  0.41178  1.0000
  S   S60       1.0  0.15994  0.19250  0.61316  1.0000
  Fe  Fe29      1.0  0.15928  0.21906  0.62861  1.0000
  C   C158      1.0  0.12243  0.25610  0.61633  1.0000
  C   C159      1.0  0.13181  0.24480  0.62345  1.0000
  H   H130      1.0  0.21719  0.39760  0.37106  1.0000
  Fe  Fe30      1.0  0.16794  0.01991  0.33389  1.0000
  H   H131      1.0  0.17172  0.14038  0.54614  1.0000
  H   H132      1.0  0.12785  0.09353  0.40037  1.0000
  H   H133      1.0  0.16152  0.27659  0.47375  1.0000
  C   C160      1.0  0.06490  0.41829  0.38784  1.0000
  H   H134      1.0  0.17463  0.14435  0.50756  1.0000
  H   H135      1.0  0.18603  0.25831  0.56808  1.0000
  H   H136      1.0  0.20360  0.26274  0.56859  1.0000
  H   H137      1.0  0.12223  0.42410  0.61931  1.0000
  C   C161      1.0  0.21755  0.27093  0.51780  1.0000
  H   H138      1.0  0.21797  0.41528  0.42636  1.0000
  H   H139      1.0  0.13721  0.23232  0.61586  1.0000
  H   H140      1.0  0.21352  0.26335  0.49213  1.0000
  N   N11       1.0  0.14128  0.07018  0.38990  1.0000
  S   S61       1.0  0.10623  0.33896  0.63482  1.0000
  H   H141      1.0  0.15341  0.33805  0.64084  1.0000
  H   H142      1.0  0.11455  0.27739  0.37389  1.0000
  C   C162      1.0  0.17751  0.14942  0.53567  1.0000
  C   C163      1.0  0.17914  0.15160  0.51381  1.0000
  H   H143      1.0  0.17458  0.17016  0.57159  1.0000
  H   H144      1.0  0.16470  0.24876  0.48647  1.0000
  N   N12       1.0  0.19965  0.25585  0.54288  1.0000
  C   C164      1.0  0.18103  0.15675  0.56664  1.0000
  H   H145      1.0  0.04314  0.44559  0.33988  1.0000
  S   S62       1.0  0.08609  0.39634  0.62725  1.0000
  N   N13       1.0  0.18297  0.15894  0.54369  1.0000
  H   H146      1.0  0.17867  0.14135  0.57549  1.0000
  H   H147      1.0  0.18832  0.15699  0.57144  1.0000
  C   C165      1.0  0.11789  0.27730  0.64288  1.0000
  Fe  Fe31      1.0  0.17501  0.17710  0.62531  1.0000
  C   C166      1.0  0.18624  0.16396  0.50011  1.0000
  H   H148      1.0  0.18738  0.16624  0.48309  1.0000
  C   C167      1.0  0.19155  0.17409  0.50839  1.0000
  H   H149      1.0  0.19242  0.23141  0.56463  1.0000
  H   H150      1.0  0.14867  0.06211  0.41623  1.0000
  C   C168      1.0  0.21951  0.38441  0.38374  1.0000
  C   C169      1.0  0.18976  0.17150  0.53037  1.0000
  C   C170      1.0  0.10646  0.28689  0.37584  1.0000
  H   H151      1.0  0.19361  0.18003  0.53671  1.0000
  H   H152      1.0  0.19678  0.18436  0.49780  1.0000
  N   N14       1.0  0.15628  0.29510  0.62144  1.0000
  C   C171      1.0  0.15074  0.29149  0.60888  1.0000
  H   H153      1.0  0.09189  0.33578  0.35706  1.0000
  C   C172      1.0  0.16454  0.30552  0.61265  1.0000
  C   C173      1.0  0.15814  0.26323  0.48523  1.0000
  H   H154      1.0  0.19764  0.25003  0.51468  1.0000
  C   C174      1.0  0.21727  0.37058  0.46585  1.0000
  H   H155      1.0  0.21028  0.19531  0.43806  1.0000
  C   C175      1.0  0.16150  0.30983  0.57788  1.0000
  H   H156      1.0  0.21501  0.22484  0.44674  1.0000
  H   H157      1.0  0.17368  0.32165  0.58387  1.0000
  H   H158      1.0  0.14671  0.23392  0.50620  1.0000
  C   C176      1.0  0.20583  0.26265  0.55185  1.0000
  H   H159      1.0  0.16901  0.30825  0.62254  1.0000
  N   N15       1.0  0.14946  0.25877  0.47880  1.0000
  H   H160      1.0  0.14049  0.09752  0.40182  1.0000
  C   C177      1.0  0.20637  0.39544  0.43441  1.0000
  H   H161      1.0  0.16355  0.31562  0.56088  1.0000
  C   C178      1.0  0.14975  0.02786  0.38600  1.0000
  H   H162      1.0  0.20231  0.33999  0.41471  1.0000
  C   C179      1.0  0.00051  0.46701  0.33712  1.0000
  C   C180      1.0  0.98990  0.47584  0.34569  1.0000
  C   C181      1.0  0.13641  0.23756  0.48542  1.0000
  H   H163      1.0  0.20682  0.36900  0.38649  1.0000
  H   H164      1.0  0.08205  0.26552  0.41802  1.0000
  H   H165      1.0  0.11045  0.31396  0.35128  1.0000
  H   H166      1.0  0.22992  0.47559  0.62460  1.0000
  C   C182      1.0  0.05817  0.39913  0.63665  1.0000
  H   H167      1.0  0.13602  0.27476  0.43928  1.0000
  H   H168      1.0  0.18348  0.11623  0.35143  1.0000
  H   H169      1.0  0.21936  0.27677  0.54652  1.0000
  H   H170      1.0  0.06576  0.40536  0.40222  1.0000
  H   H171      1.0  0.07203  0.41414  0.37529  1.0000
  C   C183      1.0  0.21143  0.26322  0.50892  1.0000
  C   C184      1.0  0.21535  0.40114  0.43664  1.0000
  H   H172      1.0  0.23268  0.39646  0.38522  1.0000
  H   H173      1.0  0.20974  0.32942  0.43488  1.0000
  C   C185      1.0  0.10415  0.30738  0.36320  1.0000
  Fe  Fe32      1.0  0.03072  0.38420  0.34102  1.0000
  C   C186      1.0  0.08581  0.31110  0.38223  1.0000
  C   C187      1.0  0.13333  0.24916  0.46660  1.0000
  H   H174      1.0  0.05439  0.43351  0.62892  1.0000
  C   C188      1.0  0.14651  0.27019  0.46027  1.0000
  H   H175      1.0  0.12064  0.25240  0.60317  1.0000
  H   H176      1.0  0.10020  0.26314  0.40153  1.0000
  H   H177      1.0  0.12711  0.24525  0.46175  1.0000
  S   S63       1.0  0.02214  0.46296  0.33005  1.0000
  C   C189      1.0  0.20245  0.25568  0.52178  1.0000
  H   H178      1.0  0.15046  0.28284  0.45017  1.0000
  C   C190      1.0  0.21370  0.36820  0.39252  1.0000
  Fe  Fe33      1.0  0.18860  0.03274  0.32783  1.0000
  H   H179      1.0  0.04895  0.39776  0.40816  1.0000
  S   S64       1.0  0.23184  0.39570  0.45618  1.0000
  H   H180      1.0  0.06331  0.39776  0.62126  1.0000
  H   H181      1.0  0.13501  0.07410  0.36283  1.0000
  H   H182      1.0  0.17859  0.24515  0.64260  1.0000
  C   C191      1.0  0.15357  0.28694  0.64435  1.0000
  C   C192      1.0  0.23106  0.36691  0.40822  1.0000
  H   H183      1.0  0.99607  0.43324  0.37401  1.0000
  H   H184      1.0  0.23760  0.36654  0.41505  1.0000
  H   H185      1.0  0.14244  0.03636  0.35922  1.0000
  H   H186      1.0  0.06487  0.43369  0.39137  1.0000
  C   C193      1.0  0.23166  0.45964  0.63527  1.0000
  C   C194      1.0  0.10984  0.38434  0.65071  1.0000
  C   C195      1.0  0.12095  0.40961  0.63105  1.0000
  C   C196      1.0  0.05314  0.41932  0.64113  1.0000
  H   H187      1.0  0.00225  0.45559  0.32725  1.0000
  S   S65       1.0  0.18204  0.37057  0.64614  1.0000
  C   C197      1.0  0.12703  0.26557  0.65044  1.0000
  H   H188      1.0  0.15722  0.26956  0.64825  1.0000
  C   C198      1.0  0.18675  0.28914  0.64380  1.0000
  H   H189      1.0  0.22723  0.33815  0.42968  1.0000
  N   N16       1.0  0.22279  0.45741  0.65369  1.0000
  H   H190      1.0  0.10486  0.41290  0.62800  1.0000
  H   H191      1.0  0.23267  0.46766  0.36617  1.0000
  H   H192      1.0  0.99065  0.40126  0.36736  1.0000
  H   H193      1.0  0.15358  0.16018  0.65558  1.0000
  S   S66       1.0  0.20547  0.02033  0.33120  1.0000
  S   S67       1.0  0.14551  0.23550  0.65046  1.0000
  H   H194      1.0  0.07436  0.42899  0.65000  1.0000
  C   C199      1.0  0.12910  0.39692  0.64113  1.0000
  C   C200      1.0  0.07984  0.39471  0.65422  1.0000
  H   H195      1.0  0.13679  0.40133  0.63709  1.0000
  H   H196      1.0  0.01306  0.49109  0.35880  1.0000
  C   C201      1.0  0.23188  0.49434  0.33959  1.0000
  C   C202      1.0  0.05705  0.38077  0.65252  1.0000
  C   C203      1.0  0.12744  0.37796  0.65579  1.0000
  C   C204      1.0  0.99602  0.49483  0.36448  1.0000
  C   C205      1.0  0.98837  0.43347  0.38576  1.0000
  Fe  Fe34      1.0  0.03597  0.46562  0.71336  1.0000
  S   S68       1.0  0.22883  0.47663  0.80628  1.0000
  C   C206      1.0  0.00543  0.41807  0.90693  1.0000
  Fe  Fe35      1.0  0.21336  0.04681  0.74700  1.0000
  S   S69       1.0  0.19885  0.04535  0.73734  1.0000
  C   C207      1.0  0.21412  0.06618  0.82181  1.0000
  Fe  Fe36      1.0  0.20092  0.05952  0.78821  1.0000
  S   S70       1.0  0.18530  0.05860  0.78238  1.0000
  S   S71       1.0  0.20141  0.06887  0.81750  1.0000
  Fe  Fe37      1.0  0.19429  0.02832  0.77131  1.0000
  C   C208      1.0  0.21077  0.03530  0.87394  1.0000
  Fe  Fe38      1.0  0.19143  0.07583  0.74908  1.0000
  S   S72       1.0  0.18133  0.10669  0.73402  1.0000
  S   S73       1.0  0.20936  0.02790  0.78010  1.0000
  S   S74       1.0  0.20650  0.07869  0.75590  1.0000
  H   H197      1.0  0.21583  0.35046  0.68104  1.0000
  C   C209      1.0  0.19435  0.01184  0.85280  1.0000
  H   H198      1.0  0.23184  0.45015  0.74378  1.0000
  H   H199      1.0  0.15024  0.15310  0.74542  1.0000
  N   N17       1.0  0.04708  0.42114  0.66084  1.0000
  H   H200      1.0  0.01512  0.41989  0.87537  1.0000
  H   H201      1.0  0.20743  0.05226  0.86702  1.0000
  H   H202      1.0  0.15948  0.11512  0.71256  1.0000
  C   C210      1.0  0.11646  0.35161  0.67529  1.0000
  C   C211      1.0  0.22137  0.31915  0.67361  1.0000
  C   C212      1.0  0.21325  0.99987  0.86666  1.0000
  C   C213      1.0  0.01748  0.44226  0.89100  1.0000
  S   S75       1.0  0.01025  0.43806  0.77481  1.0000
  H   H203      1.0  0.21393  0.46825  0.70262  1.0000
  S   S76       1.0  0.05925  0.39175  0.72134  1.0000
  S   S77       1.0  0.04277  0.42619  0.76478  1.0000
  C   C214      1.0  0.00799  0.42910  0.80237  1.0000
  C   C215      1.0  0.00188  0.41028  0.84534  1.0000
  H   H204      1.0  0.11997  0.33823  0.66681  1.0000
  C   C216      1.0  0.99805  0.43705  0.81431  1.0000
  H   H205      1.0  0.02817  0.46107  0.90898  1.0000
  H   H206      1.0  0.12871  0.26915  0.66378  1.0000
  C   C217      1.0  0.22993  0.46427  0.75027  1.0000
  H   H207      1.0  0.15781  0.12652  0.74345  1.0000
  C   C218      1.0  0.06831  0.41299  0.68185  1.0000
  C   C219      1.0  0.06783  0.39328  0.69603  1.0000
  C   C220      1.0  0.07375  0.37431  0.68947  1.0000
  H   H208      1.0  0.19176  0.31543  0.68943  1.0000
  H   H209      1.0  0.22636  0.08628  0.77329  1.0000
  H   H210      1.0  0.06391  0.42768  0.68679  1.0000
  H   H211      1.0  0.07342  0.35901  0.70040  1.0000
  H   H212      1.0  0.01837  0.48085  0.89621  1.0000
  C   C221      1.0  0.01519  0.41244  0.81218  1.0000
  H   H213      1.0  0.02287  0.40610  0.80298  1.0000
  C   C222      1.0  0.21620  0.08278  0.82808  1.0000
  C   C223      1.0  0.22751  0.40155  0.67494  1.0000
  Fe  Fe39      1.0  0.02683  0.44010  0.75610  1.0000
  S   S78       1.0  0.02923  0.47381  0.74501  1.0000
  C   C224      1.0  0.19802  0.02644  0.85912  1.0000
  H   H214      1.0  0.19982  0.43939  0.67002  1.0000
  C   C225      1.0  0.18311  0.11532  0.70628  1.0000
  C   C226      1.0  0.18186  0.13737  0.69737  1.0000
  C   C227      1.0  0.18115  0.14535  0.67610  1.0000
  H   H215      1.0  0.19336  0.04270  0.85844  1.0000
  C   C228      1.0  0.18326  0.10919  0.67218  1.0000
  C   C229      1.0  0.18407  0.10117  0.69348  1.0000
  H   H216      1.0  0.18119  0.14842  0.70711  1.0000
  S   S79       1.0  0.22955  0.48743  0.71000  1.0000
  H   H217      1.0  0.15089  0.19018  0.67331  1.0000
  H   H218      1.0  0.18493  0.08416  0.70023  1.0000
  H   H219      1.0  0.21959  0.03310  0.86985  1.0000
  H   H220      1.0  0.17380  0.27405  0.66261  1.0000
  H   H221      1.0  0.17997  0.16237  0.66964  1.0000
  H   H222      1.0  0.17708  0.01514  0.81411  1.0000
  H   H223      1.0  0.10789  0.35150  0.68224  1.0000
  H   H224      1.0  0.22877  0.47190  0.67147  1.0000
  H   H225      1.0  0.99260  0.44993  0.80660  1.0000
  H   H226      1.0  0.13396  0.36772  0.66288  1.0000
  C   C230      1.0  0.22186  0.04718  0.82071  1.0000
  S   S80       1.0  0.99752  0.39627  0.87115  1.0000
  H   H227      1.0  0.02299  0.47972  0.78921  1.0000
  C   C231      1.0  0.04227  0.44237  0.66569  1.0000
  C   C232      1.0  0.23162  0.04478  0.82623  1.0000
  H   H228      1.0  0.15266  0.18213  0.71047  1.0000
  H   H229      1.0  0.04275  0.44923  0.79948  1.0000
  C   C233      1.0  0.04601  0.40322  0.67654  1.0000
  H   H230      1.0  0.20811  0.03235  0.89145  1.0000
  C   C234      1.0  0.04769  0.47933  0.79142  1.0000
  H   H231      1.0  0.03757  0.44812  0.83809  1.0000
  Fe  Fe40      1.0  0.04860  0.42211  0.73088  1.0000
  C   C235      1.0  0.07426  0.41368  0.66102  1.0000
  S   S81       1.0  0.05188  0.48025  0.76413  1.0000
  H   H232      1.0  0.23116  0.44613  0.78162  1.0000
  H   H233      1.0  0.22968  0.32035  0.66870  1.0000
  S   S82       1.0  0.03226  0.43299  0.72365  1.0000
  C   C236      1.0  0.15625  0.13571  0.68330  1.0000
  C   C237      1.0  0.01210  0.40295  0.83370  1.0000
  H   H234      1.0  0.02333  0.44845  0.87756  1.0000
  C   C238      1.0  0.15712  0.14382  0.73572  1.0000
  H   H235      1.0  0.00492  0.44864  0.94025  1.0000
  C   C239      1.0  0.07976  0.37500  0.66862  1.0000
  S   S83       1.0  0.03800  0.47738  0.86242  1.0000
  C   C240      1.0  0.20012  0.31620  0.68525  1.0000
  C   C241      1.0  0.22961  0.46197  0.77171  1.0000
  C   C242      1.0  0.05094  0.38278  0.67261  1.0000
  C   C243      1.0  0.00733  0.44223  0.92605  1.0000
  H   H236      1.0  0.00016  0.40066  0.78456  1.0000
  H   H237      1.0  0.23761  0.03015  0.82538  1.0000
  N   N18       1.0  0.20783  0.29946  0.67883  1.0000
  H   H238      1.0  0.05040  0.36871  0.68537  1.0000
  C   C244      1.0  0.04347  0.46226  0.80541  1.0000
  H   H239      1.0  0.01747  0.38940  0.84110  1.0000
  H   H240      1.0  0.22439  0.28780  0.66724  1.0000
  Fe  Fe41      1.0  0.04557  0.45963  0.75109  1.0000
  H   H241      1.0  0.21019  0.09739  0.82914  1.0000
  S   S84       1.0  0.05272  0.45450  0.71805  1.0000
  H   H242      1.0  0.16459  0.14814  0.73577  1.0000
  H   H243      1.0  0.17040  0.99866  0.85191  1.0000
  H   H244      1.0  0.18698  0.01684  0.84725  1.0000
  C   C245      1.0  0.22760  0.48007  0.78018  1.0000
  C   C246      1.0  0.22604  0.08066  0.83294  1.0000
  C   C247      1.0  0.20606  0.44685  0.67039  1.0000
  C   C248      1.0  0.99416  0.38511  0.81649  1.0000
  C   C249      1.0  0.22335  0.99890  0.73739  1.0000
  H   H245      1.0  0.00185  0.40555  0.90614  1.0000
  H   H246      1.0  0.20646  0.27882  0.66107  1.0000
  C   C250      1.0  0.99498  0.42777  0.83577  1.0000
  H   H247      1.0  0.19678  0.34824  0.69081  1.0000
  H   H248      1.0  0.23659  0.42211  0.81549  1.0000
  C   C251      1.0  0.21766  0.39688  0.67628  1.0000
  N   N19       1.0  0.11787  0.37199  0.66054  1.0000
  C   C252      1.0  0.21832  0.30085  0.67282  1.0000
  H   H249      1.0  0.22763  0.09369  0.83755  1.0000
  H   H250      1.0  0.15782  0.12258  0.67541  1.0000
  C   C253      1.0  0.21359  0.33611  0.68048  1.0000
  C   C254      1.0  0.23371  0.06159  0.83231  1.0000
  H   H251      1.0  0.18362  0.09823  0.66257  1.0000
  H   H252      1.0  0.00191  0.37545  0.81876  1.0000
  C   C255      1.0  0.21403  0.46278  0.68873  1.0000
  H   H253      1.0  0.12046  0.34868  0.68858  1.0000
  H   H254      1.0  0.22914  0.40463  0.68856  1.0000
  C   C256      1.0  0.22246  0.46468  0.67107  1.0000
  C   C257      1.0  0.00257  0.42620  0.92521  1.0000
  H   H255      1.0  0.20967  0.26551  0.68659  1.0000
  H   H256      1.0  0.03396  0.44299  0.67510  1.0000
  S   S85       1.0  0.22985  0.03678  0.72839  1.0000
  S   S86       1.0  0.03241  0.48862  0.68365  1.0000
  H   H257      1.0  0.22946  0.05190  0.76286  1.0000
  N   N20       1.0  0.01461  0.45016  0.90900  1.0000
  C   C258      1.0  0.20289  0.33476  0.68617  1.0000
  N   N21       1.0  0.15578  0.14819  0.71392  1.0000
  C   C259      1.0  0.15354  0.16899  0.70303  1.0000
  C   C260      1.0  0.15718  0.13162  0.70430  1.0000
  H   H258      1.0  0.22022  0.03421  0.81612  1.0000
  C   C261      1.0  0.01947  0.46717  0.90985  1.0000
  C   C262      1.0  0.23559  0.05508  0.76854  1.0000
  C   C263      1.0  0.04056  0.46162  0.82726  1.0000
  C   C264      1.0  0.01292  0.42613  0.88967  1.0000
  N   N22       1.0  0.20738  0.02036  0.86592  1.0000
  C   C265      1.0  0.22778  0.48469  0.73734  1.0000
  C   C266      1.0  0.99312  0.39942  0.79719  1.0000
  C   C267      1.0  0.04161  0.47832  0.83508  1.0000
  C   C268      1.0  0.15395  0.15686  0.67209  1.0000
  C   C269      1.0  0.18157  0.13135  0.66354  1.0000
  C   C270      1.0  0.20582  0.45368  0.68840  1.0000
  C   C271      1.0  0.20495  0.28000  0.67783  1.0000
  H   H259      1.0  0.21174  0.39652  0.69097  1.0000
  H   H260      1.0  0.19930  0.45186  0.70210  1.0000
  C   C272      1.0  0.15255  0.17366  0.68199  1.0000
  C   C273      1.0  0.21535  0.39323  0.65862  1.0000
  C   C274      1.0  0.01592  0.48842  0.79830  1.0000
  C   C275      1.0  0.23383  0.07470  0.77426  1.0000
  H   H261      1.0  0.04168  0.40464  0.69245  1.0000
  C   C276      1.0  0.17946  0.99804  0.81996  1.0000
  H   H262      1.0  0.01352  0.48899  0.71774  1.0000
  H   H263      1.0  0.00503  0.47720  0.78782  1.0000
  H   H264      1.0  0.04699  0.44614  0.67495  1.0000
  C   C277      1.0  0.00575  0.48689  0.79777  1.0000
  H   H265      1.0  0.01583  0.47353  0.92447  1.0000
  C   C278      1.0  0.23179  0.00956  0.72845  1.0000
  H   H266      1.0  0.21554  0.00747  0.74378  1.0000
  H   H267      1.0  0.99657  0.42037  0.93855  1.0000
  S   S87       1.0  0.20255  0.38935  0.66066  1.0000
  H   H268      1.0  0.08400  0.36026  0.66352  1.0000
  H   H269      1.0  0.19636  0.28005  0.68484  1.0000
  C   C279      1.0  0.98839  0.48202  0.91624  1.0000
  H   H270      1.0  0.98860  0.47455  0.90368  1.0000
  S   S88       1.0  0.18299  0.31024  0.65709  1.0000
  C   C280      1.0  0.04551  0.49568  0.82099  1.0000
  Fe  Fe42      1.0  0.23752  0.00129  0.90014  1.0000
  C   C281      1.0  0.00159  0.53870  0.26168  1.0000
  Fe  Fe43      1.0  0.19699  0.63123  0.08939  1.0000
  S   S89       1.0  0.18653  0.61361  0.11703  1.0000
  S   S90       1.0  0.20307  0.62297  0.05734  1.0000
  Fe  Fe44      1.0  0.19681  0.66390  0.11324  1.0000
  S   S91       1.0  0.18636  0.64914  0.14283  1.0000
  S   S92       1.0  0.20074  0.69552  0.10984  1.0000
  Fe  Fe45      1.0  0.19686  0.61796  0.13625  1.0000
  S   S93       1.0  0.20233  0.58948  0.16110  1.0000
  Fe  Fe46      1.0  0.17712  0.64638  0.12087  1.0000
  S   S94       1.0  0.15949  0.66003  0.12659  1.0000
  S   S95       1.0  0.20815  0.63294  0.10820  1.0000
  S   S96       1.0  0.18675  0.66359  0.09177  1.0000
  Fe  Fe47      1.0  0.01575  0.52809  0.18738  1.0000
  H   H271      1.0  0.20005  0.67132  0.03187  1.0000
  Fe  Fe48      1.0  0.18991  0.91874  0.22901  1.0000
  S   S97       1.0  0.17294  0.91934  0.22968  1.0000
  S   S98       1.0  0.19813  0.94311  0.20437  1.0000
  Fe  Fe49      1.0  0.19091  0.88237  0.26746  1.0000
  S   S99       1.0  0.17398  0.87999  0.27138  1.0000
  Fe  Fe50      1.0  0.17778  0.88315  0.23595  1.0000
  S   S100      1.0  0.17621  0.86022  0.21717  1.0000
  Fe  Fe51      1.0  0.17075  0.91614  0.26477  1.0000
  S   S101      1.0  0.19514  0.88309  0.23272  1.0000
  S   S102      1.0  0.18732  0.91805  0.26349  1.0000
  Fe  Fe52      1.0  0.13390  0.75608  0.02331  1.0000
  S   S103      1.0  0.12636  0.76170  0.05620  1.0000
  Fe  Fe53      1.0  0.15668  0.75461  0.17483  1.0000
  S   S104      1.0  0.14148  0.76542  0.19695  1.0000
  S   S105      1.0  0.16931  0.72876  0.18797  1.0000
  Fe  Fe54      1.0  0.14932  0.78430  0.13653  1.0000
  S   S106      1.0  0.13363  0.79833  0.15594  1.0000
  S   S107      1.0  0.15349  0.79329  0.10084  1.0000
  Fe  Fe55      1.0  0.14341  0.79861  0.17862  1.0000
  S   S108      1.0  0.14084  0.82397  0.19789  1.0000
  Fe  Fe56      1.0  0.13344  0.76381  0.17222  1.0000
  S   S109      1.0  0.11921  0.74784  0.18120  1.0000
  S   S110      1.0  0.15909  0.78751  0.15760  1.0000
  S   S111      1.0  0.14864  0.75000  0.15181  1.0000
  H   H272      1.0  0.99982  0.55789  0.23094  1.0000
  S   S112      1.0  0.13773  0.72154  0.02245  1.0000
  S   S113      1.0  0.07789  0.60918  0.01724  1.0000
  C   C282      1.0  0.22751  0.86118  0.30648  1.0000
  Fe  Fe57      1.0  0.09648  0.65098  0.09555  1.0000
  S   S114      1.0  0.08570  0.66823  0.12056  1.0000
  S   S115      1.0  0.09614  0.66045  0.06095  1.0000
  Fe  Fe58      1.0  0.11205  0.62583  0.12387  1.0000
  S   S116      1.0  0.10250  0.64061  0.15128  1.0000
  S   S117      1.0  0.12854  0.60526  0.12200  1.0000
  Fe  Fe59      1.0  0.08840  0.63535  0.14217  1.0000
  S   S118      1.0  0.07599  0.62010  0.16819  1.0000
  Fe  Fe60      1.0  0.10072  0.67184  0.12736  1.0000
  S   S119      1.0  0.10561  0.70326  0.12380  1.0000
  S   S120      1.0  0.09832  0.61804  0.11643  1.0000
  S   S121      1.0  0.11112  0.65695  0.10063  1.0000
  S   S122      1.0  0.04160  0.57875  0.15277  1.0000
  C   C283      1.0  0.06625  0.60933  0.16359  1.0000
  C   C284      1.0  0.06021  0.59708  0.18079  1.0000
  C   C285      1.0  0.05263  0.58765  0.17775  1.0000
  C   C286      1.0  0.05087  0.59072  0.15748  1.0000
  C   C287      1.0  0.05679  0.60323  0.14031  1.0000
  C   C288      1.0  0.06450  0.61239  0.14330  1.0000
  H   H273      1.0  0.06148  0.59473  0.19654  1.0000
  H   H274      1.0  0.04810  0.57816  0.19110  1.0000
  H   H275      1.0  0.05546  0.60576  0.12458  1.0000
  H   H276      1.0  0.06905  0.62188  0.12996  1.0000
  C   C289      1.0  0.08344  0.62217  0.02988  1.0000
  C   C290      1.0  0.08180  0.61764  0.05205  1.0000
  C   C291      1.0  0.08589  0.62881  0.06203  1.0000
  C   C292      1.0  0.09164  0.64441  0.04976  1.0000
  C   C293      1.0  0.09348  0.64840  0.02773  1.0000
  C   C294      1.0  0.08925  0.63764  0.01788  1.0000
  H   H277      1.0  0.07723  0.60576  0.06148  1.0000
  H   H278      1.0  0.08438  0.62568  0.07911  1.0000
  H   H279      1.0  0.09783  0.66052  0.01823  1.0000
  Fe  Fe61      1.0  0.03800  0.50644  0.19512  1.0000
  C   C295      1.0  0.11682  0.73195  0.16633  1.0000
  C   C296      1.0  0.10816  0.72168  0.17464  1.0000
  C   C297      1.0  0.10527  0.71082  0.16246  1.0000
  C   C298      1.0  0.11091  0.71046  0.14166  1.0000
  C   C299      1.0  0.11983  0.71995  0.13369  1.0000
  C   C300      1.0  0.12287  0.73039  0.14604  1.0000
  H   H280      1.0  0.10340  0.72279  0.19033  1.0000
  H   H281      1.0  0.09824  0.70397  0.16867  1.0000
  H   H282      1.0  0.12419  0.71985  0.11759  1.0000
  H   H283      1.0  0.12961  0.73802  0.13950  1.0000
  H   H284      1.0  0.22099  0.57275  0.28824  1.0000
  H   H285      1.0  0.17992  0.76463  0.19018  1.0000
  C   C301      1.0  0.13451  0.76955  0.06802  1.0000
  C   C302      1.0  0.14160  0.78276  0.05607  1.0000
  C   C303      1.0  0.14735  0.79021  0.06623  1.0000
  C   C304      1.0  0.14611  0.78428  0.08830  1.0000
  C   C305      1.0  0.13911  0.77090  0.10012  1.0000
  C   C306      1.0  0.13337  0.76353  0.09000  1.0000
  H   H286      1.0  0.14242  0.78775  0.03911  1.0000
  H   H287      1.0  0.15272  0.80067  0.05700  1.0000
  H   H288      1.0  0.13806  0.76642  0.11709  1.0000
  H   H289      1.0  0.12793  0.75331  0.09925  1.0000
  C   C307      1.0  0.16591  0.85305  0.21002  1.0000
  C   C308      1.0  0.16883  0.84024  0.19492  1.0000
  C   C309      1.0  0.16124  0.83170  0.19060  1.0000
  C   C310      1.0  0.15056  0.83595  0.20129  1.0000
  C   C311      1.0  0.14756  0.84944  0.21581  1.0000
  C   C312      1.0  0.15517  0.85795  0.22017  1.0000
  H   H290      1.0  0.17708  0.83650  0.18679  1.0000
  H   H291      1.0  0.16369  0.82160  0.17920  1.0000
  H   H292      1.0  0.13931  0.85303  0.22404  1.0000
  H   H293      1.0  0.15276  0.86781  0.23179  1.0000
  H   H294      1.0  0.14730  0.65155  0.16996  1.0000
  N   N23       1.0  0.06586  0.53403  0.15325  1.0000
  H   H295      1.0  0.21353  0.88671  0.25918  1.0000
  C   C313      1.0  0.21252  0.93555  0.22911  1.0000
  C   C314      1.0  0.20874  0.94836  0.21135  1.0000
  H   H296      1.0  0.16097  0.76688  0.20850  1.0000
  C   C315      1.0  0.21384  0.96477  0.19840  1.0000
  H   H297      1.0  0.06237  0.51202  0.18273  1.0000
  H   H298      1.0  0.20867  0.92282  0.23907  1.0000
  S   S123      1.0  0.20005  0.86123  0.29189  1.0000
  C   C316      1.0  0.14061  0.59633  0.07115  1.0000
  C   C317      1.0  0.17633  0.97859  0.23159  1.0000
  H   H299      1.0  0.08511  0.71720  0.03268  1.0000
  S   S124      1.0  0.15008  0.76127  0.00495  1.0000
  C   C318      1.0  0.13726  0.62019  0.12338  1.0000
  C   C319      1.0  0.14829  0.61201  0.11938  1.0000
  C   C320      1.0  0.15527  0.62415  0.12017  1.0000
  C   C321      1.0  0.15117  0.64438  0.12509  1.0000
  C   C322      1.0  0.14016  0.65253  0.12903  1.0000
  C   C323      1.0  0.13322  0.64049  0.12815  1.0000
  H   H300      1.0  0.15145  0.59627  0.11575  1.0000
  H   H301      1.0  0.16376  0.61779  0.11708  1.0000
  H   H302      1.0  0.13696  0.66822  0.13275  1.0000
  H   H303      1.0  0.12474  0.64690  0.13137  1.0000
  C   C324      1.0  0.19338  0.70582  0.13206  1.0000
  C   C325      1.0  0.18757  0.72702  0.12946  1.0000
  C   C326      1.0  0.18034  0.73433  0.14679  1.0000
  C   C327      1.0  0.17920  0.72065  0.16683  1.0000
  C   C328      1.0  0.18548  0.69987  0.16965  1.0000
  C   C329      1.0  0.19247  0.69238  0.15221  1.0000
  H   H304      1.0  0.18835  0.73747  0.11390  1.0000
  H   H305      1.0  0.17558  0.75046  0.14454  1.0000
  H   H306      1.0  0.18470  0.68933  0.18516  1.0000
  H   H307      1.0  0.19716  0.67615  0.15431  1.0000
  C   C330      1.0  0.21156  0.59204  0.17416  1.0000
  C   C331      1.0  0.21400  0.61188  0.17186  1.0000
  C   C332      1.0  0.18989  0.55475  0.10928  1.0000
  H   H308      1.0  0.22923  0.93210  0.17404  1.0000
  H   H309      1.0  0.01064  0.49917  0.15255  1.0000
  C   C333      1.0  0.08843  0.71016  0.01843  1.0000
  H   H310      1.0  0.21037  0.62596  0.16158  1.0000
  C   C334      1.0  0.06631  0.52514  0.17398  1.0000
  H   H311      1.0  0.15502  0.57407  0.06076  1.0000
  H   H312      1.0  0.12819  0.57809  0.03544  1.0000
  C   C335      1.0  0.18398  0.58122  0.04639  1.0000
  C   C336      1.0  0.19350  0.58468  0.03216  1.0000
  C   C337      1.0  0.19928  0.59777  0.03545  1.0000
  C   C338      1.0  0.19538  0.60793  0.05258  1.0000
  C   C339      1.0  0.18564  0.60515  0.06626  1.0000
  C   C340      1.0  0.18004  0.59145  0.06343  1.0000
  Fe  Fe62      1.0  0.02286  0.53576  0.22293  1.0000
  H   H313      1.0  0.20686  0.59973  0.02490  1.0000
  H   H314      1.0  0.18238  0.61356  0.07900  1.0000
  H   H315      1.0  0.17260  0.58900  0.07428  1.0000
  S   S125      1.0  0.15713  0.93623  0.28420  1.0000
  N   N24       1.0  0.16652  0.72136  0.09740  1.0000
  C   C341      1.0  0.16887  0.74125  0.08936  1.0000
  C   C342      1.0  0.16389  0.71126  0.08493  1.0000
  C   C343      1.0  0.16848  0.75165  0.06842  1.0000
  C   C344      1.0  0.16330  0.72132  0.06396  1.0000
  C   C345      1.0  0.16557  0.74169  0.05572  1.0000
  C   C346      1.0  0.16721  0.71035  0.11920  1.0000
  H   H316      1.0  0.17094  0.74936  0.09919  1.0000
  H   H317      1.0  0.16223  0.69534  0.09119  1.0000
  H   H318      1.0  0.17016  0.76759  0.06232  1.0000
  H   H319      1.0  0.16110  0.71341  0.05413  1.0000
  H   H320      1.0  0.16503  0.74977  0.03957  1.0000
  H   H321      1.0  0.16037  0.70244  0.12707  1.0000
  H   H322      1.0  0.17479  0.69813  0.11925  1.0000
  H   H323      1.0  0.16701  0.72168  0.12880  1.0000
  H   H324      1.0  0.06510  0.52190  0.12772  1.0000
  C   C347      1.0  0.22168  0.93846  0.23332  1.0000
  C   C348      1.0  0.07640  0.55869  0.15204  1.0000
  C   C349      1.0  0.07075  0.55069  0.14232  1.0000
  N   N25       1.0  0.08080  0.69979  0.01509  1.0000
  C   C350      1.0  0.06795  0.67643  0.00872  1.0000
  C   C351      1.0  0.16954  0.68292  0.99563  1.0000
  H   H325      1.0  0.21092  0.97475  0.18462  1.0000
  H   H326      1.0  0.00068  0.51991  0.29355  1.0000
  H   H327      1.0  0.20261  0.58881  0.22940  1.0000
  C   C352      1.0  0.22383  0.90363  0.19312  1.0000
  C   C353      1.0  0.20647  0.58550  0.24254  1.0000
  H   H328      1.0  0.11955  0.80145  0.11532  1.0000
  N   N26       1.0  0.19462  0.67267  0.00461  1.0000
  H   H329      1.0  0.07006  0.55824  0.12614  1.0000
  N   N27       1.0  0.10754  0.78287  0.12319  1.0000
  C   C354      1.0  0.10827  0.78352  0.10235  1.0000
  C   C355      1.0  0.10103  0.77125  0.13876  1.0000
  C   C356      1.0  0.10282  0.77139  0.09671  1.0000
  C   C357      1.0  0.09532  0.75925  0.13366  1.0000
  C   C358      1.0  0.09638  0.75906  0.11251  1.0000
  C   C359      1.0  0.11386  0.79430  0.12918  1.0000
  H   H330      1.0  0.11340  0.79277  0.08991  1.0000
  H   H331      1.0  0.10051  0.77064  0.15530  1.0000
  H   H332      1.0  0.10386  0.77113  0.08021  1.0000
  H   H333      1.0  0.09046  0.74940  0.14606  1.0000
  H   H334      1.0  0.09240  0.74896  0.10846  1.0000
  H   H335      1.0  0.08080  0.55661  0.18109  1.0000
  C   C360      1.0  0.23464  0.50114  0.31759  1.0000
  H   H336      1.0  0.11863  0.78294  0.14041  1.0000
  N   N28       1.0  0.12208  0.69213  0.05929  1.0000
  C   C361      1.0  0.12878  0.67613  0.04981  1.0000
  C   C362      1.0  0.12475  0.69804  0.07478  1.0000
  C   C363      1.0  0.13825  0.66501  0.05640  1.0000
  C   C364      1.0  0.13410  0.68716  0.08188  1.0000
  C   C365      1.0  0.14084  0.67044  0.07272  1.0000
  C   C366      1.0  0.11222  0.70374  0.05220  1.0000
  H   H337      1.0  0.12687  0.67213  0.03687  1.0000
  H   H338      1.0  0.11960  0.71116  0.08184  1.0000
  H   H339      1.0  0.14358  0.65245  0.04877  1.0000
  H   H340      1.0  0.13605  0.69164  0.09446  1.0000
  H   H341      1.0  0.14810  0.66181  0.07817  1.0000
  H   H342      1.0  0.10562  0.70690  0.06595  1.0000
  H   H343      1.0  0.11348  0.71915  0.04113  1.0000
  H   H344      1.0  0.10970  0.69426  0.04386  1.0000
  C   C367      1.0  0.23132  0.95800  0.27635  1.0000
  H   H345      1.0  0.14240  0.95169  0.31854  1.0000
  C   C368      1.0  0.21312  0.56020  0.27181  1.0000
  H   H346      1.0  0.06392  0.66685  0.04273  1.0000
  C   C369      1.0  0.00042  0.56920  0.29332  1.0000
  C   C370      1.0  0.21741  0.87956  0.27235  1.0000
  S   S126      1.0  0.16686  0.70128  0.01174  1.0000
  H   H347      1.0  0.23112  0.89377  0.25787  1.0000
  C   C371      1.0  0.99627  0.52870  0.28140  1.0000
  C   C372      1.0  0.99587  0.54971  0.24598  1.0000
  S   S127      1.0  0.16341  0.59723  0.99997  1.0000
  S   S128      1.0  0.03207  0.52598  0.16618  1.0000
  C   C373      1.0  0.23070  0.91787  0.18637  1.0000
  C   C374      1.0  0.16695  0.98417  0.24632  1.0000
  C   C375      1.0  0.22296  0.96780  0.20279  1.0000
  C   C376      1.0  0.21902  0.57597  0.09102  1.0000
  C   C377      1.0  0.22571  0.97693  0.28289  1.0000
  H   H348      1.0  0.07543  0.68763  0.04808  1.0000
  H   H349      1.0  0.21908  0.57407  0.05953  1.0000
  H   H350      1.0  0.17503  0.97857  0.30875  1.0000
  H   H351      1.0  0.18110  0.88926  0.31812  1.0000
  H   H352      1.0  0.21651  0.57679  0.12385  1.0000
  C   C378      1.0  0.22556  0.88581  0.20951  1.0000
  C   C379      1.0  0.07478  0.68849  0.03213  1.0000
  Fe  Fe63      1.0  0.17610  0.56924  0.00970  1.0000
  H   H353      1.0  0.20951  0.91908  0.28922  1.0000
  H   H354      1.0  0.01475  0.55087  0.30390  1.0000
  H   H355      1.0  0.10854  0.80731  0.13695  1.0000
  C   C380      1.0  0.15844  0.95176  0.30057  1.0000
  H   H356      1.0  0.20283  0.96109  0.31056  1.0000
  H   H357      1.0  0.19095  0.78380  0.19996  1.0000
  C   C381      1.0  0.15694  0.66932  0.17615  1.0000
  H   H358      1.0  0.16439  0.65913  0.17008  1.0000
  H   H359      1.0  0.16443  0.69042  0.18362  1.0000
  H   H360      1.0  0.22717  0.56148  0.20868  1.0000
  H   H361      1.0  0.21830  0.60917  0.26525  1.0000
  H   H362      1.0  0.21448  0.54411  0.28159  1.0000
  S   S129      1.0  0.04004  0.53396  0.20575  1.0000
  C   C382      1.0  0.15695  0.68694  0.18362  1.0000
  C   C383      1.0  0.18268  0.78438  0.20809  1.0000
  H   H363      1.0  0.00483  0.57715  0.27849  1.0000
  H   H364      1.0  0.19658  0.57663  0.01906  1.0000
  C   C384      1.0  0.17650  0.77374  0.20253  1.0000
  H   H365      1.0  0.06330  0.66657  0.00624  1.0000
  H   H366      1.0  0.11094  0.59734  0.05040  1.0000
  C   C385      1.0  0.14722  0.66510  0.17615  1.0000
  Fe  Fe64      1.0  0.15326  0.72720  0.00197  1.0000
  C   C386      1.0  0.19244  0.67470  0.02663  1.0000
  C   C387      1.0  0.23234  0.87461  0.28866  1.0000
  H   H367      1.0  0.17136  0.65495  0.02090  1.0000
  C   C388      1.0  0.00610  0.55433  0.30768  1.0000
  Fe  Fe65      1.0  0.03339  0.55392  0.17761  1.0000
  H   H368      1.0  0.11961  0.57611  0.99965  1.0000
  H   H369      1.0  0.10952  0.61236  0.06975  1.0000
  C   C389      1.0  0.17807  0.79604  0.22404  1.0000
  H   H370      1.0  0.21416  0.84585  0.32072  1.0000
  H   H371      1.0  0.18285  0.80463  0.22801  1.0000
  H   H372      1.0  0.20191  0.63385  0.24317  1.0000
  C   C390      1.0  0.22656  0.94028  0.28248  1.0000
  C   C391      1.0  0.21081  0.96010  0.30082  1.0000
  N   N29       1.0  0.21005  0.60124  0.24639  1.0000
  C   C392      1.0  0.20809  0.62318  0.23368  1.0000
  S   S130      1.0  0.02169  0.50590  0.21516  1.0000
  H   H373      1.0  0.21557  0.62935  0.22825  1.0000
  C   C393      1.0  0.21522  0.59684  0.26254  1.0000
  C   C394      1.0  0.14730  0.70011  0.19099  1.0000
  C   C395      1.0  0.05994  0.52616  0.14263  1.0000
  C   C396      1.0  0.21679  0.57631  0.27554  1.0000
  H   H374      1.0  0.18901  0.54349  0.12497  1.0000
  H   H375      1.0  0.21700  0.90675  0.18605  1.0000
  N   N30       1.0  0.16755  0.79732  0.23390  1.0000
  N   N31       1.0  0.13779  0.67802  0.18348  1.0000
  C   C397      1.0  0.16144  0.78694  0.22853  1.0000
  H   H376      1.0  0.12525  0.61693  0.07855  1.0000
  C   C398      1.0  0.13160  0.58322  0.04562  1.0000
  H   H377      1.0  0.22616  0.58248  0.08617  1.0000
  C   C399      1.0  0.07679  0.54992  0.17322  1.0000
  H   H378      1.0  0.05290  0.53883  0.13888  1.0000
  C   C400      1.0  0.14958  0.95739  0.31636  1.0000
  C   C401      1.0  0.20801  0.56472  0.25509  1.0000
  H   H379      1.0  0.14725  0.71395  0.19670  1.0000
  H   H380      1.0  0.12089  0.68090  0.19386  1.0000
  H   H381      1.0  0.12625  0.68072  0.16620  1.0000
  C   C402      1.0  0.22109  0.61357  0.18313  1.0000
  C   C403      1.0  0.16291  0.80905  0.25099  1.0000
  H   H382      1.0  0.15441  0.81685  0.25093  1.0000
  H   H383      1.0  0.16709  0.82213  0.24900  1.0000
  C   C404      1.0  0.13772  0.69544  0.19073  1.0000
  C   C405      1.0  0.12776  0.67377  0.18237  1.0000
  C   C406      1.0  0.11463  0.60825  0.05471  1.0000
  H   H384      1.0  0.18891  0.54667  0.09766  1.0000
  H   H385      1.0  0.20542  0.62388  0.21920  1.0000
  C   C407      1.0  0.12999  0.60498  0.06953  1.0000
  C   C408      1.0  0.20412  0.56537  0.11796  1.0000
  S   S131      1.0  0.01630  0.55832  0.19572  1.0000
  C   C409      1.0  0.21529  0.97823  0.29469  1.0000
  H   H386      1.0  0.12807  0.65625  0.18601  1.0000
  H   H387      1.0  0.16346  0.79793  0.26650  1.0000
  H   H388      1.0  0.22475  0.92819  0.24663  1.0000
  H   H389      1.0  0.23112  0.92545  0.27779  1.0000
  H   H390      1.0  0.14400  0.60139  0.08141  1.0000
  N   N32       1.0  0.12561  0.59827  0.05699  1.0000
  H   H391      1.0  0.13026  0.70584  0.19637  1.0000
  H   H392      1.0  0.11454  0.62317  0.04217  1.0000
  C   C410      1.0  0.21636  0.57390  0.18746  1.0000
  C   C411      1.0  0.99939  0.49799  0.18246  1.0000
  C   C412      1.0  0.16583  0.77498  0.21283  1.0000
  H   H393      1.0  0.22285  0.62900  0.18149  1.0000
  H   H394      1.0  0.20540  0.55214  0.25169  1.0000
  C   C413      1.0  0.22353  0.57556  0.19851  1.0000
  H   H395      1.0  0.21802  0.90791  0.30815  1.0000
  S   S132      1.0  0.99996  0.52326  0.18524  1.0000
  C   C414      1.0  0.14677  0.58091  0.05968  1.0000
  C   C415      1.0  0.14226  0.57430  0.04681  1.0000
  S   S133      1.0  0.23382  0.59852  0.21213  1.0000
  H   H396      1.0  0.14703  0.56251  0.03759  1.0000
  S   S134      1.0  0.01531  0.53778  0.25684  1.0000
  H   H397      1.0  0.08009  0.57219  0.14347  1.0000
  H   H398      1.0  0.20247  0.56045  0.07064  1.0000
  C   C416      1.0  0.16770  0.95932  0.29790  1.0000
  S   S135      1.0  0.17720  0.56344  0.04354  1.0000
  H   H399      1.0  0.07185  0.52624  0.20086  1.0000
  C   C417      1.0  0.20564  0.56355  0.08248  1.0000
  H   H400      1.0  0.21454  0.55849  0.18921  1.0000
  H   H401      1.0  0.17459  0.95514  0.28570  1.0000
  H   H402      1.0  0.09053  0.72321  0.00466  1.0000
  C   C418      1.0  0.06826  0.67666  0.02921  1.0000
  H   H403      1.0  0.11487  0.66798  0.99785  1.0000
  H   H404      1.0  0.15304  0.78830  0.23599  1.0000
  C   C419      1.0  0.22581  0.59545  0.19662  1.0000
  H   H405      1.0  0.15370  0.84491  0.99733  1.0000
  H   H406      1.0  0.23528  0.86887  0.23204  1.0000
  H   H407      1.0  0.19833  0.63862  0.01287  1.0000
  H   H408      1.0  0.17755  0.96495  0.22460  1.0000
  C   C420      1.0  0.21258  0.86614  0.29018  1.0000
  C   C421      1.0  0.07172  0.53302  0.18430  1.0000
  C   C422      1.0  0.21509  0.57113  0.07610  1.0000
  C   C423      1.0  0.22734  0.88352  0.27155  1.0000
  H   H409      1.0  0.19977  0.56369  0.13432  1.0000
  N   N33       1.0  0.20025  0.56090  0.10316  1.0000
  Fe  Fe66      1.0  0.13128  0.73082  0.99301  1.0000
  S   S136      1.0  0.23134  0.52858  0.30608  1.0000
  C   C424      1.0  0.21772  0.85670  0.30710  1.0000
  N   N34       1.0  0.21657  0.94128  0.29515  1.0000
  H   H410      1.0  0.18339  0.56932  0.11003  1.0000
  C   C425      1.0  0.21358  0.57288  0.11213  1.0000
  C   C426      1.0  0.16791  0.97276  0.31083  1.0000
  H   H411      1.0  0.05703  0.51163  0.15265  1.0000
  S   S137      1.0  0.14135  0.57563  0.99552  1.0000
  H   H412      1.0  0.22942  0.99058  0.27893  1.0000
  C   C427      1.0  0.08037  0.69998  0.99496  1.0000
  H   H413      1.0  0.19138  0.98671  0.21422  1.0000
  H   H414      1.0  0.22708  0.97998  0.19232  1.0000
  H   H415      1.0  0.09013  0.64204  0.00101  1.0000
  S   S138      1.0  0.17071  0.54629  0.99809  1.0000
  H   H416      1.0  0.18760  0.66305  0.03716  1.0000
  C   C428      1.0  0.17155  0.66083  0.00416  1.0000
  C   C429      1.0  0.21201  0.92208  0.30240  1.0000
  C   C430      1.0  0.22704  0.95422  0.21996  1.0000
  H   H417      1.0  0.09588  0.69810  0.02067  1.0000
  C   C431      1.0  0.19763  0.65269  0.00020  1.0000
  H   H418      1.0  0.18779  0.69092  0.02870  1.0000
  H   H419      1.0  0.16095  0.97456  0.25068  1.0000
  H   H420      1.0  0.22019  0.87478  0.21506  1.0000
  C   C432      1.0  0.23411  0.88261  0.21909  1.0000
  H   H421      1.0  0.23144  0.85376  0.31955  1.0000
  H   H422      1.0  0.20508  0.92361  0.31592  1.0000
  S   S139      1.0  0.23674  0.53799  0.24388  1.0000
  S   S140      1.0  0.12619  0.76563  0.99536  1.0000
  C   C433      1.0  0.18411  0.99081  0.22578  1.0000
  S   S141      1.0  0.12200  0.70524  0.99617  1.0000
  H   H423      1.0  0.19124  0.70643  0.99211  1.0000
  H   H424      1.0  0.17550  0.62923  0.99753  1.0000
  C   C434      1.0  0.07397  0.68832  0.99146  1.0000
  H   H425      1.0  0.21081  0.99304  0.29947  1.0000
  C   C435      1.0  0.17381  0.64629  0.99098  1.0000
  H   H426      1.0  0.15095  0.99447  0.27650  1.0000
  H   H427      1.0  0.98870  0.58841  0.26537  1.0000
  N   N35       1.0  0.98954  0.57254  0.29725  1.0000
  H   H428      1.0  0.99541  0.50601  0.23528  1.0000
  S   S142      1.0  0.23795  0.92098  0.32159  1.0000
  C   C436      1.0  0.19848  0.98281  0.34814  1.0000
  H   H429      1.0  0.16963  0.92104  0.33163  1.0000
  S   S143      1.0  0.23600  0.87240  0.34997  1.0000
  H   H430      1.0  0.22766  0.50594  0.34927  1.0000
  H   H431      1.0  0.17571  0.95289  0.35093  1.0000
  C   C437      1.0  0.19997  0.96050  0.35529  1.0000
  H   H432      1.0  0.19324  0.95294  0.35976  1.0000
  H   H433      1.0  0.14300  0.97402  0.34188  1.0000
  Fe  Fe67      1.0  0.22964  0.90633  0.35370  1.0000
  S   S144      1.0  0.21214  0.92001  0.36293  1.0000
  C   C438      1.0  0.18844  0.90907  0.36005  1.0000
  C   C439      1.0  0.21888  0.95798  0.35050  1.0000
  C   C440      1.0  0.21020  0.94803  0.35614  1.0000
  N   N36       1.0  0.17934  0.91939  0.35280  1.0000
  H   H434      1.0  0.20229  0.88307  0.35844  1.0000
  C   C441      1.0  0.17266  0.93840  0.36049  1.0000
  H   H435      1.0  0.19724  0.86970  0.33220  1.0000
  C   C442      1.0  0.21738  0.98032  0.34353  1.0000
  H   H436      1.0  0.16424  0.94079  0.35941  1.0000
  H   H437      1.0  0.22678  0.94852  0.35145  1.0000
  H   H438      1.0  0.19064  0.91463  0.37168  1.0000
  C   C443      1.0  0.19505  0.89114  0.35266  1.0000
  H   H439      1.0  0.17263  0.93692  0.37735  1.0000
  C   C444      1.0  0.98945  0.54718  0.33053  1.0000
  C   C445      1.0  0.18317  0.89474  0.33000  1.0000
  C   C446      1.0  0.17675  0.91267  0.33770  1.0000
  H   H440      1.0  0.99431  0.50523  0.37543  1.0000
  C   C447      1.0  0.19231  0.88382  0.33775  1.0000
  C   C448      1.0  0.20719  0.99273  0.34214  1.0000
  C   C449      1.0  0.14990  0.97017  0.32954  1.0000
  H   H441      1.0  0.00491  0.53140  0.33739  1.0000
  H   H442      1.0  0.22415  0.98790  0.33882  1.0000
  C   C450      1.0  0.00056  0.54326  0.32636  1.0000
  C   C451      1.0  0.15896  0.97819  0.32675  1.0000
  S   S145      1.0  0.15895  0.99322  0.34482  1.0000
  H   H443      1.0  0.19060  0.99224  0.34707  1.0000
  C   C452      1.0  0.20265  0.91076  0.77522  1.0000
  C   C453      1.0  0.02178  0.54968  0.94373  1.0000
  H   H444      1.0  0.22065  0.99512  0.87204  1.0000
  C   C454      1.0  0.21127  0.94197  0.91292  1.0000
  C   C455      1.0  0.22105  0.96885  0.91085  1.0000
  C   C456      1.0  0.99832  0.56423  0.83828  1.0000
  Fe  Fe68      1.0  0.22211  0.54480  0.83405  1.0000
  Fe  Fe69      1.0  0.18185  0.55667  0.96727  1.0000
  H   H445      1.0  0.23378  0.97169  0.78684  1.0000
  S   S146      1.0  0.19298  0.53224  0.94928  1.0000
  Fe  Fe70      1.0  0.17515  0.60314  0.96933  1.0000
  C   C457      1.0  0.18534  0.91935  0.79898  1.0000
  S   S147      1.0  0.17729  0.63629  0.95230  1.0000
  H   H446      1.0  0.23730  0.92780  0.88890  1.0000
  C   C458      1.0  0.19184  0.94564  0.76753  1.0000
  H   H447      1.0  0.20125  0.63424  0.97621  1.0000
  H   H448      1.0  0.04769  0.53324  0.70422  1.0000
  S   S148      1.0  0.16939  0.58354  0.95412  1.0000
  H   H449      1.0  0.14390  0.87690  0.92803  1.0000
  H   H450      1.0  0.02444  0.53352  0.71181  1.0000
  C   C459      1.0  0.22499  0.50281  0.74610  1.0000
  S   S149      1.0  0.14736  0.73426  0.97208  1.0000
  H   H451      1.0  0.01114  0.54853  0.77286  1.0000
  S   S150      1.0  0.22133  0.99375  0.91495  1.0000
  S   S151      1.0  0.14587  0.79648  0.94869  1.0000
  H   H452      1.0  0.21641  0.58845  0.89708  1.0000
  H   H453      1.0  0.19847  0.96785  0.74022  1.0000
  S   S152      1.0  0.20839  0.56639  0.85121  1.0000
  H   H454      1.0  0.21797  0.90460  0.75366  1.0000
  Fe  Fe71      1.0  0.18719  0.87555  0.90825  1.0000
  S   S153      1.0  0.18172  0.89230  0.87781  1.0000
  S   S154      1.0  0.18042  0.85110  0.93635  1.0000
  Fe  Fe72      1.0  0.20557  0.89885  0.89698  1.0000
  S   S155      1.0  0.20154  0.91736  0.86630  1.0000
  S   S156      1.0  0.22100  0.90376  0.90034  1.0000
  Fe  Fe73      1.0  0.18456  0.92183  0.88366  1.0000
  S   S157      1.0  0.17441  0.95483  0.87565  1.0000
  Fe  Fe74      1.0  0.19922  0.88672  0.86254  1.0000
  S   S158      1.0  0.20658  0.88237  0.82926  1.0000
  S   S159      1.0  0.18868  0.90595  0.91531  1.0000
  S   S160      1.0  0.20451  0.86736  0.89228  1.0000
  Fe  Fe75      1.0  0.09908  0.60767  0.94222  1.0000
  S   S161      1.0  0.09151  0.63691  0.92121  1.0000
  S   S162      1.0  0.11441  0.58731  0.92843  1.0000
  Fe  Fe76      1.0  0.07611  0.62664  0.93936  1.0000
  S   S163      1.0  0.06385  0.62749  0.92065  1.0000
  Fe  Fe77      1.0  0.09009  0.65388  0.94698  1.0000
  S   S164      1.0  0.09471  0.68604  0.94160  1.0000
  S   S165      1.0  0.08392  0.59649  0.95927  1.0000
  S   S166      1.0  0.22864  0.51005  0.84671  1.0000
  Fe  Fe78      1.0  0.03615  0.54654  0.88730  1.0000
  S   S167      1.0  0.03076  0.51525  0.90266  1.0000
  S   S168      1.0  0.04722  0.55185  0.90558  1.0000
  Fe  Fe79      1.0  0.02295  0.55587  0.85353  1.0000
  S   S169      1.0  0.01665  0.52589  0.86692  1.0000
  S   S170      1.0  0.01792  0.57520  0.82319  1.0000
  Fe  Fe80      1.0  0.01454  0.53350  0.89814  1.0000
  Fe  Fe81      1.0  0.23080  0.50628  0.81353  1.0000
  C   C460      1.0  0.11507  0.70015  0.97963  1.0000
  C   C461      1.0  0.14613  0.66636  0.95728  1.0000
  S   S171      1.0  0.01946  0.56524  0.88497  1.0000
  S   S172      1.0  0.04009  0.53964  0.85448  1.0000
  C   C462      1.0  0.03561  0.58500  0.95661  1.0000
  H   H455      1.0  0.23771  0.96209  0.89581  1.0000
  H   H456      1.0  0.16092  0.79420  0.97399  1.0000
  H   H457      1.0  0.99072  0.51775  0.83177  1.0000
  C   C463      1.0  0.23170  0.54198  0.88392  1.0000
  C   C464      1.0  0.12352  0.57676  0.98319  1.0000
  H   H458      1.0  0.20425  0.97125  0.92431  1.0000
  H   H459      1.0  0.20393  0.89481  0.78530  1.0000
  C   C465      1.0  0.22616  0.88695  0.80405  1.0000
  C   C466      1.0  0.02550  0.53414  0.72696  1.0000
  N   N37       1.0  0.22657  0.94653  0.80786  1.0000
  H   H460      1.0  0.20392  0.93625  0.91789  1.0000
  N   N38       1.0  0.02535  0.56879  0.94356  1.0000
  H   H461      1.0  0.21416  0.96823  0.86250  1.0000
  H   H462      1.0  0.04480  0.52524  0.75343  1.0000
  C   C467      1.0  0.13449  0.57589  0.97670  1.0000
  N   N39       1.0  0.22917  0.52802  0.90275  1.0000
  H   H463      1.0  0.99254  0.57500  0.78236  1.0000
  H   H464      1.0  0.18898  0.91276  0.81308  1.0000
  H   H465      1.0  0.21493  0.93505  0.79990  1.0000
  H   H466      1.0  0.22089  0.92083  0.83140  1.0000
  C   C468      1.0  0.19940  0.65014  0.97947  1.0000
  C   C469      1.0  0.14797  0.64402  0.96232  1.0000
  H   H467      1.0  0.13047  0.62605  0.93045  1.0000
  C   C470      1.0  0.23185  0.93238  0.84125  1.0000
  C   C471      1.0  0.23496  0.56993  0.71274  1.0000
  H   H468      1.0  0.02935  0.53864  0.78021  1.0000
  C   C472      1.0  0.00351  0.54178  0.69880  1.0000
  C   C473      1.0  0.01124  0.54517  0.68009  1.0000
  C   C474      1.0  0.01980  0.52841  0.67500  1.0000
  C   C475      1.0  0.01797  0.54291  0.76120  1.0000
  H   H469      1.0  0.19447  0.95301  0.80346  1.0000
  C   C476      1.0  0.00422  0.52137  0.71216  1.0000
  H   H470      1.0  0.13521  0.84834  0.95295  1.0000
  C   C477      1.0  0.03688  0.52964  0.75015  1.0000
  N   N40       1.0  0.19345  0.92547  0.78011  1.0000
  H   H471      1.0  0.99819  0.51850  0.72644  1.0000
  C   C478      1.0  0.00351  0.57604  0.80036  1.0000
  C   C479      1.0  0.00574  0.57176  0.82051  1.0000
  H   H472      1.0  0.22319  0.51454  0.77402  1.0000
  H   H473      1.0  0.00912  0.58236  0.78659  1.0000
  C   C480      1.0  0.05953  0.60611  0.91637  1.0000
  C   C481      1.0  0.05339  0.61055  0.90107  1.0000
  C   C482      1.0  0.04966  0.59421  0.89729  1.0000
  C   C483      1.0  0.05198  0.57315  0.90890  1.0000
  C   C484      1.0  0.05819  0.56868  0.92408  1.0000
  C   C485      1.0  0.06193  0.58501  0.92783  1.0000
  H   H474      1.0  0.05146  0.62680  0.89208  1.0000
  H   H475      1.0  0.04493  0.59796  0.88552  1.0000
  H   H476      1.0  0.06007  0.55247  0.93316  1.0000
  H   H477      1.0  0.06665  0.58126  0.93965  1.0000
  C   C486      1.0  0.17853  0.96648  0.84877  1.0000
  H   H478      1.0  0.00874  0.54664  0.73814  1.0000
  C   C487      1.0  0.18516  0.95367  0.83489  1.0000
  H   H479      1.0  0.19924  0.66650  0.94712  1.0000
  H   H480      1.0  0.18718  0.93650  0.84032  1.0000
  C   C488      1.0  0.20969  0.98468  0.86100  1.0000
  C   C489      1.0  0.11188  0.71549  0.96235  1.0000
  C   C490      1.0  0.10583  0.71081  0.95058  1.0000
  C   C491      1.0  0.10297  0.69076  0.95585  1.0000
  C   C492      1.0  0.15125  0.85235  0.98244  1.0000
  H   H481      1.0  0.21586  0.96231  0.78733  1.0000
  H   H482      1.0  0.11390  0.73106  0.95827  1.0000
  H   H483      1.0  0.10325  0.72290  0.93745  1.0000
  C   C493      1.0  0.15660  0.80934  0.94403  1.0000
  C   C494      1.0  0.16247  0.80587  0.95941  1.0000
  C   C495      1.0  0.17007  0.81819  0.95631  1.0000
  C   C496      1.0  0.17200  0.83394  0.93774  1.0000
  C   C497      1.0  0.16648  0.83681  0.92191  1.0000
  C   C498      1.0  0.15877  0.82464  0.92512  1.0000
  H   H484      1.0  0.05106  0.50867  0.72325  1.0000
  H   H485      1.0  0.17432  0.81583  0.96861  1.0000
  H   H486      1.0  0.16792  0.84880  0.90749  1.0000
  H   H487      1.0  0.15431  0.82735  0.91308  1.0000
  H   H488      1.0  0.99851  0.50381  0.89638  1.0000
  H   H489      1.0  0.04107  0.58355  0.96652  1.0000
  H   H490      1.0  0.07600  0.61944  0.87547  1.0000
  C   C499      1.0  0.22065  0.92941  0.90342  1.0000
  C   C500      1.0  0.22227  0.53539  0.91971  1.0000
  S   S173      1.0  0.23728  0.93787  0.73208  1.0000
  C   C501      1.0  0.01661  0.54167  0.74179  1.0000
  C   C502      1.0  0.03198  0.56713  0.95651  1.0000
  C   C503      1.0  0.19557  0.68864  0.96766  1.0000
  H   H491      1.0  0.23131  0.92098  0.85636  1.0000
  C   C504      1.0  0.22035  0.88080  0.82462  1.0000
  H   H492      1.0  0.22113  0.86960  0.85743  1.0000
  C   C505      1.0  0.02589  0.60606  0.92979  1.0000
  H   H493      1.0  0.22230  0.89188  0.79087  1.0000
  H   H494      1.0  0.11874  0.64521  0.93954  1.0000
  H   H495      1.0  0.99977  0.56156  0.85392  1.0000
  C   C506      1.0  0.13953  0.57651  0.95542  1.0000
  C   C507      1.0  0.13346  0.57877  0.94053  1.0000
  C   C508      1.0  0.12240  0.58056  0.94701  1.0000
  H   H496      1.0  0.15458  0.63479  0.96962  1.0000
  H   H497      1.0  0.18184  0.90690  0.79683  1.0000
  H   H498      1.0  0.14803  0.57563  0.95037  1.0000
  H   H499      1.0  0.13727  0.57990  0.92397  1.0000
  C   C509      1.0  0.99415  0.57189  0.79795  1.0000
  H   H500      1.0  0.07394  0.68807  0.97541  1.0000
  C   C510      1.0  0.17421  0.65392  0.96927  1.0000
  Fe  Fe82      1.0  0.15886  0.57499  0.98601  1.0000
  C   C511      1.0  0.22058  0.94602  0.79278  1.0000
  H   H501      1.0  0.01070  0.56090  0.66969  1.0000
  C   C512      1.0  0.16988  0.69046  0.97399  1.0000
  C   C513      1.0  0.17231  0.67598  0.96080  1.0000
  C   C514      1.0  0.11750  0.57901  0.96840  1.0000
  H   H502      1.0  0.22620  0.94032  0.77884  1.0000
  H   H503      1.0  0.16860  0.70749  0.96726  1.0000
  H   H504      1.0  0.17272  0.68190  0.94399  1.0000
  C   C515      1.0  0.20313  0.55627  0.87799  1.0000
  C   C516      1.0  0.20566  0.53439  0.88709  1.0000
  C   C517      1.0  0.20206  0.52697  0.90888  1.0000
  C   C518      1.0  0.19600  0.54142  0.92168  1.0000
  C   C519      1.0  0.19321  0.56322  0.91248  1.0000
  C   C520      1.0  0.19671  0.57059  0.89065  1.0000
  H   H505      1.0  0.21035  0.52319  0.87737  1.0000
  C   C521      1.0  0.23701  0.88700  0.80050  1.0000
  H   H506      1.0  0.18865  0.57452  0.92222  1.0000
  H   H507      1.0  0.19469  0.58752  0.88366  1.0000
  H   H508      1.0  0.22780  0.49856  0.89846  1.0000
  N   N41       1.0  0.03542  0.52765  0.73148  1.0000
  H   H509      1.0  0.01822  0.54213  0.96011  1.0000
  C   C522      1.0  0.04456  0.51962  0.71568  1.0000
  C   C523      1.0  0.21781  0.55729  0.91811  1.0000
  C   C524      1.0  0.23505  0.96563  0.72983  1.0000
  C   C525      1.0  0.14582  0.87042  0.94349  1.0000
  H   H510      1.0  0.23050  0.54676  0.74096  1.0000
  C   C526      1.0  0.11234  0.68005  0.98466  1.0000
  C   C527      1.0  0.22592  0.93238  0.82704  1.0000
  C   C528      1.0  0.99777  0.50961  0.82219  1.0000
  C   C529      1.0  0.18908  0.96298  0.81381  1.0000
  H   H511      1.0  0.21975  0.52428  0.93432  1.0000
  C   C530      1.0  0.15884  0.89323  0.93324  1.0000
  H   H512      1.0  0.01564  0.55347  0.93417  1.0000
  H   H513      1.0  0.21843  0.96895  0.74523  1.0000
  C   C531      1.0  0.23010  0.93704  0.89687  1.0000
  H   H514      1.0  0.22889  0.57481  0.86641  1.0000
  H   H515      1.0  0.02869  0.53789  0.93708  1.0000
  S   S174      1.0  0.00035  0.52905  0.92479  1.0000
  C   C532      1.0  0.98893  0.56039  0.83591  1.0000
  H   H516      1.0  0.18467  0.95756  0.77157  1.0000
  H   H517      1.0  0.13625  0.69549  0.94349  1.0000
  C   C533      1.0  0.15616  0.86828  0.96793  1.0000
  N   N42       1.0  0.13302  0.64534  0.94832  1.0000
  Fe  Fe83      1.0  0.14290  0.76847  0.97649  1.0000
  C   C534      1.0  0.20902  0.93664  0.74453  1.0000
  H   H518      1.0  0.03466  0.55181  0.96654  1.0000
  C   C535      1.0  0.23032  0.95661  0.90064  1.0000
  C   C536      1.0  0.02237  0.58788  0.93017  1.0000
  H   H519      1.0  0.21516  0.94106  0.73077  1.0000
  C   C537      1.0  0.03255  0.60457  0.94313  1.0000
  H   H520      1.0  0.15118  0.67454  0.96098  1.0000
  H   H521      1.0  0.19446  0.70284  0.95515  1.0000
  H   H522      1.0  0.10901  0.57981  0.97357  1.0000
  S   S175      1.0  0.99352  0.56370  0.70570  1.0000
  C   C538      1.0  0.19963  0.95158  0.74969  1.0000
  S   S176      1.0  0.22278  0.54027  0.80179  1.0000
  C   C539      1.0  0.23308  0.96084  0.80229  1.0000
  C   C540      1.0  0.14082  0.85441  0.95756  1.0000
  C   C541      1.0  0.22549  0.87450  0.84156  1.0000
  H   H523      1.0  0.08478  0.62576  0.88729  1.0000
  S   S177      1.0  0.07377  0.64703  0.96306  1.0000
  H   H524      1.0  0.12490  0.67652  0.93496  1.0000
  H   H525      1.0  0.02371  0.62105  0.91884  1.0000
  H   H526      1.0  0.14276  0.61629  0.96182  1.0000
  C   C542      1.0  0.02817  0.53717  0.76536  1.0000
  Fe  Fe84      1.0  0.08281  0.61748  0.98151  1.0000
  C   C543      1.0  0.12612  0.63412  0.94376  1.0000
  H   H527      1.0  0.16530  0.89616  0.93887  1.0000
  H   H528      1.0  0.16268  0.88752  0.91831  1.0000
  H   H529      1.0  0.22714  0.58048  0.71447  1.0000
  H   H530      1.0  0.02587  0.53129  0.66072  1.0000
  C   C544      1.0  0.22726  0.56394  0.88166  1.0000
  N   N43       1.0  0.15344  0.87704  0.94871  1.0000
  H   H531      1.0  0.20414  0.51007  0.91591  1.0000
  C   C545      1.0  0.99405  0.49845  0.91215  1.0000
  C   C546      1.0  0.22508  0.50052  0.76745  1.0000
  N   N44       1.0  0.99684  0.49734  0.80972  1.0000
  C   C547      1.0  0.23316  0.50491  0.90411  1.0000
  H   H532      1.0  0.01736  0.58910  0.91946  1.0000
  H   H533      1.0  0.03563  0.61835  0.94253  1.0000
  H   H534      1.0  0.08516  0.70882  0.98142  1.0000
  H   H535      1.0  0.22310  0.51857  0.73621  1.0000
  S   S178      1.0  0.09888  0.62522  0.96631  1.0000
  N   N45       1.0  0.08665  0.59233  0.88954  1.0000
  C   C548      1.0  0.08155  0.57780  0.88772  1.0000
  C   C549      1.0  0.09431  0.58591  0.90127  1.0000
  C   C550      1.0  0.08381  0.55636  0.89843  1.0000
  C   C551      1.0  0.09675  0.56461  0.91221  1.0000
  C   C552      1.0  0.09143  0.54980  0.91084  1.0000
  C   C553      1.0  0.08428  0.61468  0.87802  1.0000
  H   H536      1.0  0.07549  0.58284  0.87838  1.0000
  H   H537      1.0  0.09857  0.59725  0.90230  1.0000
  H   H538      1.0  0.07954  0.54505  0.89735  1.0000
  H   H539      1.0  0.10276  0.55970  0.92170  1.0000
  H   H540      1.0  0.09321  0.53327  0.91938  1.0000
  C   C554      1.0  0.13135  0.66725  0.94273  1.0000
  C   C555      1.0  0.21148  0.96168  0.91670  1.0000
  H   H541      1.0  0.09000  0.61696  0.86252  1.0000
  H   H542      1.0  0.15307  0.90866  0.92989  1.0000
  C   C556      1.0  0.21058  0.91613  0.75739  1.0000
  H   H543      1.0  0.21198  0.56290  0.93133  1.0000
  C   C557      1.0  0.10635  0.67536  0.97288  1.0000
  Fe  Fe85      1.0  0.03335  0.51014  0.86995  1.0000
  C   C558      1.0  0.14358  0.84532  0.97712  1.0000
  H   H544      1.0  0.05201  0.50919  0.78855  1.0000
  H   H545      1.0  0.19725  0.97912  0.84973  1.0000
  H   H546      1.0  0.04225  0.51018  0.70694  1.0000
  C   C559      1.0  0.99376  0.50813  0.92853  1.0000
  H   H547      1.0  0.17880  0.93327  0.80249  1.0000
  C   C560      1.0  0.22497  0.97701  0.73800  1.0000
  C   C561      1.0  0.19829  0.66827  0.96314  1.0000
  C   C562      1.0  0.14129  0.63369  0.95775  1.0000
  H   H548      1.0  0.12359  0.62178  0.95789  1.0000
  H   H549      1.0  0.04643  0.50852  0.82689  1.0000
  C   C563      1.0  0.13779  0.67809  0.94736  1.0000
  C   C564      1.0  0.22026  0.57160  0.89889  1.0000
  C   C565      1.0  0.17560  0.98869  0.84125  1.0000
  C   C566      1.0  0.23638  0.87407  0.83799  1.0000
  H   H550      1.0  0.10426  0.65989  0.97719  1.0000
  S   S179      1.0  0.18842  0.57708  0.98012  1.0000
  C   C567      1.0  0.01292  0.50466  0.70725  1.0000
  H   H551      1.0  0.14006  0.83228  0.98777  1.0000
  H   H552      1.0  0.02476  0.50238  0.81146  1.0000
  C   C568      1.0  0.18613  0.98508  0.80618  1.0000
  C   C569      1.0  0.02080  0.50829  0.68881  1.0000
  H   H553      1.0  0.00852  0.52190  0.83234  1.0000
  C   C570      1.0  0.20017  0.99076  0.85400  1.0000
  C   C571      1.0  0.00781  0.51189  0.82272  1.0000
  H   H554      1.0  0.16248  0.87291  0.97177  1.0000
  C   C572      1.0  0.01693  0.50105  0.81085  1.0000
  C   C573      1.0  0.23690  0.55075  0.72764  1.0000
  H   H555      1.0  0.23777  0.88466  0.92928  1.0000
  H   H556      1.0  0.23699  0.53608  0.87039  1.0000
  C   C574      1.0  0.19377  0.69056  0.98862  1.0000
  S   S180      1.0  0.19041  0.99567  0.77911  1.0000
  S   S181      1.0  0.23790  0.55454  0.82465  1.0000
  H   H557      1.0  0.23355  0.49620  0.92060  1.0000
  C   C575      1.0  0.04867  0.49604  0.79925  1.0000
  H   H558      1.0  0.36312  0.23454  0.19623  1.0000
  Fe  Fe86      1.0  0.33864  0.24461  0.15667  1.0000
  S   S182      1.0  0.35072  0.25334  0.12708  1.0000
  S   S183      1.0  0.33741  0.20991  0.16750  1.0000
  Fe  Fe87      1.0  0.33340  0.28916  0.16722  1.0000
  S   S184      1.0  0.34521  0.30115  0.13843  1.0000
  S   S185      1.0  0.32235  0.30878  0.19081  1.0000
  Fe  Fe88      1.0  0.33877  0.28425  0.12147  1.0000
  S   S186      1.0  0.33500  0.30056  0.08945  1.0000
  Fe  Fe89      1.0  0.35598  0.26899  0.14675  1.0000
  S   S187      1.0  0.37319  0.26536  0.14667  1.0000
  S   S188      1.0  0.32611  0.27434  0.14960  1.0000
  S   S189      1.0  0.34472  0.25832  0.17693  1.0000
  Fe  Fe90      1.0  0.29834  0.41189  0.26777  1.0000
  S   S190      1.0  0.30861  0.42827  0.23913  1.0000
  S   S191      1.0  0.28194  0.40933  0.26837  1.0000
  Fe  Fe91      1.0  0.31496  0.39957  0.29364  1.0000
  S   S192      1.0  0.32696  0.41437  0.26705  1.0000
  H   H559      1.0  0.40936  0.14047  0.02607  1.0000
  Fe  Fe92      1.0  0.31304  0.44177  0.26207  1.0000
  S   S193      1.0  0.31187  0.47725  0.25836  1.0000
  Fe  Fe93      1.0  0.32150  0.39930  0.24654  1.0000
  S   S194      1.0  0.33266  0.38329  0.22030  1.0000
  S   S195      1.0  0.30147  0.42788  0.28991  1.0000
  S   S196      1.0  0.31082  0.38204  0.27384  1.0000
  H   H560      1.0  0.44765  0.09377  0.16917  1.0000
  S   S197      1.0  0.28935  0.10623  0.01712  1.0000
  Fe  Fe94      1.0  0.31889  0.13979  0.11855  1.0000
  S   S198      1.0  0.31806  0.11955  0.15145  1.0000
  S   S199      1.0  0.31925  0.17497  0.10883  1.0000
  Fe  Fe95      1.0  0.32048  0.10205  0.09953  1.0000
  S   S200      1.0  0.31993  0.07867  0.13064  1.0000
  S   S201      1.0  0.32412  0.08858  0.07065  1.0000
  Fe  Fe96      1.0  0.30697  0.10458  0.14300  1.0000
  S   S202      1.0  0.29169  0.09852  0.16575  1.0000
  Fe  Fe97      1.0  0.33103  0.09570  0.13585  1.0000
  S   S203      1.0  0.34639  0.07706  0.14502  1.0000
  S   S204      1.0  0.30666  0.12693  0.11123  1.0000
  S   S205      1.0  0.33271  0.11700  0.10357  1.0000
  H   H561      1.0  0.31990  0.20277  0.06379  1.0000
  Fe  Fe98      1.0  0.40326  0.11419  0.11762  1.0000
  S   S206      1.0  0.39860  0.09517  0.15052  1.0000
  S   S207      1.0  0.40543  0.09723  0.09131  1.0000
  Fe  Fe99      1.0  0.40432  0.15162  0.13409  1.0000
  S   S208      1.0  0.39971  0.13562  0.16825  1.0000
  S   S209      1.0  0.40842  0.18392  0.12590  1.0000
  Fe  Fe100     1.0  0.41110  0.10639  0.15866  1.0000
  S   S210      1.0  0.42237  0.08065  0.17685  1.0000
  Fe  Fe101     1.0  0.38773  0.12603  0.15689  1.0000
  S   S211      1.0  0.37049  0.13030  0.17360  1.0000
  S   S212      1.0  0.41671  0.12305  0.12511  1.0000
  S   S213      1.0  0.39142  0.14440  0.12346  1.0000
  Fe  Fe102     1.0  0.45785  0.06583  0.25515  1.0000
  S   S214      1.0  0.46759  0.04359  0.23381  1.0000
  S   S215      1.0  0.44389  0.09178  0.24546  1.0000
  Fe  Fe103     1.0  0.47178  0.04573  0.28823  1.0000
  N   N46       1.0  0.45766  0.10587  0.18064  1.0000
  H   H562      1.0  0.32100  0.13432  0.05414  1.0000
  N   N47       1.0  0.27786  0.04712  0.22019  1.0000
  Fe  Fe104     1.0  0.46719  0.01831  0.26374  1.0000
  C   C576      1.0  0.31716  0.16739  0.05685  1.0000
  S   S216      1.0  0.47211  0.07396  0.26064  1.0000
  S   S217      1.0  0.45650  0.03992  0.28486  1.0000
  H   H563      1.0  0.37034  0.09501  0.21108  1.0000
  H   H564      1.0  0.26884  0.02339  0.22561  1.0000
  H   H565      1.0  0.38541  0.22085  0.20656  1.0000
  H   H566      1.0  0.40672  0.02577  0.19127  1.0000
  H   H567      1.0  0.38089  0.24169  0.18519  1.0000
  H   H568      1.0  0.37154  0.06662  0.19250  1.0000
  S   S218      1.0  0.47531  0.04035  0.32052  1.0000
  H   H569      1.0  0.33857  0.48712  0.29053  1.0000
  N   N48       1.0  0.39732  0.05632  0.19633  1.0000
  C   C577      1.0  0.25618  0.00495  0.29871  1.0000
  C   C578      1.0  0.43746  0.08821  0.22730  1.0000
  C   C579      1.0  0.44030  0.06916  0.22009  1.0000
  C   C580      1.0  0.43545  0.06705  0.20489  1.0000
  C   C581      1.0  0.42778  0.08400  0.19662  1.0000
  C   C582      1.0  0.42481  0.10303  0.20397  1.0000
  C   C583      1.0  0.42962  0.10508  0.21932  1.0000
  H   H570      1.0  0.44617  0.05593  0.22633  1.0000
  H   H571      1.0  0.43775  0.05222  0.19939  1.0000
  H   H572      1.0  0.41888  0.11618  0.19774  1.0000
  H   H573      1.0  0.42733  0.11984  0.22492  1.0000
  C   C584      1.0  0.38579  0.12329  0.04026  1.0000
  C   C585      1.0  0.38563  0.13638  0.05362  1.0000
  C   C586      1.0  0.39128  0.12836  0.06996  1.0000
  C   C587      1.0  0.39706  0.10715  0.07306  1.0000
  C   C588      1.0  0.39685  0.09385  0.06025  1.0000
  C   C589      1.0  0.39126  0.10189  0.04387  1.0000
  H   H574      1.0  0.38136  0.15293  0.05100  1.0000
  H   H575      1.0  0.39144  0.13876  0.07969  1.0000
  H   H576      1.0  0.40127  0.07739  0.06266  1.0000
  H   H577      1.0  0.39133  0.09156  0.03394  1.0000
  C   C590      1.0  0.35287  0.09246  0.15261  1.0000
  C   C591      1.0  0.36401  0.08839  0.14763  1.0000
  C   C592      1.0  0.36939  0.10042  0.15356  1.0000
  C   C593      1.0  0.36370  0.11589  0.16536  1.0000
  C   C594      1.0  0.35254  0.12003  0.17034  1.0000
  C   C595      1.0  0.34711  0.10857  0.16364  1.0000
  H   H578      1.0  0.36849  0.07604  0.13899  1.0000
  H   H579      1.0  0.37795  0.09742  0.14922  1.0000
  H   H580      1.0  0.34808  0.13213  0.17930  1.0000
  H   H581      1.0  0.33849  0.11177  0.16756  1.0000
  C   C596      1.0  0.28563  0.07995  0.16176  1.0000
  C   C597      1.0  0.27502  0.07971  0.17207  1.0000
  C   C598      1.0  0.27027  0.06362  0.17130  1.0000
  C   C599      1.0  0.27610  0.04747  0.16046  1.0000
  C   C600      1.0  0.28662  0.04814  0.14943  1.0000
  C   C601      1.0  0.29139  0.06439  0.15004  1.0000
  H   H582      1.0  0.27050  0.09186  0.18094  1.0000
  H   H583      1.0  0.26209  0.06384  0.17909  1.0000
  H   H584      1.0  0.29118  0.03570  0.14096  1.0000
  H   H585      1.0  0.29961  0.06439  0.14217  1.0000
  C   C602      1.0  0.29873  0.10119  0.03271  1.0000
  C   C603      1.0  0.29668  0.11176  0.04927  1.0000
  C   C604      1.0  0.30434  0.10778  0.06141  1.0000
  C   C605      1.0  0.31406  0.09337  0.05681  1.0000
  C   C606      1.0  0.31597  0.08253  0.04060  1.0000
  C   C607      1.0  0.30827  0.08620  0.02881  1.0000
  H   H586      1.0  0.28923  0.12316  0.05253  1.0000
  H   H587      1.0  0.30278  0.11607  0.07406  1.0000
  H   H588      1.0  0.32342  0.07116  0.03714  1.0000
  H   H589      1.0  0.30968  0.07708  0.01690  1.0000
  C   C608      1.0  0.47521  0.08889  0.18687  1.0000
  Fe  Fe105     1.0  0.48168  0.04946  0.24158  1.0000
  C   C609      1.0  0.29552  0.04078  0.19851  1.0000
  S   S219      1.0  0.36991  0.04767  0.00070  1.0000
  H   H590      1.0  0.33080  0.28294  0.02631  1.0000
  C   C610      1.0  0.36651  0.21874  0.19274  1.0000
  H   H591      1.0  0.36172  0.08213  0.10386  1.0000
  C   C611      1.0  0.38255  0.24301  0.13884  1.0000
  C   C612      1.0  0.37953  0.22461  0.13804  1.0000
  C   C613      1.0  0.38740  0.20627  0.13384  1.0000
  C   C614      1.0  0.39823  0.20652  0.13023  1.0000
  C   C615      1.0  0.40116  0.22511  0.13052  1.0000
  C   C616      1.0  0.39336  0.24318  0.13496  1.0000
  H   H592      1.0  0.37117  0.22435  0.14130  1.0000
  H   H593      1.0  0.38514  0.19191  0.13358  1.0000
  H   H594      1.0  0.40950  0.22544  0.12762  1.0000
  H   H595      1.0  0.39574  0.25732  0.13556  1.0000
  C   C617      1.0  0.32565  0.32871  0.19945  1.0000
  C   C618      1.0  0.33539  0.33510  0.19100  1.0000
  C   C619      1.0  0.33744  0.35179  0.19755  1.0000
  C   C620      1.0  0.32981  0.36216  0.21269  1.0000
  C   C621      1.0  0.32006  0.35576  0.22109  1.0000
  C   C622      1.0  0.31800  0.33918  0.21445  1.0000
  H   H596      1.0  0.34135  0.32725  0.17939  1.0000
  H   H597      1.0  0.34501  0.35661  0.19098  1.0000
  H   H598      1.0  0.31410  0.36364  0.23265  1.0000
  H   H599      1.0  0.31041  0.33444  0.22101  1.0000
  C   C623      1.0  0.33197  0.20055  0.15158  1.0000
  C   C624      1.0  0.33252  0.17851  0.15499  1.0000
  C   C625      1.0  0.32846  0.17058  0.14220  1.0000
  C   C626      1.0  0.32375  0.18468  0.12600  1.0000
  C   C627      1.0  0.32320  0.20675  0.12259  1.0000
  C   C628      1.0  0.32734  0.21467  0.13530  1.0000
  H   H600      1.0  0.33612  0.16753  0.16752  1.0000
  H   H601      1.0  0.32912  0.15353  0.14474  1.0000
  H   H602      1.0  0.31957  0.21776  0.11009  1.0000
  H   H603      1.0  0.32683  0.23171  0.13265  1.0000
  C   C629      1.0  0.33372  0.24731  0.07256  1.0000
  C   C630      1.0  0.33454  0.26119  0.08418  1.0000
  C   C631      1.0  0.33402  0.28296  0.07498  1.0000
  C   C632      1.0  0.33264  0.29077  0.05409  1.0000
  H   H604      1.0  0.30003  0.01239  0.18566  1.0000
  H   H605      1.0  0.33397  0.23060  0.07989  1.0000
  H   H606      1.0  0.33546  0.25510  0.10034  1.0000
  H   H607      1.0  0.33220  0.30762  0.04692  1.0000
  H   H608      1.0  0.28321  0.45331  0.26289  1.0000
  H   H609      1.0  0.25722  0.45170  0.22325  1.0000
  N   N49       1.0  0.41918  0.08755  0.00618  1.0000
  C   C633      1.0  0.26477  0.47174  0.23212  1.0000
  C   C634      1.0  0.26279  0.45212  0.23210  1.0000
  H   H610      1.0  0.28929  0.37626  0.30336  1.0000
  H   H611      1.0  0.42620  0.07488  0.03323  1.0000
  C   C635      1.0  0.25310  0.00344  0.28102  1.0000
  C   C636      1.0  0.28735  0.05332  0.21081  1.0000
  C   C637      1.0  0.45564  0.11613  0.19686  1.0000
  H   H612      1.0  0.35634  0.13248  0.11740  1.0000
  C   C638      1.0  0.27522  0.43343  0.25487  1.0000
  H   H613      1.0  0.26619  0.41788  0.24394  1.0000
  H   H614      1.0  0.30105  0.06070  0.10300  1.0000
  N   N50       1.0  0.29055  0.05916  0.06316  1.0000
  C   C639      1.0  0.29765  0.05447  0.07591  1.0000
  C   C640      1.0  0.28092  0.07295  0.06747  1.0000
  C   C641      1.0  0.29528  0.06400  0.09327  1.0000
  C   C642      1.0  0.27825  0.08262  0.08481  1.0000
  C   C643      1.0  0.28550  0.07811  0.09776  1.0000
  C   C644      1.0  0.29305  0.04878  0.04522  1.0000
  H   H615      1.0  0.30532  0.04370  0.07242  1.0000
  H   H616      1.0  0.35194  0.20415  0.03087  1.0000
  H   H617      1.0  0.29061  0.44860  0.21403  1.0000
  C   C645      1.0  0.24007  0.48604  0.30515  1.0000
  C   C646      1.0  0.41837  0.10793  0.03135  1.0000
  H   H618      1.0  0.28948  0.03444  0.04993  1.0000
  H   H619      1.0  0.25704  0.02023  0.30010  1.0000
  H   H620      1.0  0.30180  0.04388  0.03939  1.0000
  C   C647      1.0  0.31216  0.15505  0.03111  1.0000
  H   H621      1.0  0.36223  0.17361  0.01400  1.0000
  H   H622      1.0  0.33261  0.47096  0.26774  1.0000
  H   H623      1.0  0.29197  0.45856  0.18599  1.0000
  C   C648      1.0  0.41232  0.12578  0.02019  1.0000
  H   H624      1.0  0.41333  0.04129  0.19947  1.0000
  C   C649      1.0  0.26784  0.43302  0.24381  1.0000
  C   C650      1.0  0.46334  0.11288  0.20857  1.0000
  C   C651      1.0  0.32678  0.48071  0.27796  1.0000
  C   C652      1.0  0.44959  0.10930  0.16835  1.0000
  C   C653      1.0  0.35661  0.20703  0.01479  1.0000
  N   N51       1.0  0.26696  0.48995  0.31466  1.0000
  N   N52       1.0  0.37732  0.21123  0.18882  1.0000
  S   S220      1.0  0.37929  0.13418  0.01899  1.0000
  C   C654      1.0  0.33241  0.25504  0.05167  1.0000
  C   C655      1.0  0.35971  0.20635  0.19189  1.0000
  N   N53       1.0  0.35388  0.07685  0.05461  1.0000
  C   C656      1.0  0.34953  0.06637  0.07431  1.0000
  C   C657      1.0  0.36099  0.08929  0.05221  1.0000
  C   C658      1.0  0.35230  0.06808  0.09227  1.0000
  C   C659      1.0  0.36396  0.09132  0.06986  1.0000
  C   C660      1.0  0.35957  0.08062  0.08999  1.0000
  C   C661      1.0  0.35052  0.07530  0.03621  1.0000
  H   H625      1.0  0.34373  0.05687  0.07622  1.0000
  H   H626      1.0  0.36443  0.09773  0.03663  1.0000
  H   H627      1.0  0.34873  0.05995  0.10791  1.0000
  H   H628      1.0  0.36958  0.10118  0.06795  1.0000
  H   H629      1.0  0.35066  0.05832  0.03672  1.0000
  H   H630      1.0  0.34231  0.08491  0.03593  1.0000
  H   H631      1.0  0.35589  0.08110  0.02114  1.0000
  C   C662      1.0  0.29659  0.48589  0.21696  1.0000
  S   S221      1.0  0.33167  0.23682  0.03764  1.0000
  H   H632      1.0  0.27126  0.39830  0.31321  1.0000
  S   S222      1.0  0.24604  0.04594  0.20490  1.0000
  H   H633      1.0  0.26829  0.05238  0.24989  1.0000
  H   H634      1.0  0.41120  0.04889  0.17296  1.0000
  C   C663      1.0  0.40979  0.12439  0.00190  1.0000
  H   H635      1.0  0.46154  0.12040  0.22194  1.0000
  N   N54       1.0  0.29193  0.48113  0.20353  1.0000
  H   H636      1.0  0.30355  0.20883  0.02640  1.0000
  C   C664      1.0  0.24277  0.46421  0.31477  1.0000
  H   H637      1.0  0.24206  0.49111  0.28811  1.0000
  H   H638      1.0  0.44793  0.12641  0.20133  1.0000
  H   H639      1.0  0.31104  0.22120  0.04825  1.0000
  H   H640      1.0  0.46887  0.08410  0.16285  1.0000
  C   C665      1.0  0.42172  0.08878  0.02415  1.0000
  H   H641      1.0  0.27700  0.48532  0.28460  1.0000
  H   H642      1.0  0.27537  0.07693  0.05716  1.0000
  C   C666      1.0  0.31719  0.15064  0.04791  1.0000
  H   H643      1.0  0.31394  0.45051  0.31412  1.0000
  C   C667      1.0  0.27632  0.02834  0.21802  1.0000
  H   H644      1.0  0.30576  0.20518  0.07361  1.0000
  N   N55       1.0  0.31520  0.34007  0.14263  1.0000
  C   C668      1.0  0.32085  0.33660  0.12314  1.0000
  C   C669      1.0  0.31838  0.35191  0.15260  1.0000
  C   C670      1.0  0.32985  0.34533  0.11298  1.0000
  C   C671      1.0  0.32745  0.36058  0.14308  1.0000
  C   C672      1.0  0.33320  0.35727  0.12312  1.0000
  C   C673      1.0  0.30612  0.32986  0.15340  1.0000
  H   H645      1.0  0.31854  0.32666  0.11547  1.0000
  H   H646      1.0  0.31412  0.35408  0.16836  1.0000
  H   H647      1.0  0.33441  0.34214  0.09769  1.0000
  H   H648      1.0  0.33013  0.36929  0.15144  1.0000
  H   H649      1.0  0.34038  0.36350  0.11572  1.0000
  H   H650      1.0  0.30141  0.33004  0.14205  1.0000
  H   H651      1.0  0.30906  0.31296  0.16115  1.0000
  H   H652      1.0  0.30069  0.33813  0.16590  1.0000
  H   H653      1.0  0.40385  0.07420  0.20974  1.0000
  H   H654      1.0  0.37846  0.16297  0.17958  1.0000
  H   H655      1.0  0.27077  0.07661  0.23064  1.0000
  C   C674      1.0  0.38431  0.22427  0.19012  1.0000
  C   C675      1.0  0.36402  0.18621  0.18704  1.0000
  C   C676      1.0  0.38161  0.19127  0.18452  1.0000
  H   H656      1.0  0.30241  0.47377  0.22468  1.0000
  H   H657      1.0  0.35113  0.21234  0.19480  1.0000
  H   H658      1.0  0.44202  0.12001  0.17444  1.0000
  C   C677      1.0  0.37504  0.17856  0.18341  1.0000
  N   N56       1.0  0.35785  0.18251  0.11764  1.0000
  C   C678      1.0  0.35981  0.16058  0.12210  1.0000
  C   C679      1.0  0.35144  0.19428  0.10392  1.0000
  C   C680      1.0  0.35506  0.14985  0.11319  1.0000
  C   C681      1.0  0.34673  0.18405  0.09439  1.0000
  C   C682      1.0  0.34846  0.16172  0.09929  1.0000
  C   C683      1.0  0.36268  0.19362  0.12740  1.0000
  H   H659      1.0  0.36495  0.15128  0.13282  1.0000
  H   H660      1.0  0.34972  0.21169  0.10071  1.0000
  H   H661      1.0  0.34134  0.19336  0.08410  1.0000
  H   H662      1.0  0.34443  0.15372  0.09278  1.0000
  H   H663      1.0  0.36851  0.20211  0.11517  1.0000
  H   H664      1.0  0.35640  0.20547  0.13533  1.0000
  H   H665      1.0  0.36681  0.18238  0.13970  1.0000
  H   H666      1.0  0.35882  0.17659  0.18604  1.0000
  S   S223      1.0  0.27060  0.02584  0.16131  1.0000
  H   H667      1.0  0.40489  0.13803  0.99335  1.0000
  H   H668      1.0  0.39019  0.18533  0.18126  1.0000
  C   C684      1.0  0.35596  0.02702  0.99603  1.0000
  H   H669      1.0  0.39221  0.22103  0.17920  1.0000
  H   H670      1.0  0.45254  0.11674  0.15155  1.0000
  Fe  Fe106     1.0  0.32862  0.24910  0.00462  1.0000
  H   H671      1.0  0.26523  0.47423  0.29269  1.0000
  C   C685      1.0  0.27167  0.47715  0.29843  1.0000
  C   C686      1.0  0.39675  0.07216  0.20630  1.0000
  C   C687      1.0  0.31222  0.20516  0.05911  1.0000
  Fe  Fe107     1.0  0.25588  0.02078  0.18694  1.0000
  H   H672      1.0  0.30313  0.17965  0.01057  1.0000
  C   C688      1.0  0.30718  0.17608  0.02347  1.0000
  H   H673      1.0  0.35228  0.24146  0.01073  1.0000
  H   H674      1.0  0.28853  0.06844  0.21208  1.0000
  H   H675      1.0  0.28282  0.00115  0.20321  1.0000
  C   C689      1.0  0.40762  0.04232  0.18971  1.0000
  C   C690      1.0  0.26924  0.06039  0.23285  1.0000
  C   C691      1.0  0.36236  0.18991  0.00511  1.0000
  H   H676      1.0  0.28356  0.08565  0.11116  1.0000
  H   H677      1.0  0.48284  0.07809  0.18298  1.0000
  C   C692      1.0  0.27740  0.45300  0.25458  1.0000
  H   H678      1.0  0.26160  0.06257  0.22812  1.0000
  C   C693      1.0  0.46729  0.09235  0.17560  1.0000
  H   H679      1.0  0.42679  0.05412  0.00961  1.0000
  H   H680      1.0  0.28991  0.06007  0.03161  1.0000
  H   H681      1.0  0.27067  0.09373  0.08804  1.0000
  Fe  Fe108     1.0  0.24706  0.01951  0.23359  1.0000
  C   C694      1.0  0.37857  0.06801  0.19675  1.0000
  H   H682      1.0  0.31202  0.14218  0.02414  1.0000
  C   C695      1.0  0.28528  0.37445  0.31992  1.0000
  C   C696      1.0  0.33185  0.27682  0.04241  1.0000
  H   H683      1.0  0.30337  0.45291  0.19736  1.0000
  C   C697      1.0  0.37790  0.08399  0.20717  1.0000
  C   C698      1.0  0.38842  0.05432  0.19128  1.0000
  C   C699      1.0  0.27201  0.47221  0.24354  1.0000
  C   C700      1.0  0.47320  0.09924  0.20346  1.0000
  C   C701      1.0  0.28427  0.01555  0.20562  1.0000
  H   H684      1.0  0.24699  0.45259  0.30510  1.0000
  H   H685      1.0  0.47922  0.09646  0.21252  1.0000
  H   H686      1.0  0.38664  0.09897  0.21946  1.0000
  N   N57       1.0  0.31242  0.18804  0.04900  1.0000
  H   H687      1.0  0.32090  0.16377  0.07018  1.0000
  C   C702      1.0  0.38704  0.08622  0.21187  1.0000
  H   H688      1.0  0.38894  0.04230  0.18268  1.0000
  S   S224      1.0  0.25063  0.02657  0.26127  1.0000
  C   C703      1.0  0.31599  0.48505  0.27743  1.0000
  H   H689      1.0  0.42010  0.10867  0.04597  1.0000
  H   H690      1.0  0.27370  0.48730  0.24328  1.0000
  S   S225      1.0  0.48231  0.02185  0.26938  1.0000
  C   C704      1.0  0.41337  0.10507  0.99499  1.0000
  C   C705      1.0  0.30741  0.19251  0.03258  1.0000
  C   C706      1.0  0.33016  0.48995  0.29083  1.0000
  H   H691      1.0  0.30285  0.04625  0.19041  1.0000
  C   C707      1.0  0.29461  0.45925  0.20003  1.0000
  C   C708      1.0  0.35680  0.22802  0.00348  1.0000
  S   S226      1.0  0.24164  0.01144  0.18294  1.0000
  H   H692      1.0  0.48605  0.07522  0.29646  1.0000
  H   H693      1.0  0.30047  0.33418  0.32244  1.0000
  C   C709      1.0  0.29392  0.02186  0.19578  1.0000
  H   H694      1.0  0.34534  0.01012  0.99157  1.0000
  H   H695      1.0  0.28029  0.49247  0.18443  1.0000
  H   H696      1.0  0.27645  0.46142  0.30506  1.0000
  H   H697      1.0  0.30607  0.35755  0.31705  1.0000
  H   H698      1.0  0.36103  0.01253  0.00291  1.0000
  S   S227      1.0  0.25857  0.49538  0.21695  1.0000
  C   C710      1.0  0.35848  0.04691  0.99302  1.0000
  S   S228      1.0  0.39070  0.08008  0.99661  1.0000
  S   S229      1.0  0.31248  0.26335  0.99693  1.0000
  H   H699      1.0  0.44488  0.00193  0.29030  1.0000
  H   H700      1.0  0.46349  0.99685  0.31637  1.0000
  C   C711      1.0  0.42271  0.06750  0.99861  1.0000
  Fe  Fe109     1.0  0.38217  0.11442  0.99460  1.0000
  H   H701      1.0  0.41575  0.06256  0.99673  1.0000
  C   C712      1.0  0.34705  0.02566  0.98970  1.0000
  H   H702      1.0  0.28646  0.46689  0.42946  1.0000
  H   H703      1.0  0.46168  0.00592  0.38771  1.0000
  H   H704      1.0  0.31698  0.41133  0.36127  1.0000
  Fe  Fe110     1.0  0.26551  0.40832  0.40518  1.0000
  S   S230      1.0  0.25625  0.42344  0.43261  1.0000
  S   S231      1.0  0.28126  0.38552  0.40697  1.0000
  H   H705      1.0  0.28239  0.41090  0.36387  1.0000
  C   C713      1.0  0.29811  0.39888  0.34661  1.0000
  Fe  Fe111     1.0  0.25222  0.45283  0.40769  1.0000
  C   C714      1.0  0.30112  0.37120  0.38506  1.0000
  H   H706      1.0  0.27091  0.36839  0.37870  1.0000
  H   H707      1.0  0.31691  0.35950  0.36801  1.0000
  H   H708      1.0  0.30231  0.36040  0.39993  1.0000
  S   S232      1.0  0.25190  0.39642  0.40245  1.0000
  C   C715      1.0  0.27182  0.47511  0.41842  1.0000
  C   C716      1.0  0.45283  0.01071  0.36379  1.0000
  C   C717      1.0  0.26096  0.48126  0.33343  1.0000
  C   C718      1.0  0.28989  0.39968  0.36480  1.0000
  C   C719      1.0  0.45337  0.00809  0.34365  1.0000
  C   C720      1.0  0.28500  0.35772  0.35605  1.0000
  H   H709      1.0  0.30366  0.41081  0.39516  1.0000
  C   C721      1.0  0.28137  0.47903  0.42004  1.0000
  S   S233      1.0  0.24460  0.43058  0.34898  1.0000
  C   C722      1.0  0.29542  0.46220  0.36991  1.0000
  Fe  Fe112     1.0  0.24807  0.42816  0.38044  1.0000
  C   C723      1.0  0.46197  0.00383  0.37213  1.0000
  C   C724      1.0  0.30788  0.38440  0.34771  1.0000
  C   C725      1.0  0.27478  0.36993  0.36207  1.0000
  H   H710      1.0  0.44538  0.01821  0.37286  1.0000
  H   H711      1.0  0.26951  0.46006  0.42670  1.0000
  H   H712      1.0  0.28946  0.47666  0.37238  1.0000
  C   C726      1.0  0.30936  0.37066  0.36701  1.0000
  C   C727      1.0  0.31094  0.42571  0.36358  1.0000
  C   C728      1.0  0.30300  0.46202  0.35084  1.0000
  N   N58       1.0  0.31048  0.44376  0.34773  1.0000
  C   C729      1.0  0.30347  0.42532  0.38281  1.0000
  C   C730      1.0  0.24023  0.45752  0.33685  1.0000
  C   C731      1.0  0.29138  0.38569  0.38401  1.0000
  H   H713      1.0  0.30488  0.34066  0.34268  1.0000
  S   S234      1.0  0.26267  0.43841  0.38063  1.0000
  H   H714      1.0  0.28889  0.34671  0.36825  1.0000
  C   C732      1.0  0.29560  0.44360  0.38585  1.0000
  H   H715      1.0  0.28967  0.44330  0.40058  1.0000
  H   H716      1.0  0.23920  0.45774  0.64024  1.0000
  Fe  Fe113     1.0  0.24224  0.41367  0.42818  1.0000
  H   H717      1.0  0.48059  0.00434  0.40567  1.0000
  C   C733      1.0  0.26982  0.38469  0.34662  1.0000
  C   C734      1.0  0.26509  0.49099  0.40672  1.0000
  S   S235      1.0  0.24721  0.40998  0.65319  1.0000
  S   S236      1.0  0.25284  0.48701  0.40524  1.0000
  H   H718      1.0  0.25973  0.46512  0.33625  1.0000
  H   H719      1.0  0.26196  0.39446  0.35107  1.0000
  H   H720      1.0  0.44637  0.01365  0.33684  1.0000
  H   H721      1.0  0.30286  0.47653  0.33852  1.0000
  H   H722      1.0  0.29688  0.40965  0.33192  1.0000
  H   H723      1.0  0.25125  0.48630  0.36386  1.0000
  H   H724      1.0  0.48253  0.01118  0.63991  1.0000
  C   C735      1.0  0.48480  0.00159  0.65494  1.0000
  N   N59       1.0  0.29017  0.36031  0.33522  1.0000
  H   H725      1.0  0.23885  0.39867  0.62373  1.0000
  C   C736      1.0  0.46306  0.99838  0.33219  1.0000
  C   C737      1.0  0.30089  0.34743  0.32909  1.0000
  C   C738      1.0  0.25618  0.49311  0.34913  1.0000
  C   C739      1.0  0.31815  0.44385  0.32739  1.0000
  C   C740      1.0  0.27506  0.38692  0.32539  1.0000
  S   S237      1.0  0.31855  0.38340  0.32565  1.0000
  H   H726      1.0  0.48750  0.02551  0.35268  1.0000
  C   C741      1.0  0.48587  0.04938  0.32399  1.0000
  H   H727      1.0  0.32394  0.45376  0.32581  1.0000
  H   H728      1.0  0.32263  0.42738  0.32570  1.0000
  Fe  Fe114     1.0  0.25279  0.41517  0.72377  1.0000
  S   S238      1.0  0.25475  0.39346  0.75518  1.0000
  S   S239      1.0  0.25537  0.44820  0.71902  1.0000
  C   C742      1.0  0.37413  0.17546  0.97500  1.0000
  H   H729      1.0  0.47614  0.05855  0.73682  1.0000
  S   S240      1.0  0.32388  0.25807  0.94799  1.0000
  C   C743      1.0  0.29182  0.48565  0.73948  1.0000
  H   H730      1.0  0.27257  0.04728  0.89256  1.0000
  S   S241      1.0  0.28230  0.44839  0.68069  1.0000
  H   H731      1.0  0.34927  0.02892  0.93890  1.0000
  Fe  Fe115     1.0  0.32119  0.28245  0.96731  1.0000
  S   S242      1.0  0.31412  0.31723  0.95478  1.0000
  Fe  Fe116     1.0  0.33907  0.24444  0.95949  1.0000
  S   S243      1.0  0.35430  0.23547  0.93627  1.0000
  C   C744      1.0  0.48450  0.05822  0.73687  1.0000
  Fe  Fe117     1.0  0.45988  0.02728  0.80407  1.0000
  H   H732      1.0  0.45216  0.01319  0.72031  1.0000
  Fe  Fe118     1.0  0.30007  0.39425  0.80163  1.0000
  S   S244      1.0  0.31535  0.39517  0.80873  1.0000
  S   S245      1.0  0.29956  0.39378  0.76889  1.0000
  Fe  Fe119     1.0  0.28715  0.40165  0.84440  1.0000
  S   S246      1.0  0.30121  0.40372  0.85524  1.0000
  S   S247      1.0  0.27052  0.40721  0.86371  1.0000
  Fe  Fe120     1.0  0.30565  0.42338  0.82243  1.0000
  S   S248      1.0  0.31046  0.45495  0.81548  1.0000
  Fe  Fe121     1.0  0.30947  0.37531  0.84064  1.0000
  S   S249      1.0  0.32061  0.34631  0.85512  1.0000
  S   S250      1.0  0.29079  0.42386  0.81306  1.0000
  S   S251      1.0  0.29500  0.37169  0.83213  1.0000
  Fe  Fe122     1.0  0.24930  0.03051  0.86392  1.0000
  C   C745      1.0  0.30107  0.36473  0.73151  1.0000
  S   S252      1.0  0.24334  0.00164  0.86568  1.0000
  C   C746      1.0  0.28574  0.48271  0.79775  1.0000
  H   H733      1.0  0.36743  0.09629  0.93043  1.0000
  S   S253      1.0  0.47215  0.00350  0.82016  1.0000
  H   H734      1.0  0.24803  0.40137  0.82175  1.0000
  H   H735      1.0  0.31959  0.44261  0.85325  1.0000
  Fe  Fe123     1.0  0.31285  0.11812  0.94459  1.0000
  S   S254      1.0  0.31590  0.08896  0.93128  1.0000
  S   S255      1.0  0.32252  0.14369  0.93103  1.0000
  Fe  Fe124     1.0  0.29827  0.09039  0.94304  1.0000
  S   S256      1.0  0.28903  0.08846  0.92003  1.0000
  Fe  Fe125     1.0  0.31718  0.07054  0.96408  1.0000
  S   S257      1.0  0.24208  0.03210  0.89789  1.0000
  S   S258      1.0  0.29509  0.12130  0.95397  1.0000
  C   C747      1.0  0.34272  0.06429  0.97842  1.0000
  Fe  Fe126     1.0  0.39790  0.09023  0.96203  1.0000
  C   C748      1.0  0.26084  0.47955  0.85771  1.0000
  S   S259      1.0  0.41553  0.07786  0.95059  1.0000
  Fe  Fe127     1.0  0.37694  0.11770  0.95259  1.0000
  C   C749      1.0  0.25050  0.08023  0.90545  1.0000
  S   S260      1.0  0.36850  0.13909  0.92737  1.0000
  C   C750      1.0  0.24492  0.41426  0.80908  1.0000
  C   C751      1.0  0.29244  0.36079  0.72640  1.0000
  H   H736      1.0  0.23907  0.01432  0.76718  1.0000
  H   H737      1.0  0.28964  0.40243  0.68440  1.0000
  S   S261      1.0  0.39051  0.12519  0.96089  1.0000
  S   S262      1.0  0.38498  0.08354  0.95106  1.0000
  C   C752      1.0  0.41972  0.07324  0.92458  1.0000
  C   C753      1.0  0.41643  0.07756  0.88972  1.0000
  C   C754      1.0  0.41287  0.08098  0.91047  1.0000
  H   H738      1.0  0.41111  0.08379  0.87885  1.0000
  H   H739      1.0  0.40488  0.08989  0.91541  1.0000
  C   C755      1.0  0.26001  0.10048  0.91579  1.0000
  N   N60       1.0  0.33347  0.39415  0.84345  1.0000
  H   H740      1.0  0.35371  0.08107  0.98194  1.0000
  H   H741      1.0  0.43548  0.05593  0.92859  1.0000
  C   C756      1.0  0.25404  0.43887  0.77979  1.0000
  S   S263      1.0  0.26398  0.40865  0.69359  1.0000
  H   H742      1.0  0.48202  0.99692  0.86996  1.0000
  H   H743      1.0  0.36133  0.02630  0.94683  1.0000
  Fe  Fe128     1.0  0.29814  0.09988  0.98491  1.0000
  C   C757      1.0  0.32319  0.42558  0.85641  1.0000
  C   C758      1.0  0.27363  0.03295  0.92490  1.0000
  C   C759      1.0  0.27552  0.04782  0.90580  1.0000
  C   C760      1.0  0.28086  0.06403  0.90413  1.0000
  C   C761      1.0  0.28434  0.06549  0.92151  1.0000
  C   C762      1.0  0.28291  0.04996  0.94027  1.0000
  C   C763      1.0  0.27760  0.03373  0.94192  1.0000
  H   H744      1.0  0.36154  0.02966  0.91904  1.0000
  H   H745      1.0  0.28199  0.07593  0.88953  1.0000
  H   H746      1.0  0.28558  0.05088  0.95372  1.0000
  C   C764      1.0  0.29131  0.48029  0.68224  1.0000
  C   C765      1.0  0.25252  0.04419  0.77764  1.0000
  C   C766      1.0  0.34042  0.04423  0.98080  1.0000
  H   H747      1.0  0.26749  0.47523  0.78054  1.0000
  H   H748      1.0  0.24984  0.02238  0.74626  1.0000
  C   C767      1.0  0.31432  0.46566  0.78822  1.0000
  H   H749      1.0  0.29341  0.30848  0.95667  1.0000
  C   C768      1.0  0.28996  0.47755  0.77785  1.0000
  C   C769      1.0  0.46559  0.02525  0.69902  1.0000
  C   C770      1.0  0.32142  0.46081  0.75215  1.0000
  C   C771      1.0  0.31840  0.45215  0.77385  1.0000
  C   C772      1.0  0.45939  0.00836  0.76476  1.0000
  C   C773      1.0  0.33975  0.38385  0.82591  1.0000
  H   H750      1.0  0.30180  0.42774  0.69949  1.0000
  H   H751      1.0  0.31939  0.43500  0.77941  1.0000
  C   C774      1.0  0.35824  0.20844  0.93459  1.0000
  C   C775      1.0  0.36732  0.20208  0.91952  1.0000
  C   C776      1.0  0.37053  0.18067  0.91749  1.0000
  C   C777      1.0  0.36478  0.16550  0.93078  1.0000
  C   C778      1.0  0.35577  0.17174  0.94605  1.0000
  C   C779      1.0  0.35248  0.19324  0.94787  1.0000
  H   H752      1.0  0.37180  0.21378  0.90917  1.0000
  H   H753      1.0  0.37747  0.17587  0.90559  1.0000
  H   H754      1.0  0.35123  0.16005  0.95619  1.0000
  H   H755      1.0  0.34543  0.19799  0.95940  1.0000
  C   C780      1.0  0.31642  0.32584  0.92706  1.0000
  C   C781      1.0  0.31063  0.34567  0.91799  1.0000
  C   C782      1.0  0.31185  0.35219  0.89591  1.0000
  C   C783      1.0  0.31894  0.33896  0.88282  1.0000
  C   C784      1.0  0.32491  0.31941  0.89188  1.0000
  C   C785      1.0  0.32364  0.31284  0.91393  1.0000
  H   H756      1.0  0.30505  0.35582  0.92810  1.0000
  H   H757      1.0  0.30723  0.36732  0.88909  1.0000
  H   H758      1.0  0.33053  0.30924  0.88182  1.0000
  H   H759      1.0  0.32836  0.29782  0.92072  1.0000
  C   C786      1.0  0.42681  0.06618  0.88293  1.0000
  H   H760      1.0  0.47292  0.08529  0.79739  1.0000
  C   C787      1.0  0.30973  0.19815  0.96659  1.0000
  C   C788      1.0  0.32069  0.19215  0.95857  1.0000
  C   C789      1.0  0.32467  0.17484  0.94836  1.0000
  C   C790      1.0  0.31770  0.16369  0.94594  1.0000
  C   C791      1.0  0.30679  0.16936  0.95447  1.0000
  C   C792      1.0  0.36841  0.21418  0.97361  1.0000
  H   H761      1.0  0.32607  0.20093  0.96006  1.0000
  H   H762      1.0  0.33314  0.17024  0.94216  1.0000
  H   H763      1.0  0.30135  0.16087  0.95267  1.0000
  S   S264      1.0  0.31558  0.09949  0.97626  1.0000
  H   H764      1.0  0.25706  0.10673  0.88451  1.0000
  C   C793      1.0  0.25300  0.46749  0.86273  1.0000
  C   C794      1.0  0.25593  0.44507  0.86573  1.0000
  C   C795      1.0  0.26670  0.43482  0.86284  1.0000
  C   C796      1.0  0.27451  0.44693  0.85789  1.0000
  C   C797      1.0  0.27157  0.46921  0.85570  1.0000
  C   C798      1.0  0.30579  0.41450  0.69100  1.0000
  H   H765      1.0  0.24986  0.43577  0.86966  1.0000
  H   H766      1.0  0.28283  0.43916  0.85580  1.0000
  C   C799      1.0  0.24159  0.07893  0.78187  1.0000
  C   C800      1.0  0.26692  0.39439  0.75984  1.0000
  C   C801      1.0  0.26974  0.38389  0.77924  1.0000
  C   C802      1.0  0.27959  0.38447  0.78264  1.0000
  C   C803      1.0  0.28658  0.39549  0.76656  1.0000
  C   C804      1.0  0.28353  0.40670  0.74760  1.0000
  C   C805      1.0  0.27380  0.40593  0.74415  1.0000
  H   H767      1.0  0.26442  0.37500  0.79147  1.0000
  H   H768      1.0  0.28192  0.37578  0.79736  1.0000
  H   H769      1.0  0.28879  0.41567  0.73534  1.0000
  H   H770      1.0  0.27182  0.41386  0.72905  1.0000
  H   H771      1.0  0.33924  0.06338  0.92633  1.0000
  N   N61       1.0  0.25365  0.07058  0.94068  1.0000
  H   H772      1.0  0.30428  0.42003  0.67471  1.0000
  Fe  Fe129     1.0  0.31661  0.23796  0.97817  1.0000
  S   S265      1.0  0.33202  0.22206  0.98813  1.0000
  C   C806      1.0  0.28230  0.47512  0.67967  1.0000
  H   H773      1.0  0.44273  0.02000  0.77717  1.0000
  H   H774      1.0  0.44168  0.04961  0.89199  1.0000
  C   C807      1.0  0.26314  0.46247  0.78622  1.0000
  C   C808      1.0  0.32173  0.41334  0.87704  1.0000
  H   H775      1.0  0.29827  0.46783  0.68483  1.0000
  C   C809      1.0  0.28562  0.35237  0.89123  1.0000
  H   H776      1.0  0.33873  0.39439  0.81029  1.0000
  H   H777      1.0  0.25136  0.43343  0.76872  1.0000
  H   H778      1.0  0.37041  0.05693  0.93539  1.0000
  C   C810      1.0  0.25470  0.43758  0.81501  1.0000
  S   S266      1.0  0.32385  0.49335  0.71726  1.0000
  C   C811      1.0  0.35184  0.06562  0.98424  1.0000
  C   C812      1.0  0.43365  0.05829  0.89708  1.0000
  H   H779      1.0  0.25238  0.00689  0.77165  1.0000
  H   H780      1.0  0.34833  0.37976  0.82633  1.0000
  C   C813      1.0  0.25878  0.08714  0.93599  1.0000
  Fe  Fe130     1.0  0.25791  0.01157  0.90375  1.0000
  H   H781      1.0  0.35002  0.11932  0.92459  1.0000
  H   H782      1.0  0.24745  0.07703  0.89350  1.0000
  S   S267      1.0  0.46355  0.02931  0.76917  1.0000
  H   H783      1.0  0.30027  0.48733  0.73424  1.0000
  H   H784      1.0  0.46447  0.03841  0.70662  1.0000
  H   H785      1.0  0.24840  0.00642  0.71315  1.0000
  H   H786      1.0  0.24469  0.47538  0.86446  1.0000
  H   H787      1.0  0.36947  0.16276  0.97922  1.0000
  H   H788      1.0  0.27506  0.36876  0.91507  1.0000
  S   S268      1.0  0.45938  0.05393  0.81897  1.0000
  H   H789      1.0  0.31453  0.41139  0.68965  1.0000
  S   S269      1.0  0.44598  0.01638  0.82790  1.0000
  H   H790      1.0  0.26458  0.11285  0.91188  1.0000
  H   H791      1.0  0.47181  0.06316  0.77406  1.0000
  H   H792      1.0  0.27625  0.02212  0.95668  1.0000
  H   H793      1.0  0.31184  0.38585  0.72419  1.0000
  C   C814      1.0  0.25992  0.45495  0.77204  1.0000
  H   H794      1.0  0.28882  0.29075  0.94654  1.0000
  H   H795      1.0  0.30256  0.29360  0.93847  1.0000
  H   H796      1.0  0.27764  0.47848  0.85197  1.0000
  H   H797      1.0  0.27020  0.99691  0.78987  1.0000
  H   H798      1.0  0.33712  0.36892  0.82713  1.0000
  Fe  Fe131     1.0  0.26573  0.44251  0.68801  1.0000
  H   H799      1.0  0.31700  0.42079  0.89009  1.0000
  C   C815      1.0  0.35147  0.10212  0.92603  1.0000
  S   S270      1.0  0.29982  0.06922  0.97498  1.0000
  H   H800      1.0  0.33013  0.42537  0.82369  1.0000
  S   S271      1.0  0.33002  0.04139  0.97109  1.0000
  H   H801      1.0  0.33770  0.07872  0.97144  1.0000
  C   C816      1.0  0.29306  0.39160  0.69733  1.0000
  C   C817      1.0  0.47777  0.07291  0.76883  1.0000
  C   C818      1.0  0.47832  0.08544  0.78204  1.0000
  C   C819      1.0  0.33222  0.38209  0.86367  1.0000
  H   H802      1.0  0.32472  0.45026  0.74113  1.0000
  N   N62       1.0  0.33826  0.18743  0.89786  1.0000
  C   C820      1.0  0.32762  0.19156  0.89805  1.0000
  C   C821      1.0  0.34246  0.20197  0.90224  1.0000
  C   C822      1.0  0.32078  0.21006  0.90398  1.0000
  C   C823      1.0  0.33587  0.22067  0.90815  1.0000
  C   C824      1.0  0.32494  0.22459  0.90923  1.0000
  C   C825      1.0  0.34529  0.16756  0.89251  1.0000
  H   H803      1.0  0.32427  0.18002  0.89463  1.0000
  H   H804      1.0  0.35093  0.19893  0.90157  1.0000
  H   H805      1.0  0.31227  0.21265  0.90524  1.0000
  H   H806      1.0  0.33921  0.23182  0.91224  1.0000
  H   H807      1.0  0.31968  0.23867  0.91444  1.0000
  H   H808      1.0  0.34078  0.15463  0.89636  1.0000
  H   H809      1.0  0.34910  0.17043  0.87541  1.0000
  H   H810      1.0  0.35160  0.16152  0.90188  1.0000
  H   H811      1.0  0.29561  0.46248  0.77662  1.0000
  C   C826      1.0  0.28844  0.37420  0.70912  1.0000
  C   C827      1.0  0.34359  0.09284  0.92454  1.0000
  C   C828      1.0  0.35690  0.03454  0.93401  1.0000
  C   C829      1.0  0.36123  0.08914  0.92955  1.0000
  H   H812      1.0  0.33565  0.36500  0.86664  1.0000
  C   C830      1.0  0.32914  0.41569  0.83970  1.0000
  C   C831      1.0  0.24664  0.01990  0.76363  1.0000
  H   H813      1.0  0.26294  0.45954  0.81904  1.0000
  H   H814      1.0  0.32518  0.38169  0.89672  1.0000
  N   N63       1.0  0.47578  0.00482  0.67285  1.0000
  H   H815      1.0  0.29161  0.46878  0.74040  1.0000
  Fe  Fe132     1.0  0.37705  0.07656  0.98538  1.0000
  C   C832      1.0  0.25588  0.09692  0.90042  1.0000
  Fe  Fe133     1.0  0.44651  0.04090  0.84485  1.0000
  H   H816      1.0  0.30395  0.35505  0.74549  1.0000
  H   H817      1.0  0.26643  0.48748  0.67400  1.0000
  H   H818      1.0  0.33598  0.10285  0.92184  1.0000
  C   C833      1.0  0.34551  0.07055  0.92703  1.0000
  S   S272      1.0  0.43093  0.06267  0.85655  1.0000
  C   C834      1.0  0.36287  0.06692  0.93217  1.0000
  N   N64       1.0  0.35499  0.05788  0.93120  1.0000
  S   S273      1.0  0.26533  0.01479  0.92904  1.0000
  C   C835      1.0  0.32631  0.39145  0.88076  1.0000
  Fe  Fe134     1.0  0.24190  0.45862  0.70240  1.0000
  N   N65       1.0  0.29139  0.31980  0.92478  1.0000
  C   C836      1.0  0.29599  0.31766  0.90441  1.0000
  C   C837      1.0  0.28391  0.33780  0.92872  1.0000
  C   C838      1.0  0.29321  0.33393  0.88734  1.0000
  C   C839      1.0  0.48611  0.09763  0.77562  1.0000
  H   H819      1.0  0.28025  0.33948  0.94486  1.0000
  C   C840      1.0  0.29413  0.30227  0.94245  1.0000
  H   H820      1.0  0.30203  0.30356  0.90124  1.0000
  H   H821      1.0  0.25259  0.43102  0.83186  1.0000
  H   H822      1.0  0.29710  0.33245  0.87121  1.0000
  S   S274      1.0  0.36789  0.11014  0.98607  1.0000
  H   H823      1.0  0.28157  0.37156  0.70533  1.0000
  N   N66       1.0  0.25154  0.43035  0.80102  1.0000
  H   H824      1.0  0.28339  0.36517  0.87819  1.0000
  C   C841      1.0  0.26056  0.45371  0.80784  1.0000
  C   C842      1.0  0.31303  0.48792  0.78071  1.0000
  H   H825      1.0  0.42828  0.06984  0.98288  1.0000
  Fe  Fe135     1.0  0.47067  0.02916  0.83698  1.0000
  C   C843      1.0  0.43013  0.06193  0.91780  1.0000
  Fe  Fe136     1.0  0.24968  0.42283  0.67895  1.0000
  H   H826      1.0  0.24550  0.05386  0.92949  1.0000
  H   H827      1.0  0.37608  0.18026  0.95745  1.0000
  C   C844      1.0  0.30552  0.38222  0.71935  1.0000
  C   C845      1.0  0.30281  0.18656  0.96476  1.0000
  N   N67       1.0  0.30154  0.39533  0.70245  1.0000
  H   H828      1.0  0.28864  0.34781  0.73620  1.0000
  N   N68       1.0  0.28716  0.49147  0.76010  1.0000
  H   H829      1.0  0.25985  0.03238  0.77906  1.0000
  H   H830      1.0  0.26184  0.46159  0.75518  1.0000
  H   H831      1.0  0.25692  0.06647  0.79021  1.0000
  S   S275      1.0  0.26554  0.01231  0.86933  1.0000
  S   S276      1.0  0.45784  0.01827  0.86437  1.0000
  C   C846      1.0  0.25100  0.06359  0.78362  1.0000
  H   H832      1.0  0.28814  0.47184  0.81175  1.0000
  C   C847      1.0  0.28094  0.35438  0.91202  1.0000
  S   S277      1.0  0.48545  0.03606  0.84088  1.0000
  H   H833      1.0  0.48465  0.00066  0.71758  1.0000
  C   C848      1.0  0.24941  0.06721  0.92583  1.0000
  H   H834      1.0  0.37288  0.21722  0.95738  1.0000
  H   H835      1.0  0.29434  0.19105  0.97106  1.0000
  H   H836      1.0  0.25284  0.03994  0.96111  1.0000
  S   S278      1.0  0.24601  0.05950  0.83824  1.0000
  H   H837      1.0  0.38168  0.16860  0.98064  1.0000
  S   S279      1.0  0.30447  0.22003  0.97899  1.0000
  S   S280      1.0  0.33708  0.27040  0.97665  1.0000
  C   C849      1.0  0.44858  0.00770  0.76999  1.0000
  C   C850      1.0  0.32010  0.48304  0.74460  1.0000
  C   C851      1.0  0.24186  0.99824  0.72017  1.0000
  H   H838      1.0  0.41142  0.10408  0.98072  1.0000
  C   C852      1.0  0.27337  0.49134  0.67617  1.0000
  C   C853      1.0  0.45870  0.01103  0.70680  1.0000
  H   H839      1.0  0.24018  0.09375  0.78709  1.0000
  N   N69       1.0  0.48481  0.07254  0.74977  1.0000
  C   C854      1.0  0.25242  0.05670  0.96192  1.0000
  N   N70       1.0  0.24481  0.04006  0.77040  1.0000
  S   S281      1.0  0.25248  0.45646  0.67046  1.0000
  H   H840      1.0  0.25897  0.05592  0.96950  1.0000
  H   H841      1.0  0.24484  0.40651  0.79641  1.0000
  S   S282      1.0  0.23819  0.42603  0.70990  1.0000
  H   H842      1.0  0.36273  0.24791  0.97363  1.0000
  H   H843      1.0  0.48686  0.10683  0.78602  1.0000
  N   N71       1.0  0.36804  0.19365  0.98467  1.0000
  C   C855      1.0  0.47408  0.02201  0.68179  1.0000
  C   C856      1.0  0.36271  0.23166  0.98275  1.0000
  H   H844      1.0  0.26237  0.08957  0.94755  1.0000
  H   H845      1.0  0.24464  0.06274  0.97194  1.0000
  H   H846      1.0  0.47957  0.03282  0.67616  1.0000
  H   H847      1.0  0.48791  0.94266  0.30160  1.0000
  H   H848      1.0  0.29734  0.50996  0.23230  1.0000
  H   H849      1.0  0.24992  0.98233  0.26537  1.0000
  Fe  Fe137     1.0  0.25389  0.52252  0.23363  1.0000
  S   S283      1.0  0.25937  0.55335  0.21884  1.0000
  H   H850      1.0  0.29420  0.55063  0.31253  1.0000
  Fe  Fe138     1.0  0.26217  0.55089  0.25089  1.0000
  S   S284      1.0  0.27814  0.55190  0.25529  1.0000
  H   H851      1.0  0.30618  0.51759  0.31286  1.0000
  H   H852      1.0  0.29887  0.61090  0.27511  1.0000
  S   S285      1.0  0.25795  0.51880  0.26465  1.0000
  H   H853      1.0  0.27553  0.52906  0.19057  1.0000
  C   C857      1.0  0.28442  0.49641  0.19422  1.0000
  C   C858      1.0  0.31193  0.50708  0.30350  1.0000
  C   C859      1.0  0.28159  0.51718  0.19786  1.0000
  N   N72       1.0  0.30799  0.57945  0.27222  1.0000
  C   C860      1.0  0.25700  0.96688  0.31315  1.0000
  C   C861      1.0  0.45834  0.97523  0.29132  1.0000
  H   H854      1.0  0.25002  0.87915  0.23581  1.0000
  H   H855      1.0  0.31017  0.60199  0.28721  1.0000
  H   H856      1.0  0.48084  0.97554  0.31545  1.0000
  H   H857      1.0  0.30190  0.55891  0.23727  1.0000
  C   C862      1.0  0.30640  0.56071  0.24766  1.0000
  H   H858      1.0  0.30022  0.50140  0.29015  1.0000
  S   S286      1.0  0.23949  0.95481  0.22350  1.0000
  C   C863      1.0  0.44315  0.97977  0.32060  1.0000
  C   C864      1.0  0.25387  0.96534  0.29547  1.0000
  N   N73       1.0  0.24065  0.89697  0.21271  1.0000
  C   C865      1.0  0.25206  0.98360  0.27926  1.0000
  H   H859      1.0  0.31838  0.53184  0.24399  1.0000
  H   H860      1.0  0.29531  0.58894  0.25573  1.0000
  H   H861      1.0  0.24408  0.92605  0.19181  1.0000
  C   C866      1.0  0.28627  0.52217  0.21156  1.0000
  H   H862      1.0  0.32810  0.53579  0.26888  1.0000
  H   H863      1.0  0.25312  0.94999  0.29407  1.0000
  C   C867      1.0  0.31558  0.54550  0.25151  1.0000
  C   C868      1.0  0.27913  0.57296  0.31373  1.0000
  Fe  Fe139     1.0  0.24248  0.56880  0.23153  1.0000
  H   H864      1.0  0.26393  0.59398  0.31059  1.0000
  C   C869      1.0  0.23909  0.91433  0.19646  1.0000
  H   H865      1.0  0.25690  0.89484  0.21233  1.0000
  C   C870      1.0  0.27024  0.58163  0.30445  1.0000
  C   C871      1.0  0.27794  0.55922  0.27860  1.0000
  C   C872      1.0  0.28663  0.55016  0.28830  1.0000
  C   C873      1.0  0.28726  0.55706  0.30573  1.0000
  C   C874      1.0  0.24913  0.89445  0.22376  1.0000
  C   C875      1.0  0.30857  0.49799  0.29050  1.0000
  C   C876      1.0  0.26961  0.57467  0.28695  1.0000
  H   H866      1.0  0.29306  0.53820  0.28194  1.0000
  H   H867      1.0  0.48234  0.95465  0.24438  1.0000
  S   S287      1.0  0.24448  0.88090  0.28755  1.0000
  H   H868      1.0  0.26287  0.58179  0.27953  1.0000
  C   C877      1.0  0.29380  0.50641  0.22127  1.0000
  H   H869      1.0  0.32095  0.56530  0.28792  1.0000
  C   C878      1.0  0.30270  0.57771  0.25818  1.0000
  H   H870      1.0  0.29846  0.59089  0.29936  1.0000
  S   S288      1.0  0.24578  0.56945  0.26243  1.0000
  C   C879      1.0  0.32099  0.54759  0.26562  1.0000
  H   H871      1.0  0.28395  0.53809  0.21493  1.0000
  S   S289      1.0  0.25784  0.99486  0.21604  1.0000
  H   H872      1.0  0.48699  0.99403  0.32074  1.0000
  C   C880      1.0  0.46290  0.95599  0.30358  1.0000
  C   C881      1.0  0.26839  0.51044  0.31097  1.0000
  H   H873      1.0  0.47047  0.94665  0.29696  1.0000
  C   C882      1.0  0.30368  0.59666  0.28400  1.0000
  C   C883      1.0  0.31694  0.56448  0.27623  1.0000
  H   H874      1.0  0.27301  0.51752  0.29597  1.0000
  S   S290      1.0  0.46544  0.98510  0.26604  1.0000
  Fe  Fe140     1.0  0.24136  0.53726  0.27365  1.0000
  H   H875      1.0  0.24726  0.90775  0.23219  1.0000
  C   C884      1.0  0.44845  0.98710  0.29979  1.0000
  H   H876      1.0  0.23938  0.95685  0.26683  1.0000
  Fe  Fe141     1.0  0.24264  0.98804  0.21388  1.0000
  C   C885      1.0  0.25823  0.98666  0.31462  1.0000
  Fe  Fe142     1.0  0.24514  0.88708  0.31844  1.0000
  C   C886      1.0  0.32277  0.50346  0.30344  1.0000
  S   S291      1.0  0.32752  0.51720  0.31698  1.0000
  H   H877      1.0  0.48114  0.99477  0.22962  1.0000
  H   H878      1.0  0.48791  0.96084  0.26303  1.0000
  H   H879      1.0  0.41620  0.89635  0.37800  1.0000
  C   C887      1.0  0.28823  0.83105  0.36119  1.0000
  Fe  Fe143     1.0  0.35255  0.71163  0.58615  1.0000
  S   S292      1.0  0.36714  0.69389  0.59890  1.0000
  S   S293      1.0  0.35360  0.71800  0.55101  1.0000
  Fe  Fe144     1.0  0.34010  0.72133  0.62888  1.0000
  H   H880      1.0  0.46281  0.83576  0.64547  1.0000
  S   S294      1.0  0.31521  0.59612  0.38025  1.0000
  Fe  Fe145     1.0  0.36388  0.72111  0.61544  1.0000
  S   S295      1.0  0.37476  0.74423  0.60963  1.0000
  Fe  Fe146     1.0  0.35550  0.67944  0.62688  1.0000
  C   C888      1.0  0.37381  0.81554  0.65332  1.0000
  S   S296      1.0  0.34991  0.73957  0.60090  1.0000
  S   S297      1.0  0.34118  0.69531  0.61277  1.0000
  Fe  Fe147     1.0  0.34008  0.66416  0.48058  1.0000
  S   S298      1.0  0.35442  0.65768  0.45449  1.0000
  S   S299      1.0  0.33955  0.65330  0.51562  1.0000
  Fe  Fe148     1.0  0.32608  0.69050  0.44998  1.0000
  S   S300      1.0  0.33938  0.68702  0.42160  1.0000
  S   S301      1.0  0.30919  0.70495  0.44687  1.0000
  Fe  Fe149     1.0  0.34289  0.65221  0.43800  1.0000
  S   S302      1.0  0.34619  0.62410  0.42154  1.0000
  Fe  Fe150     1.0  0.34946  0.69296  0.44077  1.0000
  S   S303      1.0  0.35983  0.71801  0.42735  1.0000
  S   S304      1.0  0.32912  0.65565  0.46563  1.0000
  S   S305      1.0  0.33561  0.69948  0.46760  1.0000
  C   C889      1.0  0.34742  0.63094  0.64578  1.0000
  H   H881      1.0  0.27997  0.52935  0.38915  1.0000
  Fe  Fe151     1.0  0.24976  0.87391  0.36243  1.0000
  S   S306      1.0  0.25674  0.84882  0.38804  1.0000
  H   H882      1.0  0.44445  0.88115  0.59418  1.0000
  S   S307      1.0  0.25968  0.94434  0.33340  1.0000
  S   S308      1.0  0.33437  0.88566  0.58019  1.0000
  C   C890      1.0  0.46826  0.83818  0.44255  1.0000
  S   S309      1.0  0.34764  0.83915  0.60306  1.0000
  S   S310      1.0  0.31883  0.53328  0.37361  1.0000
  Fe  Fe152     1.0  0.34683  0.87395  0.59977  1.0000
  S   S311      1.0  0.36275  0.88310  0.58838  1.0000
  Fe  Fe153     1.0  0.33448  0.85076  0.58546  1.0000
  S   S312      1.0  0.33666  0.83403  0.55932  1.0000
  S   S313      1.0  0.32156  0.85030  0.61480  1.0000
  Fe  Fe154     1.0  0.30195  0.84688  0.48430  1.0000
  S   S314      1.0  0.31268  0.85511  0.45243  1.0000
  S   S315      1.0  0.29940  0.86461  0.51004  1.0000
  Fe  Fe155     1.0  0.29551  0.81216  0.47265  1.0000
  S   S316      1.0  0.30578  0.81676  0.44011  1.0000
  S   S317      1.0  0.28531  0.78804  0.48199  1.0000
  Fe  Fe156     1.0  0.31791  0.81941  0.45595  1.0000
  S   S318      1.0  0.33488  0.80215  0.44709  1.0000
  Fe  Fe157     1.0  0.29953  0.85171  0.43950  1.0000
  S   S319      1.0  0.29433  0.87334  0.41036  1.0000
  S   S320      1.0  0.30821  0.81126  0.48886  1.0000
  S   S321      1.0  0.28822  0.84703  0.47100  1.0000
  S   S322      1.0  0.47353  0.90394  0.41548  1.0000
  S   S323      1.0  0.45917  0.89849  0.38483  1.0000
  Fe  Fe158     1.0  0.45665  0.90117  0.41839  1.0000
  S   S324      1.0  0.44734  0.88007  0.44577  1.0000
  Fe  Fe159     1.0  0.47549  0.90416  0.38117  1.0000
  N   N74       1.0  0.29126  0.80225  0.39887  1.0000
  S   S325      1.0  0.40162  0.82027  0.62860  1.0000
  S   S326      1.0  0.30737  0.90733  0.62119  1.0000
  H   H883      1.0  0.48118  0.85043  0.44490  1.0000
  S   S327      1.0  0.41773  0.84872  0.63218  1.0000
  C   C891      1.0  0.44477  0.82840  0.60071  1.0000
  C   C892      1.0  0.46338  0.83377  0.42874  1.0000
  C   C893      1.0  0.34523  0.59077  0.60146  1.0000
  Fe  Fe160     1.0  0.41799  0.82582  0.61261  1.0000
  S   S328      1.0  0.42222  0.83392  0.57693  1.0000
  C   C894      1.0  0.29601  0.84581  0.64943  1.0000
  S   S329      1.0  0.42644  0.79683  0.63288  1.0000
  Fe  Fe161     1.0  0.40482  0.81198  0.45789  1.0000
  S   S330      1.0  0.39483  0.82678  0.48525  1.0000
  S   S331      1.0  0.41685  0.82848  0.43184  1.0000
  Fe  Fe162     1.0  0.39385  0.77329  0.47163  1.0000
  S   S332      1.0  0.38363  0.78496  0.50042  1.0000
  S   S333      1.0  0.39173  0.74082  0.46963  1.0000
  Fe  Fe163     1.0  0.38132  0.81717  0.47883  1.0000
  S   S334      1.0  0.36440  0.83580  0.48407  1.0000
  Fe  Fe164     1.0  0.39803  0.79325  0.50444  1.0000
  S   S335      1.0  0.40033  0.78438  0.53802  1.0000
  S   S336      1.0  0.39085  0.80545  0.44953  1.0000
  S   S337      1.0  0.40878  0.77851  0.47761  1.0000
  C   C895      1.0  0.41629  0.82022  0.56569  1.0000
  C   C896      1.0  0.41526  0.82756  0.54454  1.0000
  C   C897      1.0  0.41039  0.81675  0.53569  1.0000
  C   C898      1.0  0.40667  0.79842  0.54794  1.0000
  C   C899      1.0  0.40782  0.79103  0.56897  1.0000
  C   C900      1.0  0.41257  0.80191  0.57783  1.0000
  H   H884      1.0  0.41817  0.84168  0.53503  1.0000
  H   H885      1.0  0.40959  0.82251  0.51942  1.0000
  H   H886      1.0  0.40510  0.77675  0.57848  1.0000
  H   H887      1.0  0.41353  0.79585  0.59397  1.0000
  C   C901      1.0  0.43904  0.86540  0.44178  1.0000
  C   C902      1.0  0.43238  0.85496  0.45934  1.0000
  C   C903      1.0  0.42561  0.84335  0.45664  1.0000
  C   C904      1.0  0.42558  0.84180  0.43634  1.0000
  C   C905      1.0  0.43243  0.85182  0.41885  1.0000
  C   C906      1.0  0.43901  0.86381  0.42152  1.0000
  H   H888      1.0  0.43238  0.85597  0.47512  1.0000
  H   H889      1.0  0.42040  0.83562  0.47026  1.0000
  H   H890      1.0  0.43243  0.85075  0.40309  1.0000
  H   H891      1.0  0.44401  0.87185  0.40787  1.0000
  H   H892      1.0  0.34831  0.58677  0.40529  1.0000
  H   H893      1.0  0.35435  0.80490  0.63679  1.0000
  C   C907      1.0  0.48176  0.84996  0.41272  1.0000
  C   C908      1.0  0.38497  0.73369  0.64331  1.0000
  H   H894      1.0  0.43086  0.92137  0.43989  1.0000
  H   H895      1.0  0.27746  0.89923  0.44320  1.0000
  H   H896      1.0  0.45924  0.84938  0.38247  1.0000
  C   C909      1.0  0.34318  0.81096  0.45756  1.0000
  C   C910      1.0  0.33871  0.82547  0.47081  1.0000
  C   C911      1.0  0.34524  0.83226  0.47963  1.0000
  C   C912      1.0  0.35630  0.82516  0.47469  1.0000
  C   C913      1.0  0.36077  0.81013  0.46187  1.0000
  C   C914      1.0  0.35421  0.80304  0.45328  1.0000
  H   H897      1.0  0.33022  0.83146  0.47422  1.0000
  H   H898      1.0  0.34165  0.84291  0.49039  1.0000
  H   H899      1.0  0.36926  0.80414  0.45827  1.0000
  H   H900      1.0  0.35771  0.79164  0.44315  1.0000
  C   C915      1.0  0.36937  0.87959  0.60866  1.0000
  C   C916      1.0  0.38050  0.87636  0.60385  1.0000
  C   C917      1.0  0.38602  0.87200  0.62000  1.0000
  S   S338      1.0  0.28030  0.58279  0.33456  1.0000
  H   H901      1.0  0.38135  0.71985  0.64952  1.0000
  C   C918      1.0  0.36376  0.87921  0.62960  1.0000
  H   H902      1.0  0.25077  0.87501  0.44280  1.0000
  Fe  Fe165     1.0  0.40984  0.79261  0.65011  1.0000
  C   C919      1.0  0.32571  0.84117  0.54736  1.0000
  C   C920      1.0  0.31653  0.85599  0.55408  1.0000
  C   C921      1.0  0.30826  0.86271  0.54298  1.0000
  C   C922      1.0  0.30915  0.85445  0.52534  1.0000
  C   C923      1.0  0.31819  0.83918  0.51916  1.0000
  C   C924      1.0  0.32648  0.83264  0.53006  1.0000
  H   H903      1.0  0.31590  0.86263  0.56748  1.0000
  H   H904      1.0  0.30126  0.87455  0.54784  1.0000
  H   H905      1.0  0.31890  0.83282  0.50566  1.0000
  H   H906      1.0  0.33361  0.82135  0.52479  1.0000
  C   C925      1.0  0.26709  0.85582  0.39437  1.0000
  C   C926      1.0  0.27179  0.87257  0.38107  1.0000
  C   C927      1.0  0.28027  0.87761  0.38591  1.0000
  C   C928      1.0  0.28401  0.86611  0.40419  1.0000
  C   C929      1.0  0.27930  0.84936  0.41754  1.0000
  C   C930      1.0  0.27087  0.84420  0.41260  1.0000
  H   H907      1.0  0.26896  0.88153  0.36693  1.0000
  H   H908      1.0  0.28392  0.89053  0.37552  1.0000
  H   H909      1.0  0.28212  0.84045  0.43172  1.0000
  H   H910      1.0  0.26725  0.83123  0.42294  1.0000
  H   H911      1.0  0.30208  0.51633  0.44201  1.0000
  C   C931      1.0  0.36815  0.72455  0.44031  1.0000
  C   C932      1.0  0.37221  0.71006  0.45714  1.0000
  C   C933      1.0  0.37935  0.71536  0.46598  1.0000
  C   C934      1.0  0.38226  0.73546  0.45863  1.0000
  C   C935      1.0  0.37784  0.75027  0.44239  1.0000
  C   C936      1.0  0.37098  0.74470  0.43308  1.0000
  H   H912      1.0  0.37012  0.69451  0.46291  1.0000
  H   H913      1.0  0.38270  0.70374  0.47851  1.0000
  H   H914      1.0  0.37998  0.76578  0.43653  1.0000
  H   H915      1.0  0.36786  0.75610  0.42014  1.0000
  C   C937      1.0  0.30293  0.72852  0.45598  1.0000
  C   C938      1.0  0.29179  0.73424  0.46014  1.0000
  C   C939      1.0  0.28644  0.75246  0.46833  1.0000
  C   C940      1.0  0.29221  0.76535  0.47181  1.0000
  C   C941      1.0  0.30338  0.75996  0.46725  1.0000
  C   C942      1.0  0.30876  0.74134  0.45955  1.0000
  H   H916      1.0  0.28729  0.72433  0.45736  1.0000
  H   H917      1.0  0.27781  0.75668  0.47176  1.0000
  H   H918      1.0  0.30787  0.76996  0.46988  1.0000
  H   H919      1.0  0.31737  0.73705  0.45614  1.0000
  C   C943      1.0  0.38308  0.74766  0.62432  1.0000
  H   H920      1.0  0.46779  0.82296  0.38289  1.0000
  Fe  Fe166     1.0  0.31624  0.53580  0.34107  1.0000
  Fe  Fe167     1.0  0.25136  0.91811  0.33658  1.0000
  C   C944      1.0  0.39450  0.76938  0.62727  1.0000
  C   C945      1.0  0.38795  0.76533  0.61634  1.0000
  H   H921      1.0  0.28332  0.52320  0.44809  1.0000
  H   H922      1.0  0.28068  0.54258  0.42467  1.0000
  H   H923      1.0  0.39820  0.78302  0.62080  1.0000
  H   H924      1.0  0.38671  0.77590  0.60146  1.0000
  C   C946      1.0  0.34990  0.69945  0.54158  1.0000
  C   C947      1.0  0.34415  0.68445  0.55533  1.0000
  C   C948      1.0  0.34100  0.67029  0.54726  1.0000
  C   C949      1.0  0.34377  0.67081  0.52549  1.0000
  C   C950      1.0  0.34957  0.68572  0.51178  1.0000
  C   C951      1.0  0.35261  0.70002  0.51982  1.0000
  H   H925      1.0  0.34193  0.68407  0.57210  1.0000
  H   H926      1.0  0.33629  0.65915  0.55788  1.0000
  H   H927      1.0  0.35182  0.68611  0.49499  1.0000
  H   H928      1.0  0.35720  0.71134  0.50915  1.0000
  H   H929      1.0  0.41663  0.93095  0.44807  1.0000
  H   H930      1.0  0.45303  0.80277  0.62162  1.0000
  C   C952      1.0  0.33264  0.62754  0.63338  1.0000
  C   C953      1.0  0.41478  0.89713  0.42900  1.0000
  C   C954      1.0  0.48210  0.98168  0.32818  1.0000
  H   H931      1.0  0.30991  0.81992  0.64940  1.0000
  C   C955      1.0  0.28157  0.81656  0.37101  1.0000
  H   H932      1.0  0.25258  0.93451  0.38509  1.0000
  C   C956      1.0  0.31127  0.54038  0.43472  1.0000
  C   C957      1.0  0.32075  0.62267  0.39891  1.0000
  C   C958      1.0  0.32731  0.62909  0.40833  1.0000
  C   C959      1.0  0.33732  0.61626  0.41071  1.0000
  C   C960      1.0  0.34059  0.59686  0.40363  1.0000
  H   H933      1.0  0.31307  0.63288  0.39708  1.0000
  H   H934      1.0  0.32462  0.64406  0.41361  1.0000
  H   H935      1.0  0.41139  0.88946  0.44497  1.0000
  C   C961      1.0  0.26101  0.92866  0.38671  1.0000
  S   S339      1.0  0.33520  0.87590  0.63068  1.0000
  S   S340      1.0  0.24237  0.90653  0.36931  1.0000
  S   S341      1.0  0.29982  0.52947  0.35252  1.0000
  H   H936      1.0  0.27489  0.81708  0.36448  1.0000
  C   C962      1.0  0.34033  0.63882  0.63219  1.0000
  H   H937      1.0  0.34846  0.73215  0.47143  1.0000
  C   C963      1.0  0.26396  0.88605  0.44576  1.0000
  H   H938      1.0  0.28681  0.84275  0.34687  1.0000
  H   H939      1.0  0.31877  0.52886  0.43512  1.0000
  C   C964      1.0  0.38618  0.72509  0.55969  1.0000
  H   H940      1.0  0.24901  0.90030  0.40880  1.0000
  C   C965      1.0  0.39879  0.73718  0.57167  1.0000
  H   H941      1.0  0.43550  0.98896  0.32715  1.0000
  S   S342      1.0  0.45071  0.93690  0.41199  1.0000
  N   N75       1.0  0.29233  0.54791  0.43748  1.0000
  C   C966      1.0  0.29205  0.56946  0.43253  1.0000
  C   C967      1.0  0.30178  0.53341  0.43856  1.0000
  C   C968      1.0  0.30137  0.57697  0.42878  1.0000
  C   C969      1.0  0.31103  0.56231  0.42986  1.0000
  C   C970      1.0  0.28251  0.54052  0.44035  1.0000
  H   H942      1.0  0.28465  0.58098  0.43090  1.0000
  H   H943      1.0  0.27570  0.54965  0.45031  1.0000
  H   H944      1.0  0.30122  0.59406  0.42422  1.0000
  H   H945      1.0  0.47858  0.98889  0.36684  1.0000
  C   C971      1.0  0.34682  0.61262  0.56608  1.0000
  H   H946      1.0  0.48742  0.98436  0.65402  1.0000
  N   N76       1.0  0.33985  0.88294  0.50082  1.0000
  C   C972      1.0  0.34312  0.88334  0.47960  1.0000
  C   C973      1.0  0.32924  0.88821  0.50980  1.0000
  C   C974      1.0  0.33565  0.88838  0.46696  1.0000
  C   C975      1.0  0.32157  0.89367  0.49756  1.0000
  C   C976      1.0  0.32480  0.89339  0.47609  1.0000
  C   C977      1.0  0.34766  0.87476  0.51431  1.0000
  H   H947      1.0  0.35151  0.87851  0.47258  1.0000
  H   H948      1.0  0.32664  0.88763  0.52666  1.0000
  H   H949      1.0  0.33825  0.88762  0.45037  1.0000
  H   H950      1.0  0.31313  0.89724  0.50486  1.0000
  H   H951      1.0  0.31888  0.89665  0.46669  1.0000
  H   H952      1.0  0.35551  0.87871  0.50571  1.0000
  H   H953      1.0  0.34497  0.88157  0.52874  1.0000
  H   H954      1.0  0.34877  0.85701  0.51936  1.0000
  H   H955      1.0  0.26069  0.98789  0.32820  1.0000
  H   H956      1.0  0.35741  0.63428  0.55783  1.0000
  C   C978      1.0  0.27091  0.90002  0.43619  1.0000
  C   C979      1.0  0.26804  0.51059  0.39632  1.0000
  H   H957      1.0  0.28978  0.77288  0.42152  1.0000
  Fe  Fe168     1.0  0.33473  0.84213  0.63203  1.0000
  H   H958      1.0  0.35517  0.88202  0.63337  1.0000
  C   C980      1.0  0.47152  0.99412  0.36025  1.0000
  H   H959      1.0  0.34456  0.61773  0.55084  1.0000
  H   H960      1.0  0.45996  0.81014  0.64883  1.0000
  Fe  Fe169     1.0  0.30182  0.52945  0.38430  1.0000
  C   C981      1.0  0.33255  0.79198  0.63883  1.0000
  C   C982      1.0  0.47748  0.84640  0.43444  1.0000
  H   H961      1.0  0.45519  0.82650  0.40145  1.0000
  C   C983      1.0  0.27775  0.51421  0.39734  1.0000
  C   C984      1.0  0.34230  0.59708  0.58195  1.0000
  C   C985      1.0  0.29778  0.81653  0.38941  1.0000
  C   C986      1.0  0.28315  0.80230  0.39005  1.0000
  C   C987      1.0  0.29244  0.78798  0.41937  1.0000
  S   S343      1.0  0.29651  0.50299  0.41092  1.0000
  C   C988      1.0  0.33059  0.77342  0.63593  1.0000
  H   H962      1.0  0.31835  0.56799  0.42642  1.0000
  C   C989      1.0  0.45128  0.81997  0.61546  1.0000
  C   C990      1.0  0.41747  0.90079  0.39134  1.0000
  H   H963      1.0  0.33666  0.57539  0.38909  1.0000
  H   H964      1.0  0.44159  0.81791  0.59531  1.0000
  H   H965      1.0  0.40817  0.87962  0.41479  1.0000
  H   H966      1.0  0.35981  0.64343  0.59482  1.0000
  H   H967      1.0  0.40335  0.73060  0.50296  1.0000
  C   C991      1.0  0.42378  0.91559  0.38800  1.0000
  H   H968      1.0  0.37617  0.68525  0.40641  1.0000
  N   N77       1.0  0.45531  0.83323  0.62217  1.0000
  C   C992      1.0  0.45302  0.85494  0.61450  1.0000
  H   H969      1.0  0.34102  0.65312  0.62010  1.0000
  C   C993      1.0  0.44639  0.86392  0.60001  1.0000
  Fe  Fe170     1.0  0.29457  0.56503  0.34872  1.0000
  C   C994      1.0  0.44227  0.85051  0.59306  1.0000
  C   C995      1.0  0.39632  0.75571  0.64638  1.0000
  C   C996      1.0  0.37168  0.67909  0.39901  1.0000
  H   H970      1.0  0.39107  0.83338  0.57123  1.0000
  H   H971      1.0  0.32738  0.63353  0.62237  1.0000
  C   C997      1.0  0.46261  0.82394  0.63668  1.0000
  H   H972      1.0  0.30136  0.84284  0.36338  1.0000
  S   S344      1.0  0.25961  0.88544  0.33040  1.0000
  N   N78       1.0  0.35684  0.61578  0.58938  1.0000
  H   H973      1.0  0.35504  0.63817  0.37413  1.0000
  N   N79       1.0  0.30002  0.72873  0.51948  1.0000
  C   C998      1.0  0.31004  0.72264  0.52353  1.0000
  C   C999      1.0  0.29659  0.71643  0.51044  1.0000
  C   C1000     1.0  0.31689  0.70377  0.51855  1.0000
  C   C1001     1.0  0.30329  0.69758  0.50504  1.0000
  C   C1002     1.0  0.31347  0.69117  0.50928  1.0000
  C   C1003     1.0  0.29303  0.74858  0.52495  1.0000
  H   H974      1.0  0.31278  0.73238  0.53065  1.0000
  H   H975      1.0  0.28871  0.72133  0.50695  1.0000
  H   H976      1.0  0.32483  0.69899  0.52172  1.0000
  H   H977      1.0  0.30070  0.68825  0.49717  1.0000
  H   H978      1.0  0.31875  0.67657  0.50520  1.0000
  H   H979      1.0  0.28527  0.75212  0.52024  1.0000
  H   H980      1.0  0.29140  0.74745  0.54227  1.0000
  H   H981      1.0  0.29684  0.76245  0.51646  1.0000
  N   N80       1.0  0.35954  0.66365  0.38127  1.0000
  C   C1004     1.0  0.36600  0.64962  0.39398  1.0000
  C   C1005     1.0  0.37216  0.65712  0.40303  1.0000
  C   C1006     1.0  0.35260  0.65582  0.37292  1.0000
  H   H982      1.0  0.36624  0.63254  0.39762  1.0000
  H   H983      1.0  0.37706  0.64601  0.41353  1.0000
  H   H984      1.0  0.35277  0.66364  0.35603  1.0000
  H   H985      1.0  0.34427  0.65919  0.38228  1.0000
  N   N81       1.0  0.37807  0.82254  0.56770  1.0000
  C   C1007     1.0  0.37122  0.80885  0.57671  1.0000
  C   C1008     1.0  0.37902  0.83273  0.54685  1.0000
  C   C1009     1.0  0.36507  0.80512  0.56478  1.0000
  C   C1010     1.0  0.37301  0.82933  0.53446  1.0000
  C   C1011     1.0  0.36596  0.81552  0.54354  1.0000
  C   C1012     1.0  0.38376  0.82765  0.58087  1.0000
  H   H986      1.0  0.37035  0.80093  0.59328  1.0000
  H   H987      1.0  0.38442  0.84363  0.53971  1.0000
  H   H988      1.0  0.35952  0.79452  0.57205  1.0000
  H   H989      1.0  0.37376  0.83744  0.51796  1.0000
  H   H990      1.0  0.36112  0.81307  0.53415  1.0000
  H   H991      1.0  0.37847  0.84044  0.58899  1.0000
  H   H992      1.0  0.38637  0.81332  0.59285  1.0000
  H   H993      1.0  0.26282  0.52301  0.38743  1.0000
  Fe  Fe171     1.0  0.40214  0.84005  0.65018  1.0000
  H   H994      1.0  0.28203  0.87085  0.65471  1.0000
  H   H995      1.0  0.46465  0.83600  0.45933  1.0000
  H   H996      1.0  0.28763  0.79620  0.43236  1.0000
  H   H997      1.0  0.27766  0.79171  0.39801  1.0000
  C   C1013     1.0  0.29639  0.83110  0.37043  1.0000
  C   C1014     1.0  0.36569  0.81899  0.64266  1.0000
  S   S345      1.0  0.32285  0.59378  0.64732  1.0000
  S   S346      1.0  0.44184  0.95320  0.35979  1.0000
  N   N82       1.0  0.47193  0.99125  0.34066  1.0000
  Fe  Fe172     1.0  0.46782  0.93957  0.40547  1.0000
  C   C1015     1.0  0.35409  0.62191  0.57012  1.0000
  C   C1016     1.0  0.25597  0.88632  0.43592  1.0000
  H   H998      1.0  0.30394  0.81713  0.39678  1.0000
  H   H999      1.0  0.38487  0.87677  0.58767  1.0000
  C   C1017     1.0  0.44795  0.96104  0.33317  1.0000
  H   H1000     1.0  0.47079  0.81841  0.62775  1.0000
  H   H1001     1.0  0.33646  0.59008  0.57923  1.0000
  H   H1002     1.0  0.29736  0.85071  0.63231  1.0000
  C   C1018     1.0  0.36510  0.69327  0.38600  1.0000
  H   H1003     1.0  0.38649  0.71773  0.51154  1.0000
  C   C1019     1.0  0.39855  0.72873  0.51897  1.0000
  H   H1004     1.0  0.26434  0.94303  0.38405  1.0000
  C   C1020     1.0  0.47662  0.84561  0.39933  1.0000
  H   H1005     1.0  0.45623  0.86546  0.61978  1.0000
  S   S347      1.0  0.47181  0.96726  0.41314  1.0000
  H   H1006     1.0  0.33548  0.80361  0.62521  1.0000
  H   H1007     1.0  0.48648  0.96788  0.33834  1.0000
  Fe  Fe173     1.0  0.42483  0.81943  0.65402  1.0000
  S   S348      1.0  0.31094  0.57186  0.33507  1.0000
  C   C1021     1.0  0.25502  0.90070  0.41663  1.0000
  C   C1022     1.0  0.35259  0.60027  0.60490  1.0000
  H   H1008     1.0  0.35462  0.59559  0.62031  1.0000
  H   H1009     1.0  0.33640  0.75133  0.46708  1.0000
  C   C1023     1.0  0.38906  0.72163  0.52373  1.0000
  H   H1010     1.0  0.40893  0.73987  0.53094  1.0000
  H   H1011     1.0  0.31677  0.69266  0.65253  1.0000
  C   C1024     1.0  0.36400  0.62673  0.59354  1.0000
  C   C1025     1.0  0.32669  0.75836  0.65340  1.0000
  H   H1012     1.0  0.27555  0.92410  0.40901  1.0000
  C   C1026     1.0  0.48715  0.99055  0.40532  1.0000
  H   H1013     1.0  0.33195  0.77090  0.62011  1.0000
  H   H1014     1.0  0.42738  0.92297  0.37204  1.0000
  C   C1027     1.0  0.32400  0.60326  0.39187  1.0000
  Fe  Fe174     1.0  0.31196  0.56902  0.36887  1.0000
  C   C1028     1.0  0.35902  0.68523  0.37726  1.0000
  C   C1029     1.0  0.40169  0.73381  0.53489  1.0000
  H   H1015     1.0  0.45608  0.82782  0.43522  1.0000
  H   H1016     1.0  0.43709  0.85718  0.58184  1.0000
  Fe  Fe175     1.0  0.45425  0.93434  0.37827  1.0000
  S   S349      1.0  0.47079  0.93989  0.37107  1.0000
  H   H1017     1.0  0.43038  0.93240  0.40260  1.0000
  H   H1018     1.0  0.42302  0.90336  0.45750  1.0000
  C   C1030     1.0  0.42549  0.92081  0.40540  1.0000
  C   C1031     1.0  0.26381  0.52267  0.32645  1.0000
  C   C1032     1.0  0.33633  0.77942  0.51242  1.0000
  H   H1019     1.0  0.32848  0.77324  0.49153  1.0000
  H   H1020     1.0  0.32914  0.78877  0.52050  1.0000
  S   S350      1.0  0.35374  0.70484  0.64475  1.0000
  N   N83       1.0  0.34506  0.75881  0.48577  1.0000
  C   C1033     1.0  0.33599  0.77041  0.49617  1.0000
  C   C1034     1.0  0.35528  0.76501  0.50700  1.0000
  C   C1035     1.0  0.34605  0.77662  0.51789  1.0000
  H   H1021     1.0  0.36290  0.76277  0.51102  1.0000
  H   H1022     1.0  0.34644  0.78353  0.53045  1.0000
  N   N84       1.0  0.42115  0.91133  0.42558  1.0000
  C   C1036     1.0  0.33398  0.59032  0.39442  1.0000
  C   C1037     1.0  0.41288  0.89157  0.41196  1.0000
  C   C1038     1.0  0.35463  0.75622  0.49085  1.0000
  C   C1039     1.0  0.34468  0.74951  0.46865  1.0000
  C   C1040     1.0  0.38281  0.71987  0.54418  1.0000
  C   C1041     1.0  0.42294  0.91713  0.44364  1.0000
  C   C1042     1.0  0.25766  0.51389  0.34564  1.0000
  H   H1023     1.0  0.36182  0.74736  0.48237  1.0000
  H   H1024     1.0  0.35365  0.69641  0.36776  1.0000
  N   N85       1.0  0.39558  0.73164  0.55503  1.0000
  H   H1025     1.0  0.37536  0.71463  0.54796  1.0000
  H   H1026     1.0  0.39796  0.72459  0.58646  1.0000
  Fe  Fe176     1.0  0.32267  0.88415  0.61166  1.0000
  S   S351      1.0  0.29499  0.56458  0.38189  1.0000
  H   H1027     1.0  0.34898  0.75783  0.45330  1.0000
  H   H1028     1.0  0.30091  0.78325  0.42081  1.0000
  H   H1029     1.0  0.36312  0.83469  0.63306  1.0000
  H   H1030     1.0  0.39464  0.86908  0.61618  1.0000
  H   H1031     1.0  0.36444  0.71044  0.38340  1.0000
  H   H1032     1.0  0.38121  0.72397  0.57547  1.0000
  H   H1033     1.0  0.39359  0.75256  0.57508  1.0000
  H   H1034     1.0  0.40717  0.73925  0.56689  1.0000
  S   S352      1.0  0.32495  0.73454  0.64975  1.0000
  H   H1035     1.0  0.46145  0.93447  0.33423  1.0000
  N   N86       1.0  0.46754  0.83765  0.40741  1.0000
  H   H1036     1.0  0.28875  0.92637  0.64930  1.0000
  H   H1037     1.0  0.48053  0.92042  0.33570  1.0000
  C   C1043     1.0  0.26978  0.91407  0.41681  1.0000
  C   C1044     1.0  0.48513  0.97014  0.40801  1.0000
  H   H1038     1.0  0.36661  0.61863  0.60865  1.0000
  H   H1039     1.0  0.37124  0.62714  0.58061  1.0000
  C   C1045     1.0  0.33190  0.60825  0.64824  1.0000
  H   H1040     1.0  0.35677  0.76539  0.64395  1.0000
  N   N87       1.0  0.26180  0.91450  0.40745  1.0000
  C   C1046     1.0  0.28440  0.49848  0.40931  1.0000
  H   H1041     1.0  0.34160  0.57901  0.61408  1.0000
  H   H1042     1.0  0.26500  0.87456  0.46041  1.0000
  C   C1047     1.0  0.46217  0.83389  0.39287  1.0000
  C   C1048     1.0  0.36928  0.87534  0.64573  1.0000
  S   S353      1.0  0.35752  0.64443  0.64372  1.0000
  H   H1043     1.0  0.37770  0.82843  0.65188  1.0000
  H   H1044     1.0  0.47986  0.84900  0.38239  1.0000
  H   H1045     1.0  0.26544  0.91989  0.37394  1.0000
  H   H1046     1.0  0.43492  0.86459  0.65159  1.0000
  C   C1049     1.0  0.36078  0.80213  0.64476  1.0000
  C   C1050     1.0  0.38043  0.87139  0.64095  1.0000
  H   H1047     1.0  0.25397  0.52315  0.35780  1.0000
  C   C1051     1.0  0.30230  0.89981  0.64851  1.0000
  C   C1052     1.0  0.39161  0.73769  0.65426  1.0000
  C   C1053     1.0  0.45780  0.94911  0.32464  1.0000
  H   H1048     1.0  0.31463  0.87136  0.65292  1.0000
  H   H1049     1.0  0.26495  0.53890  0.32355  1.0000
  H   H1050     1.0  0.24741  0.50445  0.73657  1.0000
  C   C1054     1.0  0.25804  0.88358  0.86192  1.0000
  H   H1051     1.0  0.30979  0.49848  0.79172  1.0000
  H   H1052     1.0  0.43930  0.95965  0.80702  1.0000
  Fe  Fe177     1.0  0.29635  0.54933  0.68611  1.0000
  S   S354      1.0  0.29808  0.53536  0.71938  1.0000
  Fe  Fe178     1.0  0.31552  0.52729  0.70579  1.0000
  S   S355      1.0  0.31873  0.55814  0.70813  1.0000
  H   H1053     1.0  0.42634  0.82843  0.71729  1.0000
  H   H1054     1.0  0.36330  0.74917  0.66457  1.0000
  Fe  Fe179     1.0  0.30091  0.56710  0.71896  1.0000
  S   S356      1.0  0.29171  0.58081  0.74725  1.0000
  H   H1055     1.0  0.24140  0.89196  0.78460  1.0000
  S   S357      1.0  0.29782  0.58203  0.68655  1.0000
  Fe  Fe180     1.0  0.26845  0.93916  0.75684  1.0000
  S   S358      1.0  0.25249  0.93157  0.77195  1.0000
  S   S359      1.0  0.27111  0.96850  0.76336  1.0000
  Fe  Fe181     1.0  0.27596  0.90046  0.73687  1.0000
  S   S360      1.0  0.26048  0.88942  0.75047  1.0000
  S   S361      1.0  0.29046  0.88023  0.71993  1.0000
  Fe  Fe182     1.0  0.25306  0.92432  0.74121  1.0000
  C   C1055     1.0  0.45282  0.97560  0.75588  1.0000
  Fe  Fe183     1.0  0.26120  0.89774  0.78007  1.0000
  S   S362      1.0  0.25573  0.88028  0.81320  1.0000
  S   S363      1.0  0.26848  0.93485  0.72493  1.0000
  S   S364      1.0  0.27734  0.90568  0.76750  1.0000
  H   H1056     1.0  0.31633  0.60886  0.69166  1.0000
  H   H1057     1.0  0.36493  0.87477  0.66194  1.0000
  S   S365      1.0  0.26577  0.95315  0.86214  1.0000
  H   H1058     1.0  0.25704  0.51392  0.74428  1.0000
  C   C1056     1.0  0.29075  0.95501  0.71526  1.0000
  H   H1059     1.0  0.46888  0.97405  0.88853  1.0000
  C   C1057     1.0  0.26812  0.94472  0.80390  1.0000
  S   S366      1.0  0.47800  0.92377  0.73617  1.0000
  Fe  Fe184     1.0  0.46471  0.90006  0.70477  1.0000
  S   S367      1.0  0.46506  0.93524  0.69818  1.0000
  S   S368      1.0  0.45526  0.89421  0.68348  1.0000
  Fe  Fe185     1.0  0.31542  0.57053  0.67535  1.0000
  Fe  Fe186     1.0  0.46104  0.93177  0.73330  1.0000
  S   S369      1.0  0.44844  0.95586  0.74965  1.0000
  S   S370      1.0  0.45948  0.89760  0.74009  1.0000
  C   C1058     1.0  0.24349  0.97627  0.72094  1.0000
  H   H1060     1.0  0.26293  0.53299  0.70845  1.0000
  H   H1061     1.0  0.31354  0.88661  0.71156  1.0000
  C   C1059     1.0  0.31113  0.62499  0.68780  1.0000
  S   S371      1.0  0.24541  0.56523  0.76140  1.0000
  N   N88       1.0  0.31720  0.64197  0.68173  1.0000
  H   H1062     1.0  0.44927  0.92772  0.79534  1.0000
  H   H1063     1.0  0.45520  0.98232  0.70373  1.0000
  C   C1060     1.0  0.37171  0.77904  0.66789  1.0000
  S   S372      1.0  0.45671  0.96080  0.86015  1.0000
  C   C1061     1.0  0.28587  0.85088  0.68405  1.0000
  H   H1064     1.0  0.33847  0.58527  0.67341  1.0000
  C   C1062     1.0  0.23854  0.94688  0.83570  1.0000
  C   C1063     1.0  0.29136  0.50164  0.68147  1.0000
  H   H1065     1.0  0.44230  0.89322  0.65629  1.0000
  C   C1064     1.0  0.45250  0.85198  0.69282  1.0000
  H   H1066     1.0  0.40376  0.85152  0.69052  1.0000
  H   H1067     1.0  0.45738  0.84836  0.70433  1.0000
  H   H1068     1.0  0.41721  0.82248  0.70603  1.0000
  H   H1069     1.0  0.26251  0.92086  0.90630  1.0000
  H   H1070     1.0  0.27050  0.53167  0.78242  1.0000
  C   C1065     1.0  0.37686  0.79546  0.66601  1.0000
  C   C1066     1.0  0.28032  0.51084  0.76157  1.0000
  C   C1067     1.0  0.25501  0.54311  0.70959  1.0000
  H   H1071     1.0  0.25991  0.56638  0.68150  1.0000
  C   C1068     1.0  0.41802  0.83363  0.71490  1.0000
  H   H1072     1.0  0.33890  0.65258  0.69032  1.0000
  H   H1073     1.0  0.46948  0.96398  0.74391  1.0000
  C   C1069     1.0  0.46798  0.92398  0.88042  1.0000
  C   C1070     1.0  0.46854  0.94266  0.86467  1.0000
  C   C1071     1.0  0.47850  0.94696  0.85338  1.0000
  H   H1074     1.0  0.46029  0.92061  0.88920  1.0000
  H   H1075     1.0  0.47902  0.96131  0.84124  1.0000
  H   H1076     1.0  0.25124  0.96771  0.71423  1.0000
  C   C1072     1.0  0.47732  0.91002  0.88544  1.0000
  H   H1077     1.0  0.26812  0.93171  0.79722  1.0000
  C   C1073     1.0  0.32594  0.63907  0.68991  1.0000
  C   C1074     1.0  0.29165  0.82840  0.71633  1.0000
  H   H1078     1.0  0.30565  0.90988  0.73971  1.0000
  C   C1075     1.0  0.24743  0.88276  0.89806  1.0000
  S   S373      1.0  0.40903  0.81211  0.67332  1.0000
  C   C1076     1.0  0.40828  0.86256  0.69125  1.0000
  C   C1077     1.0  0.32478  0.76184  0.67383  1.0000
  H   H1079     1.0  0.47266  0.94961  0.90652  1.0000
  C   C1078     1.0  0.31573  0.90193  0.70188  1.0000
  C   C1079     1.0  0.33086  0.79524  0.65925  1.0000
  C   C1080     1.0  0.32701  0.78016  0.67677  1.0000
  C   C1081     1.0  0.31383  0.66099  0.66859  1.0000
  C   C1082     1.0  0.29469  0.88816  0.69244  1.0000
  C   C1083     1.0  0.30391  0.87572  0.68234  1.0000
  C   C1084     1.0  0.46631  0.91804  0.79005  1.0000
  C   C1085     1.0  0.47419  0.96608  0.89988  1.0000
  H   H1080     1.0  0.26674  0.52528  0.67137  1.0000
  C   C1086     1.0  0.28912  0.90631  0.68052  1.0000
  H   H1081     1.0  0.30822  0.86155  0.69141  1.0000
  S   S374      1.0  0.31367  0.53883  0.67202  1.0000
  H   H1082     1.0  0.28192  0.91586  0.68818  1.0000
  C   C1087     1.0  0.26935  0.96469  0.79086  1.0000
  C   C1088     1.0  0.26913  0.98152  0.79989  1.0000
  C   C1089     1.0  0.26774  0.97829  0.82191  1.0000
  C   C1090     1.0  0.26693  0.95802  0.83478  1.0000
  C   C1091     1.0  0.24216  0.88036  0.81746  1.0000
  H   H1083     1.0  0.47040  0.97720  0.67325  1.0000
  H   H1084     1.0  0.29177  0.96439  0.68157  1.0000
  H   H1085     1.0  0.25676  0.86726  0.86365  1.0000
  H   H1086     1.0  0.40011  0.88885  0.67042  1.0000
  H   H1087     1.0  0.27933  0.86015  0.69369  1.0000
  H   H1088     1.0  0.27830  0.52228  0.74752  1.0000
  C   C1092     1.0  0.41176  0.89824  0.68090  1.0000
  N   N89       1.0  0.48540  0.96556  0.88922  1.0000
  C   C1093     1.0  0.46505  0.95150  0.80843  1.0000
  C   C1094     1.0  0.45035  0.87286  0.68073  1.0000
  C   C1095     1.0  0.45647  0.93090  0.79725  1.0000
  H   H1089     1.0  0.32187  0.75007  0.68736  1.0000
  C   C1096     1.0  0.25793  0.57090  0.75797  1.0000
  C   C1097     1.0  0.26142  0.57329  0.77486  1.0000
  C   C1098     1.0  0.27172  0.57696  0.77156  1.0000
  C   C1099     1.0  0.27855  0.57785  0.75150  1.0000
  C   C1100     1.0  0.27495  0.57560  0.73476  1.0000
  C   C1101     1.0  0.26465  0.57248  0.73791  1.0000
  H   H1090     1.0  0.25621  0.57232  0.79039  1.0000
  H   H1091     1.0  0.27447  0.57870  0.78458  1.0000
  H   H1092     1.0  0.28004  0.57650  0.71922  1.0000
  H   H1093     1.0  0.26195  0.57111  0.72473  1.0000
  H   H1094     1.0  0.24458  0.97215  0.81142  1.0000
  C   C1102     1.0  0.31939  0.67754  0.66298  1.0000
  H   H1095     1.0  0.48221  0.94202  0.80351  1.0000
  H   H1096     1.0  0.29832  0.50554  0.68356  1.0000
  C   C1103     1.0  0.31574  0.49663  0.75889  1.0000
  C   C1104     1.0  0.30144  0.82313  0.68104  1.0000
  H   H1097     1.0  0.26765  0.99126  0.82887  1.0000
  Fe  Fe187     1.0  0.24444  0.51944  0.83482  1.0000
  H   H1098     1.0  0.29140  0.94114  0.74792  1.0000
  C   C1105     1.0  0.46901  0.99090  0.68026  1.0000
  Fe  Fe188     1.0  0.48205  0.92455  0.70163  1.0000
  C   C1106     1.0  0.25837  0.90970  0.90440  1.0000
  S   S375      1.0  0.48232  0.88957  0.70544  1.0000
  S   S376      1.0  0.25256  0.98069  0.90915  1.0000
  H   H1099     1.0  0.41237  0.83191  0.73050  1.0000
  H   H1100     1.0  0.26638  0.92565  0.83558  1.0000
  H   H1101     1.0  0.46672  0.90494  0.78288  1.0000
  C   C1107     1.0  0.27590  0.51637  0.78125  1.0000
  H   H1102     1.0  0.43690  0.99118  0.76909  1.0000
  H   H1103     1.0  0.37414  0.76349  0.67782  1.0000
  H   H1104     1.0  0.44597  0.97723  0.81191  1.0000
  H   H1105     1.0  0.24275  0.87305  0.89540  1.0000
  S   S377      1.0  0.38746  0.86338  0.66127  1.0000
  H   H1106     1.0  0.30717  0.81021  0.68829  1.0000
  C   C1108     1.0  0.28249  0.51791  0.67762  1.0000
  H   H1107     1.0  0.30457  0.62737  0.70182  1.0000
  C   C1109     1.0  0.44558  0.96013  0.81473  1.0000
  C   C1110     1.0  0.25334  0.56208  0.69430  1.0000
  H   H1108     1.0  0.27537  0.50654  0.81475  1.0000
  C   C1111     1.0  0.44847  0.83567  0.68982  1.0000
  H   H1109     1.0  0.45034  0.81953  0.69908  1.0000
  H   H1110     1.0  0.47682  0.89591  0.89809  1.0000
  N   N90       1.0  0.30694  0.92005  0.70635  1.0000
  C   C1112     1.0  0.30313  0.93510  0.69016  1.0000
  C   C1113     1.0  0.30277  0.92202  0.72687  1.0000
  S   S378      1.0  0.28225  0.54470  0.67693  1.0000
  N   N91       1.0  0.24687  0.53779  0.72609  1.0000
  C   C1114     1.0  0.24457  0.88928  0.91733  1.0000
  H   H1111     1.0  0.42392  0.90245  0.69407  1.0000
  H   H1112     1.0  0.28435  0.96852  0.71886  1.0000
  H   H1113     1.0  0.41022  0.91469  0.67206  1.0000
  H   H1114     1.0  0.44326  0.95394  0.83209  1.0000
  N   N92       1.0  0.45595  0.94744  0.80622  1.0000
  S   S379      1.0  0.25738  0.50757  0.85294  1.0000
  C   C1115     1.0  0.46364  0.97602  0.75120  1.0000
  H   H1115     1.0  0.47194  0.97491  0.91282  1.0000
  Fe  Fe189     1.0  0.45826  0.99479  0.84552  1.0000
  C   C1116     1.0  0.44530  0.99141  0.76541  1.0000
  Fe  Fe190     1.0  0.47701  0.88983  0.74026  1.0000
  H   H1116     1.0  0.47527  0.99267  0.75202  1.0000
  Fe  Fe191     1.0  0.23919  0.54685  0.79365  1.0000
  H   H1117     1.0  0.42742  0.86486  0.71374  1.0000
  C   C1117     1.0  0.26112  0.90260  0.88548  1.0000
  C   C1118     1.0  0.29469  0.93959  0.73162  1.0000
  Fe  Fe192     1.0  0.25878  0.98329  0.87432  1.0000
  N   N93       1.0  0.25566  0.88933  0.88250  1.0000
  C   C1119     1.0  0.33174  0.65520  0.68445  1.0000
  H   H1118     1.0  0.26751  0.90818  0.87303  1.0000
  H   H1119     1.0  0.35223  0.60525  0.67118  1.0000
  H   H1120     1.0  0.32576  0.78262  0.69259  1.0000
  C   C1120     1.0  0.47563  0.92218  0.79211  1.0000
  H   H1121     1.0  0.31761  0.90086  0.68499  1.0000
  N   N94       1.0  0.41594  0.85588  0.70299  1.0000
  S   S380      1.0  0.33353  0.81818  0.66287  1.0000
  C   C1121     1.0  0.42134  0.87009  0.70443  1.0000
  C   C1122     1.0  0.40613  0.88376  0.67991  1.0000
  C   C1123     1.0  0.25005  0.90296  0.92043  1.0000
  N   N95       1.0  0.29290  0.83412  0.69327  1.0000
  C   C1124     1.0  0.47503  0.93895  0.80144  1.0000
  C   C1125     1.0  0.41938  0.89143  0.69332  1.0000
  C   C1126     1.0  0.27864  0.50222  0.79943  1.0000
  S   S381      1.0  0.48363  0.86849  0.76828  1.0000
  H   H1122     1.0  0.29191  0.81095  0.72231  1.0000
  C   C1127     1.0  0.44208  0.84001  0.67498  1.0000
  H   H1123     1.0  0.38326  0.79251  0.67419  1.0000
  H   H1124     1.0  0.24028  0.86885  0.85117  1.0000
  C   C1128     1.0  0.46692  0.99239  0.75561  1.0000
  H   H1125     1.0  0.48330  0.91237  0.78651  1.0000
  H   H1126     1.0  0.46460  0.96443  0.81580  1.0000
  H   H1127     1.0  0.32302  0.90362  0.70562  1.0000
  C   C1129     1.0  0.32842  0.67454  0.67093  1.0000
  H   H1128     1.0  0.31467  0.51383  0.75317  1.0000
  H   H1129     1.0  0.29814  0.83265  0.72070  1.0000
  H   H1130     1.0  0.30773  0.62472  0.67454  1.0000
  S   S382      1.0  0.24730  0.51253  0.80283  1.0000
  H   H1131     1.0  0.30629  0.93338  0.67389  1.0000
  H   H1132     1.0  0.25280  0.89524  0.85177  1.0000
  H   H1133     1.0  0.32861  0.62402  0.70034  1.0000
  C   C1130     1.0  0.44403  0.87714  0.66575  1.0000
  H   H1134     1.0  0.48252  0.96713  0.71113  1.0000
  C   C1131     1.0  0.26708  0.94129  0.82574  1.0000
  C   C1132     1.0  0.29492  0.95271  0.69439  1.0000
  H   H1135     1.0  0.28397  0.83725  0.72449  1.0000
  C   C1133     1.0  0.24879  0.51776  0.74184  1.0000
  C   C1134     1.0  0.30764  0.88141  0.66047  1.0000
  H   H1136     1.0  0.24762  0.90884  0.93494  1.0000
  S   S383      1.0  0.40396  0.76139  0.66113  1.0000
  H   H1137     1.0  0.24339  0.51923  0.75746  1.0000
  C   C1135     1.0  0.46041  0.99371  0.69743  1.0000
  N   N96       1.0  0.36390  0.78242  0.65704  1.0000
  H   H1138     1.0  0.26647  0.88359  0.85353  1.0000
  C   C1136     1.0  0.24326  0.57561  0.69599  1.0000
  H   H1139     1.0  0.24192  0.59057  0.68448  1.0000
  C   C1137     1.0  0.27354  0.51274  0.67476  1.0000
  C   C1138     1.0  0.23919  0.96119  0.81607  1.0000
  H   H1140     1.0  0.35071  0.76753  0.67104  1.0000
  C   C1139     1.0  0.29297  0.91221  0.65854  1.0000
  H   H1141     1.0  0.33284  0.68721  0.66655  1.0000
  S   S384      1.0  0.43756  0.81859  0.67137  1.0000
  H   H1142     1.0  0.24330  0.94690  0.84646  1.0000
  C   C1140     1.0  0.43983  0.86092  0.66303  1.0000
  C   C1141     1.0  0.28736  0.85705  0.66200  1.0000
  H   H1143     1.0  0.24135  0.50153  0.89417  1.0000
  C   C1142     1.0  0.48728  0.91434  0.87431  1.0000
  H   H1144     1.0  0.39303  0.72692  0.66900  1.0000
  C   C1143     1.0  0.33888  0.60034  0.66210  1.0000
  H   H1145     1.0  0.30684  0.66338  0.66230  1.0000
  C   C1144     1.0  0.34670  0.61160  0.66072  1.0000
  C   C1145     1.0  0.35840  0.76527  0.65934  1.0000
  C   C1146     1.0  0.30307  0.82865  0.65899  1.0000
  C   C1147     1.0  0.48787  0.93269  0.85805  1.0000
  H   H1146     1.0  0.28750  0.49607  0.72710  1.0000
  C   C1148     1.0  0.71567  0.48046  0.22909  1.0000
  H   H1147     1.0  0.70382  0.40711  0.28844  1.0000
  C   C1149     1.0  0.72676  0.37241  0.27355  1.0000
  C   C1150     1.0  0.54537  0.02087  0.27011  1.0000
  C   C1151     1.0  0.49735  0.07496  0.31430  1.0000
  N   N97       1.0  0.71763  0.38146  0.28608  1.0000
  C   C1152     1.0  0.70074  0.46070  0.30284  1.0000
  C   C1153     1.0  0.73294  0.35265  0.28153  1.0000
  C   C1154     1.0  0.72963  0.34203  0.30237  1.0000
  C   C1155     1.0  0.48953  0.06710  0.31005  1.0000
  C   C1156     1.0  0.54681  0.03167  0.28389  1.0000
  C   C1157     1.0  0.72712  0.46725  0.30753  1.0000
  H   H1148     1.0  0.49021  0.02112  0.20192  1.0000
  H   H1149     1.0  0.70037  0.48326  0.19510  1.0000
  N   N98       1.0  0.52641  0.03396  0.27933  1.0000
  H   H1150     1.0  0.73447  0.32692  0.30891  1.0000
  H   H1151     1.0  0.53899  0.05182  0.30636  1.0000
  H   H1152     1.0  0.55475  0.03033  0.28610  1.0000
  C   C1158     1.0  0.71760  0.44537  0.22215  1.0000
  H   H1153     1.0  0.67537  0.44732  0.30969  1.0000
  H   H1154     1.0  0.55217  0.01131  0.26125  1.0000
  C   C1159     1.0  0.73057  0.00613  0.25517  1.0000
  H   H1155     1.0  0.51443  0.04728  0.26144  1.0000
  H   H1156     1.0  0.72598  0.45170  0.24224  1.0000
  H   H1157     1.0  0.68549  0.43623  0.27633  1.0000
  H   H1158     1.0  0.50939  0.04074  0.28972  1.0000
  C   C1160     1.0  0.51977  0.00885  0.23245  1.0000
  H   H1159     1.0  0.52095  0.05429  0.30156  1.0000
  C   C1161     1.0  0.72029  0.45846  0.23218  1.0000
  C   C1162     1.0  0.71141  0.40227  0.27728  1.0000
  H   H1160     1.0  0.53402  0.01384  0.25723  1.0000
  H   H1161     1.0  0.69169  0.46352  0.24489  1.0000
  H   H1162     1.0  0.54096  0.99862  0.31956  1.0000
  C   C1163     1.0  0.52870  0.01560  0.21826  1.0000
  S   S385      1.0  0.54157  0.99979  0.21834  1.0000
  C   C1164     1.0  0.50955  0.02189  0.23224  1.0000
  C   C1165     1.0  0.50821  0.04139  0.21747  1.0000
  C   C1166     1.0  0.51715  0.04807  0.20337  1.0000
  C   C1167     1.0  0.52737  0.03533  0.20393  1.0000
  C   C1168     1.0  0.72033  0.35139  0.31506  1.0000
  H   H1163     1.0  0.50271  0.01638  0.24292  1.0000
  H   H1164     1.0  0.51618  0.06311  0.19190  1.0000
  H   H1165     1.0  0.53425  0.04061  0.19297  1.0000
  C   C1169     1.0  0.52776  0.04478  0.29273  1.0000
  S   S386      1.0  0.72366  0.41806  0.22525  1.0000
  H   H1166     1.0  0.72936  0.38056  0.25731  1.0000
  H   H1167     1.0  0.73150  0.45880  0.29500  1.0000
  C   C1170     1.0  0.68359  0.45300  0.27710  1.0000
  H   H1168     1.0  0.70403  0.45273  0.28970  1.0000
  C   C1171     1.0  0.67782  0.45941  0.29591  1.0000
  C   C1172     1.0  0.53796  0.04367  0.29533  1.0000
  Fe  Fe193     1.0  0.73489  0.01306  0.31781  1.0000
  C   C1173     1.0  0.70584  0.47634  0.20564  1.0000
  C   C1174     1.0  0.71024  0.45427  0.20917  1.0000
  C   C1175     1.0  0.71444  0.37135  0.30668  1.0000
  C   C1176     1.0  0.53506  0.02225  0.26798  1.0000
  C   C1177     1.0  0.51572  0.03555  0.27635  1.0000
  H   H1169     1.0  0.70939  0.40156  0.26257  1.0000
  H   H1170     1.0  0.73160  0.02066  0.24348  1.0000
  H   H1171     1.0  0.72863  0.02065  0.28127  1.0000
  H   H1172     1.0  0.71610  0.41487  0.27345  1.0000
  H   H1173     1.0  0.51476  0.01974  0.27536  1.0000
  S   S387      1.0  0.49551  0.05716  0.21519  1.0000
  H   H1174     1.0  0.70821  0.44422  0.20127  1.0000
  C   C1178     1.0  0.69555  0.49336  0.31618  1.0000
  H   H1175     1.0  0.49990  0.08907  0.30382  1.0000
  S   S388      1.0  0.72664  0.04774  0.31397  1.0000
  C   C1179     1.0  0.68708  0.46830  0.25950  1.0000
  C   C1180     1.0  0.72887  0.00613  0.27663  1.0000
  N   N99       1.0  0.67572  0.48044  0.29721  1.0000
  C   C1181     1.0  0.70010  0.48280  0.29944  1.0000
  H   H1176     1.0  0.50972  0.01131  0.18765  1.0000
  C   C1182     1.0  0.49469  0.00521  0.20751  1.0000
  C   C1183     1.0  0.50564  0.99970  0.19948  1.0000
  C   C1184     1.0  0.72629  0.48928  0.30417  1.0000
  C   C1185     1.0  0.70854  0.48945  0.21560  1.0000
  C   C1186     1.0  0.68469  0.48977  0.26081  1.0000
  H   H1177     1.0  0.71791  0.49047  0.23659  1.0000
  H   H1178     1.0  0.70285  0.49171  0.28373  1.0000
  H   H1179     1.0  0.66104  0.49124  0.31729  1.0000
  H   H1180     1.0  0.70736  0.37877  0.31680  1.0000
  C   C1187     1.0  0.66970  0.48689  0.31705  1.0000
  C   C1188     1.0  0.67891  0.49562  0.27988  1.0000
  S   S389      1.0  0.58838  0.16816  0.55964  1.0000
  Fe  Fe194     1.0  0.58109  0.11146  0.48776  1.0000
  S   S390      1.0  0.57426  0.13964  0.46436  1.0000
  S   S391      1.0  0.57473  0.10427  0.52294  1.0000
  Fe  Fe195     1.0  0.60060  0.09790  0.45520  1.0000
  S   S392      1.0  0.59542  0.12500  0.42937  1.0000
  S   S393      1.0  0.61637  0.07484  0.44987  1.0000
  Fe  Fe196     1.0  0.59110  0.14525  0.45372  1.0000
  S   S394      1.0  0.59509  0.17799  0.44889  1.0000
  Fe  Fe197     1.0  0.57920  0.11636  0.44244  1.0000
  S   S395      1.0  0.57078  0.11389  0.41774  1.0000
  S   S396      1.0  0.59741  0.11845  0.47847  1.0000
  S   S397      1.0  0.58489  0.08787  0.46691  1.0000
  C   C1189     1.0  0.73634  0.36728  0.33268  1.0000
  S   S398      1.0  0.51800  0.04181  0.39457  1.0000
  H   H1181     1.0  0.68967  0.03787  0.37254  1.0000
  Fe  Fe198     1.0  0.54320  0.02242  0.35414  1.0000
  S   S399      1.0  0.53806  0.05685  0.35695  1.0000
  H   H1182     1.0  0.68001  0.05190  0.61724  1.0000
  Fe  Fe199     1.0  0.53510  0.04366  0.39214  1.0000
  S   S400      1.0  0.53974  0.05493  0.41730  1.0000
  Fe  Fe200     1.0  0.52167  0.05220  0.35900  1.0000
  C   C1190     1.0  0.63599  0.11386  0.61917  1.0000
  S   S401      1.0  0.54143  0.00927  0.38898  1.0000
  S   S402      1.0  0.52719  0.01900  0.35330  1.0000
  C   C1191     1.0  0.50721  0.09919  0.37943  1.0000
  H   H1183     1.0  0.54864  0.12846  0.62797  1.0000
  S   S403      1.0  0.58505  0.17278  0.61747  1.0000
  S   S404      1.0  0.68189  0.12881  0.60727  1.0000
  S   S405      1.0  0.70556  0.10604  0.61895  1.0000
  Fe  Fe201     1.0  0.69286  0.09645  0.60970  1.0000
  S   S406      1.0  0.69745  0.07731  0.58450  1.0000
  Fe  Fe202     1.0  0.66578  0.10746  0.45330  1.0000
  S   S407      1.0  0.68262  0.10278  0.43478  1.0000
  S   S408      1.0  0.65200  0.12574  0.43829  1.0000
  Fe  Fe203     1.0  0.67200  0.08739  0.49558  1.0000
  S   S409      1.0  0.68948  0.08010  0.48091  1.0000
  S   S410      1.0  0.66423  0.08601  0.52999  1.0000
  Fe  Fe204     1.0  0.68627  0.11306  0.46054  1.0000
  S   S411      1.0  0.69793  0.13375  0.45530  1.0000
  Fe  Fe205     1.0  0.68450  0.07020  0.45635  1.0000
  S   S412      1.0  0.69323  0.04177  0.44181  1.0000
  S   S413      1.0  0.66918  0.12111  0.47704  1.0000
  S   S414      1.0  0.66720  0.07411  0.47309  1.0000
  C   C1192     1.0  0.67637  0.34730  0.63809  1.0000
  S   S415      1.0  0.66005  0.28280  0.58252  1.0000
  Fe  Fe206     1.0  0.63975  0.22005  0.47947  1.0000
  S   S416      1.0  0.64560  0.21601  0.50891  1.0000
  S   S417      1.0  0.63411  0.19098  0.47823  1.0000
  Fe  Fe207     1.0  0.64703  0.26267  0.45988  1.0000
  S   S418      1.0  0.65305  0.26200  0.48804  1.0000
  S   S419      1.0  0.65085  0.28616  0.42874  1.0000
  Fe  Fe208     1.0  0.65985  0.22752  0.48773  1.0000
  S   S420      1.0  0.67611  0.21503  0.49472  1.0000
  Fe  Fe209     1.0  0.63820  0.25081  0.50726  1.0000
  S   S421      1.0  0.62985  0.25765  0.53953  1.0000
  S   S422      1.0  0.65497  0.22850  0.45818  1.0000
  S   S423      1.0  0.63124  0.25442  0.47909  1.0000
  Fe  Fe210     1.0  0.71368  0.36538  0.37640  1.0000
  S   S424      1.0  0.70504  0.36578  0.40980  1.0000
  S   S425      1.0  0.72860  0.34048  0.36982  1.0000
  Fe  Fe211     1.0  0.69786  0.40254  0.35882  1.0000
  S   S426      1.0  0.68756  0.40662  0.39070  1.0000
  N   N100      1.0  0.68939  0.12807  0.52728  1.0000
  Fe  Fe212     1.0  0.70315  0.40139  0.39992  1.0000
  S   S427      1.0  0.70520  0.41685  0.42393  1.0000
  Fe  Fe213     1.0  0.69002  0.37052  0.39866  1.0000
  S   S428      1.0  0.67804  0.35343  0.42402  1.0000
  S   S429      1.0  0.71322  0.40060  0.36746  1.0000
  S   S430      1.0  0.69895  0.36687  0.36574  1.0000
  C   C1193     1.0  0.72023  0.46632  0.39623  1.0000
  H   H1184     1.0  0.63290  0.23771  0.62677  1.0000
  C   C1194     1.0  0.69325  0.17736  0.64383  1.0000
  H   H1185     1.0  0.58670  0.09622  0.38176  1.0000
  H   H1186     1.0  0.68975  0.45051  0.35558  1.0000
  C   C1195     1.0  0.65835  0.30506  0.42720  1.0000
  C   C1196     1.0  0.65866  0.31095  0.44539  1.0000
  C   C1197     1.0  0.66453  0.32616  0.44389  1.0000
  C   C1198     1.0  0.67033  0.33543  0.42428  1.0000
  C   C1199     1.0  0.67012  0.32946  0.40602  1.0000
  C   C1200     1.0  0.66407  0.31444  0.40749  1.0000
  H   H1187     1.0  0.65412  0.30429  0.46057  1.0000
  H   H1188     1.0  0.66460  0.33078  0.45807  1.0000
  H   H1189     1.0  0.67454  0.33651  0.39082  1.0000
  H   H1190     1.0  0.66381  0.31008  0.39331  1.0000
  C   C1201     1.0  0.65121  0.27677  0.57098  1.0000
  C   C1202     1.0  0.65229  0.28271  0.54899  1.0000
  C   C1203     1.0  0.64569  0.27704  0.53931  1.0000
  C   C1204     1.0  0.63803  0.26526  0.55152  1.0000
  C   C1205     1.0  0.63687  0.25953  0.57355  1.0000
  C   C1206     1.0  0.64340  0.26539  0.58328  1.0000
  H   H1191     1.0  0.65819  0.29185  0.53944  1.0000
  H   H1192     1.0  0.64637  0.28233  0.52244  1.0000
  H   H1193     1.0  0.63098  0.25038  0.58308  1.0000
  H   H1194     1.0  0.64254  0.26083  0.60024  1.0000
  H   H1195     1.0  0.67465  0.38009  0.63970  1.0000
  H   H1196     1.0  0.67032  0.35101  0.62889  1.0000
  C   C1207     1.0  0.72230  0.45616  0.32704  1.0000
  C   C1208     1.0  0.70844  0.44218  0.41676  1.0000
  C   C1209     1.0  0.71653  0.44749  0.39924  1.0000
  C   C1210     1.0  0.62019  0.23496  0.65437  1.0000
  C   C1211     1.0  0.58327  0.04495  0.42834  1.0000
  C   C1212     1.0  0.68241  0.21066  0.65300  1.0000
  C   C1213     1.0  0.71657  0.46740  0.34289  1.0000
  C   C1214     1.0  0.60004  0.26452  0.61953  1.0000
  C   C1215     1.0  0.69197  0.15695  0.46529  1.0000
  C   C1216     1.0  0.69801  0.16621  0.47289  1.0000
  C   C1217     1.0  0.69313  0.18404  0.48209  1.0000
  C   C1218     1.0  0.68223  0.19265  0.48352  1.0000
  C   C1219     1.0  0.67620  0.18338  0.47593  1.0000
  C   C1220     1.0  0.68109  0.16566  0.46667  1.0000
  H   H1197     1.0  0.70644  0.15945  0.47187  1.0000
  H   H1198     1.0  0.69781  0.19116  0.48798  1.0000
  H   H1199     1.0  0.66775  0.18970  0.47732  1.0000
  H   H1200     1.0  0.67647  0.15903  0.46021  1.0000
  C   C1221     1.0  0.68822  0.08070  0.56905  1.0000
  C   C1222     1.0  0.69108  0.06973  0.55260  1.0000
  C   C1223     1.0  0.68382  0.07174  0.54023  1.0000
  C   C1224     1.0  0.67361  0.08454  0.54444  1.0000
  C   C1225     1.0  0.67075  0.09570  0.56075  1.0000
  C   C1226     1.0  0.67807  0.09391  0.57298  1.0000
  H   H1201     1.0  0.69893  0.05950  0.54950  1.0000
  H   H1202     1.0  0.68604  0.06288  0.52782  1.0000
  H   H1203     1.0  0.66289  0.10576  0.56384  1.0000
  H   H1204     1.0  0.67580  0.10234  0.58569  1.0000
  C   C1227     1.0  0.71983  0.05932  0.38516  1.0000
  C   C1228     1.0  0.71540  0.07237  0.39995  1.0000
  C   C1229     1.0  0.70749  0.06664  0.41771  1.0000
  C   C1230     1.0  0.70394  0.04782  0.42079  1.0000
  C   C1231     1.0  0.70859  0.03437  0.40634  1.0000
  C   C1232     1.0  0.71652  0.04014  0.38848  1.0000
  H   H1205     1.0  0.71800  0.08712  0.39754  1.0000
  H   H1206     1.0  0.70418  0.07681  0.42905  1.0000
  H   H1207     1.0  0.70592  0.01971  0.40875  1.0000
  H   H1208     1.0  0.71994  0.02996  0.37715  1.0000
  N   N101      1.0  0.55610  0.14114  0.59626  1.0000
  C   C1233     1.0  0.73388  0.37650  0.39779  1.0000
  C   C1234     1.0  0.67146  0.05472  0.61862  1.0000
  S   S431      1.0  0.66637  0.28177  0.63689  1.0000
  H   H1209     1.0  0.60590  0.07502  0.41729  1.0000
  C   C1235     1.0  0.50174  0.06481  0.33216  1.0000
  C   C1236     1.0  0.69201  0.48157  0.33650  1.0000
  C   C1237     1.0  0.67875  0.14210  0.53006  1.0000
  Fe  Fe214     1.0  0.69667  0.09609  0.65232  1.0000
  C   C1238     1.0  0.56226  0.09705  0.41806  1.0000
  C   C1239     1.0  0.55801  0.08345  0.43655  1.0000
  C   C1240     1.0  0.55128  0.07053  0.43591  1.0000
  C   C1241     1.0  0.54889  0.07056  0.41677  1.0000
  C   C1242     1.0  0.55334  0.08379  0.39819  1.0000
  C   C1243     1.0  0.55986  0.09709  0.39890  1.0000
  H   H1210     1.0  0.55976  0.08315  0.45141  1.0000
  H   H1211     1.0  0.54788  0.06046  0.45043  1.0000
  H   H1212     1.0  0.55161  0.08408  0.38332  1.0000
  H   H1213     1.0  0.56310  0.10748  0.38446  1.0000
  C   C1244     1.0  0.60556  0.18144  0.45839  1.0000
  C   C1245     1.0  0.60645  0.20225  0.45790  1.0000
  C   C1246     1.0  0.61502  0.20557  0.46426  1.0000
  C   C1247     1.0  0.62286  0.18805  0.47094  1.0000
  C   C1248     1.0  0.62189  0.16729  0.47166  1.0000
  C   C1249     1.0  0.61326  0.16397  0.46562  1.0000
  H   H1214     1.0  0.60053  0.21588  0.45235  1.0000
  H   H1215     1.0  0.61565  0.22165  0.46363  1.0000
  H   H1216     1.0  0.62798  0.15367  0.47654  1.0000
  H   H1217     1.0  0.61272  0.14793  0.46598  1.0000
  C   C1250     1.0  0.62646  0.08864  0.44620  1.0000
  C   C1251     1.0  0.62397  0.11099  0.44292  1.0000
  C   C1252     1.0  0.63190  0.12217  0.44031  1.0000
  C   C1253     1.0  0.64236  0.11111  0.44108  1.0000
  C   C1254     1.0  0.64491  0.08871  0.44428  1.0000
  C   C1255     1.0  0.63695  0.07747  0.44679  1.0000
  H   H1218     1.0  0.61594  0.11977  0.44219  1.0000
  H   H1219     1.0  0.62983  0.13941  0.43797  1.0000
  H   H1220     1.0  0.65301  0.08006  0.44457  1.0000
  H   H1221     1.0  0.63890  0.06016  0.44928  1.0000
  C   C1256     1.0  0.58506  0.14959  0.54970  1.0000
  C   C1257     1.0  0.58316  0.15574  0.52924  1.0000
  C   C1258     1.0  0.58018  0.14162  0.52097  1.0000
  C   C1259     1.0  0.57894  0.12136  0.53321  1.0000
  C   C1260     1.0  0.58091  0.11507  0.55367  1.0000
  C   C1261     1.0  0.58404  0.12915  0.56188  1.0000
  H   H1222     1.0  0.58393  0.17148  0.51969  1.0000
  H   H1223     1.0  0.57863  0.14661  0.50519  1.0000
  H   H1224     1.0  0.57999  0.09935  0.56313  1.0000
  H   H1225     1.0  0.58543  0.12431  0.57773  1.0000
  H   H1226     1.0  0.62577  0.21958  0.60746  1.0000
  C   C1262     1.0  0.70381  0.45602  0.43072  1.0000
  H   H1227     1.0  0.54519  0.10112  0.57997  1.0000
  H   H1228     1.0  0.51646  0.11134  0.34891  1.0000
  H   H1229     1.0  0.53141  0.11274  0.36362  1.0000
  H   H1230     1.0  0.69766  0.45182  0.44446  1.0000
  S   S432      1.0  0.60405  0.14364  0.64201  1.0000
  H   H1231     1.0  0.51627  0.06699  0.43533  1.0000
  C   C1263     1.0  0.68213  0.21945  0.63170  1.0000
  C   C1264     1.0  0.62579  0.23145  0.63433  1.0000
  C   C1265     1.0  0.51493  0.08480  0.43173  1.0000
  H   H1232     1.0  0.57005  0.04193  0.65151  1.0000
  H   H1233     1.0  0.71792  0.34357  0.33152  1.0000
  H   H1234     1.0  0.50018  0.08603  0.41151  1.0000
  N   N102      1.0  0.68345  0.26875  0.44058  1.0000
  C   C1266     1.0  0.68822  0.28283  0.42414  1.0000
  C   C1267     1.0  0.68165  0.27102  0.46095  1.0000
  C   C1268     1.0  0.69164  0.29931  0.42794  1.0000
  C   C1269     1.0  0.68482  0.28754  0.46529  1.0000
  C   C1270     1.0  0.68985  0.30174  0.44864  1.0000
  C   C1271     1.0  0.67963  0.25201  0.43622  1.0000
  H   H1235     1.0  0.68920  0.28167  0.40793  1.0000
  H   H1236     1.0  0.67763  0.26019  0.47392  1.0000
  H   H1237     1.0  0.69513  0.31088  0.41487  1.0000
  H   H1238     1.0  0.68317  0.28965  0.48137  1.0000
  H   H1239     1.0  0.69199  0.31516  0.45159  1.0000
  H   H1240     1.0  0.67946  0.23791  0.44973  1.0000
  H   H1241     1.0  0.67145  0.25855  0.43326  1.0000
  H   H1242     1.0  0.68492  0.24611  0.42216  1.0000
  C   C1272     1.0  0.64938  0.11947  0.64200  1.0000
  C   C1273     1.0  0.61387  0.28791  0.58958  1.0000
  H   H1243     1.0  0.49901  0.00889  0.40115  1.0000
  H   H1244     1.0  0.59480  0.25509  0.63142  1.0000
  C   C1274     1.0  0.60155  0.26453  0.59819  1.0000
  C   C1275     1.0  0.56295  0.09012  0.64179  1.0000
  C   C1276     1.0  0.56955  0.10283  0.64316  1.0000
  H   H1245     1.0  0.50715  0.09146  0.44137  1.0000
  H   H1246     1.0  0.56794  0.15935  0.59090  1.0000
  C   C1277     1.0  0.63202  0.11613  0.64010  1.0000
  N   N103      1.0  0.64278  0.19107  0.42327  1.0000
  C   C1278     1.0  0.63876  0.21234  0.42343  1.0000
  C   C1279     1.0  0.63740  0.17977  0.41716  1.0000
  C   C1280     1.0  0.62914  0.22286  0.41718  1.0000
  C   C1281     1.0  0.62765  0.18962  0.41131  1.0000
  C   C1282     1.0  0.62353  0.21133  0.41126  1.0000
  C   C1283     1.0  0.65260  0.17984  0.43075  1.0000
  H   H1247     1.0  0.64286  0.22120  0.42877  1.0000
  H   H1248     1.0  0.64060  0.16297  0.41702  1.0000
  H   H1249     1.0  0.62592  0.23965  0.41758  1.0000
  H   H1250     1.0  0.62321  0.18035  0.40728  1.0000
  H   H1251     1.0  0.61586  0.21902  0.40714  1.0000
  H   H1252     1.0  0.65790  0.16941  0.41994  1.0000
  H   H1253     1.0  0.65713  0.19113  0.43184  1.0000
  H   H1254     1.0  0.65057  0.16950  0.44673  1.0000
  N   N104      1.0  0.66803  0.23287  0.55375  1.0000
  C   C1284     1.0  0.66975  0.23022  0.57351  1.0000
  C   C1285     1.0  0.66073  0.22349  0.55090  1.0000
  C   C1286     1.0  0.66394  0.21825  0.59115  1.0000
  C   C1287     1.0  0.65466  0.21165  0.56822  1.0000
  C   C1288     1.0  0.65629  0.20905  0.58847  1.0000
  C   C1289     1.0  0.67440  0.24500  0.53539  1.0000
  H   H1255     1.0  0.67550  0.23776  0.57580  1.0000
  H   H1256     1.0  0.65947  0.22541  0.53517  1.0000
  H   H1257     1.0  0.66534  0.21629  0.60677  1.0000
  H   H1258     1.0  0.64869  0.20473  0.56592  1.0000
  H   H1259     1.0  0.65162  0.19999  0.60207  1.0000
  H   H1260     1.0  0.68181  0.23405  0.52909  1.0000
  H   H1261     1.0  0.66988  0.25258  0.52264  1.0000
  H   H1262     1.0  0.67646  0.25815  0.53976  1.0000
  N   N105      1.0  0.65670  0.05871  0.60289  1.0000
  C   C1290     1.0  0.66746  0.05424  0.60163  1.0000
  C   C1291     1.0  0.64970  0.06315  0.62102  1.0000
  H   H1263     1.0  0.67121  0.47373  0.33095  1.0000
  H   H1264     1.0  0.71770  0.09224  0.51888  1.0000
  S   S433      1.0  0.65354  0.24509  0.63786  1.0000
  C   C1292     1.0  0.65256  0.06020  0.58438  1.0000
  H   H1265     1.0  0.67305  0.05087  0.58722  1.0000
  C   C1293     1.0  0.56059  0.15571  0.60256  1.0000
  C   C1294     1.0  0.61234  0.21337  0.63283  1.0000
  H   H1266     1.0  0.52134  0.08887  0.43659  1.0000
  C   C1295     1.0  0.73775  0.34684  0.34595  1.0000
  H   H1267     1.0  0.64961  0.07734  0.57731  1.0000
  H   H1268     1.0  0.65879  0.05305  0.57194  1.0000
  H   H1269     1.0  0.64588  0.05172  0.58892  1.0000
  C   C1296     1.0  0.55012  0.12807  0.61137  1.0000
  H   H1270     1.0  0.63932  0.09414  0.48736  1.0000
  H   H1271     1.0  0.57600  0.10671  0.63001  1.0000
  N   N106      1.0  0.60288  0.20944  0.53092  1.0000
  C   C1297     1.0  0.59618  0.21371  0.54942  1.0000
  C   C1298     1.0  0.61342  0.21007  0.52689  1.0000
  C   C1299     1.0  0.60004  0.21835  0.56463  1.0000
  C   C1300     1.0  0.61750  0.21492  0.54166  1.0000
  C   C1301     1.0  0.61077  0.21906  0.56061  1.0000
  C   C1302     1.0  0.59885  0.20438  0.51507  1.0000
  H   H1272     1.0  0.58784  0.21307  0.55275  1.0000
  H   H1273     1.0  0.61872  0.20678  0.51220  1.0000
  H   H1274     1.0  0.59480  0.22097  0.57960  1.0000
  H   H1275     1.0  0.62582  0.21547  0.53853  1.0000
  H   H1276     1.0  0.61392  0.22265  0.57220  1.0000
  H   H1277     1.0  0.59940  0.21717  0.50044  1.0000
  H   H1278     1.0  0.60355  0.18879  0.51118  1.0000
  H   H1279     1.0  0.59039  0.20287  0.52084  1.0000
  C   C1303     1.0  0.55761  0.14115  0.57531  1.0000
  C   C1304     1.0  0.54805  0.11266  0.58452  1.0000
  H   H1280     1.0  0.72964  0.37974  0.33720  1.0000
  C   C1305     1.0  0.67877  0.36359  0.64423  1.0000
  H   H1281     1.0  0.70619  0.09807  0.49340  1.0000
  C   C1306     1.0  0.62179  0.22097  0.62350  1.0000
  S   S434      1.0  0.72888  0.06836  0.36202  1.0000
  Fe  Fe215     1.0  0.67497  0.11688  0.64149  1.0000
  C   C1307     1.0  0.68135  0.32603  0.64484  1.0000
  S   S435      1.0  0.68495  0.08361  0.64304  1.0000
  C   C1308     1.0  0.60569  0.27599  0.62552  1.0000
  H   H1282     1.0  0.57933  0.06601  0.39985  1.0000
  H   H1283     1.0  0.67326  0.13669  0.52380  1.0000
  C   C1309     1.0  0.50692  0.09243  0.40114  1.0000
  H   H1284     1.0  0.50079  0.09804  0.37303  1.0000
  H   H1285     1.0  0.71262  0.45875  0.35780  1.0000
  C   C1310     1.0  0.70719  0.47513  0.42729  1.0000
  H   H1286     1.0  0.67824  0.06929  0.41453  1.0000
  H   H1287     1.0  0.68849  0.48966  0.34952  1.0000
  C   C1311     1.0  0.55374  0.12673  0.56913  1.0000
  C   C1312     1.0  0.59399  0.09011  0.38843  1.0000
  H   H1288     1.0  0.54167  0.10260  0.61793  1.0000
  C   C1313     1.0  0.69578  0.12557  0.54096  1.0000
  C   C1314     1.0  0.58473  0.06155  0.41051  1.0000
  H   H1289     1.0  0.60088  0.08478  0.37603  1.0000
  H   H1290     1.0  0.57673  0.03693  0.43147  1.0000
  C   C1315     1.0  0.59017  0.03907  0.44219  1.0000
  H   H1291     1.0  0.71089  0.10992  0.54960  1.0000
  H   H1292     1.0  0.59526  0.10393  0.39307  1.0000
  H   H1293     1.0  0.72533  0.38399  0.42780  1.0000
  C   C1316     1.0  0.69305  0.11835  0.51041  1.0000
  C   C1317     1.0  0.52385  0.10055  0.39587  1.0000
  H   H1294     1.0  0.58907  0.02638  0.45621  1.0000
  C   C1318     1.0  0.69276  0.45941  0.33996  1.0000
  H   H1295     1.0  0.59749  0.25506  0.59350  1.0000
  H   H1296     1.0  0.60469  0.27543  0.64222  1.0000
  C   C1319     1.0  0.70415  0.07627  0.34944  1.0000
  H   H1297     1.0  0.60477  0.12678  0.51897  1.0000
  S   S436      1.0  0.60557  0.20751  0.61654  1.0000
  H   H1298     1.0  0.68804  0.12049  0.49946  1.0000
  H   H1299     1.0  0.70413  0.04680  0.34173  1.0000
  S   S437      1.0  0.64099  0.29582  0.63562  1.0000
  C   C1320     1.0  0.70603  0.11256  0.53822  1.0000
  N   N107      1.0  0.68799  0.06581  0.38404  1.0000
  C   C1321     1.0  0.69145  0.08428  0.38097  1.0000
  C   C1322     1.0  0.69235  0.05259  0.37002  1.0000
  S   S438      1.0  0.68592  0.12839  0.65369  1.0000
  C   C1323     1.0  0.73125  0.38825  0.41356  1.0000
  H   H1300     1.0  0.71073  0.08003  0.33642  1.0000
  H   H1301     1.0  0.67784  0.23570  0.62696  1.0000
  N   N108      1.0  0.61266  0.28711  0.61062  1.0000
  H   H1302     1.0  0.50167  0.03868  0.35949  1.0000
  N   N109      1.0  0.51519  0.09315  0.40909  1.0000
  Fe  Fe216     1.0  0.65586  0.27732  0.61812  1.0000
  C   C1324     1.0  0.69266  0.18591  0.62263  1.0000
  H   H1303     1.0  0.64977  0.11241  0.59355  1.0000
  H   H1304     1.0  0.60696  0.13175  0.55281  1.0000
  H   H1305     1.0  0.61420  0.31577  0.61660  1.0000
  H   H1306     1.0  0.68714  0.21381  0.60002  1.0000
  C   C1325     1.0  0.61859  0.29888  0.61714  1.0000
  C   C1326     1.0  0.60844  0.27643  0.58306  1.0000
  H   H1307     1.0  0.60975  0.27645  0.56640  1.0000
  C   C1327     1.0  0.52442  0.10737  0.37408  1.0000
  C   C1328     1.0  0.59956  0.06653  0.42021  1.0000
  S   S439      1.0  0.51134  0.07530  0.33743  1.0000
  H   H1308     1.0  0.68134  0.04302  0.40976  1.0000
  Fe  Fe217     1.0  0.52475  0.00853  0.38850  1.0000
  H   H1309     1.0  0.67177  0.06394  0.39681  1.0000
  H   H1310     1.0  0.67518  0.14185  0.54708  1.0000
  Fe  Fe218     1.0  0.58866  0.13930  0.63722  1.0000
  Fe  Fe219     1.0  0.60116  0.17569  0.61961  1.0000
  H   H1311     1.0  0.69290  0.13319  0.55440  1.0000
  H   H1312     1.0  0.72289  0.43904  0.32976  1.0000
  S   S440      1.0  0.55774  0.01042  0.33092  1.0000
  S   S441      1.0  0.69630  0.42220  0.32633  1.0000
  H   H1313     1.0  0.68812  0.09464  0.39215  1.0000
  C   C1329     1.0  0.65341  0.06361  0.63838  1.0000
  C   C1330     1.0  0.62170  0.11602  0.50758  1.0000
  C   C1331     1.0  0.61266  0.12334  0.52227  1.0000
  C   C1332     1.0  0.61388  0.12616  0.54122  1.0000
  H   H1314     1.0  0.62071  0.11397  0.49279  1.0000
  C   C1333     1.0  0.54610  0.11348  0.60578  1.0000
  H   H1315     1.0  0.60385  0.04543  0.44869  1.0000
  C   C1334     1.0  0.70980  0.10248  0.52111  1.0000
  S   S442      1.0  0.69772  0.16963  0.60413  1.0000
  N   N110      1.0  0.59265  0.07242  0.40692  1.0000
  Fe  Fe220     1.0  0.59376  0.15694  0.59038  1.0000
  C   C1335     1.0  0.59845  0.04974  0.43799  1.0000
  H   H1316     1.0  0.64084  0.11136  0.53324  1.0000
  H   H1317     1.0  0.72032  0.43654  0.38873  1.0000
  C   C1336     1.0  0.70050  0.05759  0.35252  1.0000
  H   H1318     1.0  0.69763  0.16118  0.64841  1.0000
  N   N111      1.0  0.63165  0.11157  0.51172  1.0000
  C   C1337     1.0  0.62406  0.12178  0.54522  1.0000
  C   C1338     1.0  0.70332  0.10553  0.50698  1.0000
  H   H1319     1.0  0.53049  0.10079  0.40209  1.0000
  Fe  Fe221     1.0  0.69383  0.13742  0.61945  1.0000
  H   H1320     1.0  0.64346  0.11883  0.48415  1.0000
  H   H1321     1.0  0.62508  0.12391  0.55994  1.0000
  C   C1339     1.0  0.63293  0.11459  0.53012  1.0000
  H   H1322     1.0  0.56438  0.08433  0.62750  1.0000
  S   S443      1.0  0.62776  0.10947  0.60516  1.0000
  S   S444      1.0  0.59644  0.12340  0.60969  1.0000
  H   H1323     1.0  0.72676  0.46999  0.38318  1.0000
  H   H1324     1.0  0.67931  0.15877  0.52148  1.0000
  C   C1340     1.0  0.68739  0.20714  0.61647  1.0000
  C   C1341     1.0  0.64669  0.11425  0.60969  1.0000
  H   H1325     1.0  0.66164  0.11723  0.61375  1.0000
  C   C1342     1.0  0.51604  0.10663  0.36585  1.0000
  C   C1343     1.0  0.49837  0.04659  0.34563  1.0000
  C   C1344     1.0  0.64103  0.10461  0.49585  1.0000
  S   S445      1.0  0.60947  0.16243  0.59066  1.0000
  C   C1345     1.0  0.66436  0.05950  0.63708  1.0000
  H   H1326     1.0  0.55466  0.17094  0.60384  1.0000
  N   N112      1.0  0.71562  0.48910  0.33934  1.0000
  H   H1327     1.0  0.66733  0.06035  0.65025  1.0000
  C   C1346     1.0  0.69961  0.08972  0.36371  1.0000
  H   H1328     1.0  0.64785  0.09519  0.50324  1.0000
  C   C1347     1.0  0.65340  0.11700  0.62111  1.0000
  C   C1348     1.0  0.67937  0.06031  0.40208  1.0000
  Fe  Fe222     1.0  0.61145  0.13036  0.61268  1.0000
  C   C1349     1.0  0.71552  0.48016  0.41032  1.0000
  N   N113      1.0  0.73595  0.40500  0.41098  1.0000
  H   H1329     1.0  0.73015  0.36321  0.39988  1.0000
  H   H1330     1.0  0.56208  0.15195  0.56321  1.0000
  H   H1331     1.0  0.70355  0.48569  0.43824  1.0000
  H   H1332     1.0  0.70270  0.10382  0.36184  1.0000
  C   C1350     1.0  0.49035  0.03911  0.34172  1.0000
  H   H1333     1.0  0.64116  0.06717  0.62185  1.0000
  H   H1334     1.0  0.61931  0.29693  0.57772  1.0000
  H   H1335     1.0  0.56293  0.14834  0.61806  1.0000
  H   H1336     1.0  0.55536  0.12616  0.55253  1.0000
  C   C1351     1.0  0.73358  0.41630  0.42819  1.0000
  H   H1337     1.0  0.70474  0.49088  0.36927  1.0000
  H   H1338     1.0  0.72530  0.41632  0.43763  1.0000
  C   C1352     1.0  0.63869  0.11897  0.65148  1.0000
  H   H1339     1.0  0.62387  0.11511  0.64774  1.0000
  H   H1340     1.0  0.62666  0.29867  0.60664  1.0000
  H   H1341     1.0  0.64783  0.06794  0.65243  1.0000
  H   H1342     1.0  0.61978  0.29141  0.63352  1.0000
  H   H1343     1.0  0.73415  0.43339  0.42188  1.0000
  Fe  Fe223     1.0  0.73557  0.04803  0.33768  1.0000
  H   H1344     1.0  0.64165  0.16629  0.64752  1.0000
  H   H1345     1.0  0.67923  0.31323  0.64076  1.0000
  C   C1353     1.0  0.60714  0.21569  0.65342  1.0000
  H   H1346     1.0  0.73675  0.49329  0.43200  1.0000
  S   S446      1.0  0.54614  0.06975  0.65596  1.0000
  C   C1354     1.0  0.69688  0.44906  0.32301  1.0000
  S   S447      1.0  0.57582  0.12652  0.66406  1.0000
  H   H1347     1.0  0.71674  0.15321  0.70046  1.0000
  S   S448      1.0  0.51787  0.06766  0.75705  1.0000
  C   C1355     1.0  0.49524  0.03735  0.79870  1.0000
  C   C1356     1.0  0.56765  0.03154  0.72572  1.0000
  H   H1348     1.0  0.66519  0.48739  0.81253  1.0000
  H   H1349     1.0  0.71571  0.49419  0.73464  1.0000
  C   C1357     1.0  0.63663  0.17069  0.66251  1.0000
  C   C1358     1.0  0.70528  0.48234  0.76374  1.0000
  C   C1359     1.0  0.50145  0.05623  0.81745  1.0000
  C   C1360     1.0  0.69649  0.39744  0.87976  1.0000
  C   C1361     1.0  0.70848  0.15613  0.69807  1.0000
  H   H1350     1.0  0.71134  0.13183  0.73567  1.0000
  S   S449      1.0  0.67483  0.22493  0.67238  1.0000
  H   H1351     1.0  0.49837  0.08355  0.72871  1.0000
  C   C1362     1.0  0.70150  0.46435  0.77672  1.0000
  C   C1363     1.0  0.61100  0.22655  0.66404  1.0000
  C   C1364     1.0  0.50935  0.05693  0.78027  1.0000
  C   C1365     1.0  0.72531  0.46687  0.67112  1.0000
  C   C1366     1.0  0.65170  0.20357  0.68786  1.0000
  C   C1367     1.0  0.69415  0.10358  0.73326  1.0000
  H   H1352     1.0  0.70919  0.15820  0.68081  1.0000
  H   H1353     1.0  0.72396  0.07240  0.73131  1.0000
  H   H1354     1.0  0.51488  0.99710  0.78346  1.0000
  H   H1355     1.0  0.50102  0.06108  0.83182  1.0000
  C   C1368     1.0  0.72648  0.09845  0.70444  1.0000
  S   S450      1.0  0.65039  0.32992  0.66406  1.0000
  C   C1369     1.0  0.71288  0.08418  0.68845  1.0000
  S   S451      1.0  0.71813  0.37629  0.83545  1.0000
  C   C1370     1.0  0.63580  0.19648  0.68324  1.0000
  C   C1371     1.0  0.73653  0.06243  0.86117  1.0000
  H   H1356     1.0  0.72561  0.44969  0.78164  1.0000
  H   H1357     1.0  0.53709  0.00589  0.75862  1.0000
  C   C1372     1.0  0.66894  0.48079  0.79858  1.0000
  C   C1373     1.0  0.50865  0.06313  0.79892  1.0000
  H   H1358     1.0  0.72724  0.12300  0.67576  1.0000
  C   C1374     1.0  0.69071  0.38830  0.85247  1.0000
  H   H1359     1.0  0.67234  0.41620  0.82310  1.0000
  H   H1360     1.0  0.73251  0.38757  0.79552  1.0000
  H   H1361     1.0  0.72890  0.48043  0.66262  1.0000
  S   S452      1.0  0.64799  0.26706  0.67928  1.0000
  S   S453      1.0  0.68843  0.46993  0.87153  1.0000
  Fe  Fe224     1.0  0.69134  0.42256  0.70490  1.0000
  S   S454      1.0  0.67471  0.41678  0.71990  1.0000
  S   S455      1.0  0.69705  0.44996  0.67997  1.0000
  Fe  Fe225     1.0  0.70163  0.38596  0.73569  1.0000
  S   S456      1.0  0.68615  0.37688  0.75376  1.0000
  S   S457      1.0  0.71805  0.37440  0.74234  1.0000
  Fe  Fe226     1.0  0.68249  0.38151  0.72163  1.0000
  S   S458      1.0  0.67812  0.35268  0.71572  1.0000
  Fe  Fe227     1.0  0.67955  0.41239  0.75073  1.0000
  S   S459      1.0  0.67062  0.42667  0.77939  1.0000
  S   S460      1.0  0.69870  0.38810  0.70395  1.0000
  S   S461      1.0  0.69534  0.42065  0.73545  1.0000
  S   S462      1.0  0.53328  0.02027  0.68467  1.0000
  H   H1362     1.0  0.70319  0.10102  0.75627  1.0000
  C   C1375     1.0  0.67815  0.46404  0.76213  1.0000
  C   C1376     1.0  0.67213  0.45228  0.77959  1.0000
  C   C1377     1.0  0.66751  0.46079  0.79779  1.0000
  C   C1378     1.0  0.70107  0.10999  0.74137  1.0000
  Fe  Fe228     1.0  0.53699  0.01056  0.71689  1.0000
  H   H1363     1.0  0.68167  0.45786  0.74795  1.0000
  H   H1364     1.0  0.66259  0.45213  0.81116  1.0000
  C   C1379     1.0  0.56571  0.01334  0.72215  1.0000
  C   C1380     1.0  0.65739  0.33578  0.68019  1.0000
  C   C1381     1.0  0.66423  0.31977  0.69154  1.0000
  C   C1382     1.0  0.67016  0.32528  0.70294  1.0000
  C   C1383     1.0  0.66944  0.34685  0.70303  1.0000
  C   C1384     1.0  0.66242  0.36285  0.69209  1.0000
  H   H1365     1.0  0.69507  0.32100  0.69332  1.0000
  H   H1366     1.0  0.66502  0.30314  0.69138  1.0000
  H   H1367     1.0  0.67547  0.31273  0.71152  1.0000
  H   H1368     1.0  0.66171  0.37948  0.69208  1.0000
  H   H1369     1.0  0.57271  0.05927  0.67495  1.0000
  H   H1370     1.0  0.63560  0.12041  0.66777  1.0000
  C   C1385     1.0  0.71906  0.43980  0.85605  1.0000
  C   C1386     1.0  0.70793  0.44491  0.86003  1.0000
  C   C1387     1.0  0.70231  0.46307  0.86801  1.0000
  H   H1371     1.0  0.71511  0.11048  0.66172  1.0000
  C   C1388     1.0  0.71904  0.47115  0.86782  1.0000
  H   H1372     1.0  0.72326  0.42596  0.84954  1.0000
  H   H1373     1.0  0.70372  0.43518  0.85624  1.0000
  N   N114      1.0  0.70346  0.13810  0.71028  1.0000
  H   H1374     1.0  0.51370  0.07337  0.79905  1.0000
  C   C1389     1.0  0.71813  0.37560  0.80961  1.0000
  C   C1390     1.0  0.72614  0.38237  0.79271  1.0000
  C   C1391     1.0  0.72595  0.38238  0.77202  1.0000
  C   C1392     1.0  0.71786  0.37525  0.76818  1.0000
  C   C1393     1.0  0.70975  0.36872  0.78501  1.0000
  C   C1394     1.0  0.70992  0.36880  0.80574  1.0000
  H   H1375     1.0  0.48994  0.02769  0.79850  1.0000
  H   H1376     1.0  0.69476  0.14060  0.68711  1.0000
  H   H1377     1.0  0.70351  0.36309  0.78210  1.0000
  H   H1378     1.0  0.70386  0.36303  0.81877  1.0000
  H   H1379     1.0  0.70349  0.49057  0.87769  1.0000
  H   H1380     1.0  0.65108  0.36984  0.67226  1.0000
  H   H1381     1.0  0.65552  0.21209  0.69428  1.0000
  C   C1395     1.0  0.71029  0.44930  0.68052  1.0000
  C   C1396     1.0  0.71614  0.43141  0.69217  1.0000
  C   C1397     1.0  0.69817  0.33180  0.67834  1.0000
  H   H1382     1.0  0.69633  0.37300  0.85465  1.0000
  H   H1383     1.0  0.49955  0.10611  0.75129  1.0000
  H   H1384     1.0  0.67491  0.49418  0.70592  1.0000
  H   H1385     1.0  0.69087  0.08956  0.74180  1.0000
  H   H1386     1.0  0.60659  0.22918  0.67955  1.0000
  C   C1398     1.0  0.56616  0.01217  0.70146  1.0000
  S   S463      1.0  0.73643  0.38724  0.86626  1.0000
  S   S464      1.0  0.73281  0.07726  0.77607  1.0000
  S   S465      1.0  0.72686  0.01978  0.78321  1.0000
  C   C1399     1.0  0.68446  0.39293  0.83751  1.0000
  H   H1387     1.0  0.63577  0.21934  0.70077  1.0000
  H   H1388     1.0  0.69495  0.38263  0.89158  1.0000
  C   C1400     1.0  0.72310  0.48431  0.81259  1.0000
  N   N115      1.0  0.56848  0.02866  0.68483  1.0000
  H   H1389     1.0  0.73050  0.05335  0.87181  1.0000
  H   H1390     1.0  0.69891  0.34617  0.68288  1.0000
  H   H1391     1.0  0.73084  0.41734  0.70253  1.0000
  H   H1392     1.0  0.69494  0.41050  0.88835  1.0000
  C   C1401     1.0  0.72232  0.08043  0.71589  1.0000
  C   C1402     1.0  0.71561  0.07325  0.70784  1.0000
  H   H1393     1.0  0.57169  0.06245  0.71112  1.0000
  S   S466      1.0  0.51827  0.06429  0.69913  1.0000
  C   C1403     1.0  0.49250  0.08445  0.74338  1.0000
  H   H1394     1.0  0.71226  0.05952  0.71702  1.0000
  S   S467      1.0  0.50074  0.02518  0.70005  1.0000
  C   C1404     1.0  0.55945  0.10496  0.67859  1.0000
  C   C1405     1.0  0.55281  0.09237  0.67717  1.0000
  H   H1395     1.0  0.71759  0.49055  0.82575  1.0000
  Fe  Fe229     1.0  0.53561  0.05271  0.68486  1.0000
  H   H1396     1.0  0.71066  0.48038  0.65999  1.0000
  H   H1397     1.0  0.55803  0.11074  0.69289  1.0000
  H   H1398     1.0  0.54632  0.08857  0.69031  1.0000
  C   C1406     1.0  0.67646  0.42742  0.84647  1.0000
  N   N116      1.0  0.68983  0.40286  0.86417  1.0000
  C   C1407     1.0  0.57023  0.04811  0.70859  1.0000
  C   C1408     1.0  0.49319  0.09734  0.75608  1.0000
  H   H1399     1.0  0.68845  0.18313  0.67547  1.0000
  C   C1409     1.0  0.67480  0.49267  0.78094  1.0000
  H   H1400     1.0  0.69560  0.46615  0.79125  1.0000
  C   C1410     1.0  0.71497  0.46689  0.66969  1.0000
  H   H1401     1.0  0.50313  0.03913  0.76578  1.0000
  Fe  Fe230     1.0  0.73372  0.38219  0.83679  1.0000
  C   C1411     1.0  0.65782  0.18865  0.67577  1.0000
  H   H1402     1.0  0.68514  0.38137  0.82823  1.0000
  H   H1403     1.0  0.68671  0.10951  0.70696  1.0000
  C   C1412     1.0  0.72038  0.46968  0.80456  1.0000
  H   H1404     1.0  0.70371  0.17118  0.70302  1.0000
  C   C1413     1.0  0.69179  0.11482  0.71374  1.0000
  Fe  Fe231     1.0  0.51640  0.03077  0.70191  1.0000
  C   C1414     1.0  0.71273  0.48033  0.74487  1.0000
  C   C1415     1.0  0.67728  0.41259  0.83456  1.0000
  H   H1405     1.0  0.68201  0.43375  0.87072  1.0000
  Fe  Fe232     1.0  0.52306  0.05051  0.73036  1.0000
  H   H1406     1.0  0.72215  0.45864  0.72462  1.0000
  C   C1416     1.0  0.72465  0.45283  0.85997  1.0000
  H   H1407     1.0  0.66645  0.18543  0.67282  1.0000
  C   C1417     1.0  0.65275  0.17801  0.66744  1.0000
  C   C1418     1.0  0.72649  0.43121  0.69329  1.0000
  C   C1419     1.0  0.65640  0.35731  0.68084  1.0000
  H   H1408     1.0  0.48873  0.06286  0.72015  1.0000
  N   N117      1.0  0.70487  0.44499  0.77086  1.0000
  S   S468      1.0  0.62383  0.25098  0.66735  1.0000
  C   C1420     1.0  0.71230  0.44277  0.75253  1.0000
  C   C1421     1.0  0.50274  0.04373  0.78021  1.0000
  H   H1409     1.0  0.62717  0.19958  0.68642  1.0000
  S   S469      1.0  0.52002  0.01809  0.73417  1.0000
  C   C1422     1.0  0.70082  0.42640  0.78488  1.0000
  C   C1423     1.0  0.73112  0.44891  0.68283  1.0000
  H   H1410     1.0  0.71508  0.42735  0.74794  1.0000
  H   H1411     1.0  0.70507  0.39468  0.87168  1.0000
  H   H1412     1.0  0.71279  0.41748  0.70011  1.0000
  H   H1413     1.0  0.70157  0.41393  0.77610  1.0000
  H   H1414     1.0  0.70531  0.41918  0.79768  1.0000
  H   H1415     1.0  0.69219  0.43108  0.79195  1.0000
  C   C1424     1.0  0.67949  0.48407  0.76287  1.0000
  S   S470      1.0  0.54049  0.04191  0.71599  1.0000
  C   C1425     1.0  0.68280  0.42221  0.86137  1.0000
  C   C1426     1.0  0.70565  0.12745  0.72963  1.0000
  C   C1427     1.0  0.72745  0.46149  0.78770  1.0000
  S   S471      1.0  0.73430  0.10845  0.71514  1.0000
  C   C1428     1.0  0.71715  0.10204  0.67677  1.0000
  H   H1416     1.0  0.59970  0.21048  0.66061  1.0000
  H   H1417     1.0  0.72331  0.48137  0.87076  1.0000
  H   H1418     1.0  0.71293  0.46445  0.81180  1.0000
  H   H1419     1.0  0.73202  0.38819  0.75902  1.0000
  C   C1429     1.0  0.72399  0.10911  0.68474  1.0000
  C   C1430     1.0  0.49461  0.04363  0.81735  1.0000
  H   H1420     1.0  0.56705  0.03288  0.74173  1.0000
  C   C1431     1.0  0.70785  0.47637  0.87168  1.0000
  S   S472      1.0  0.70372  0.07555  0.67999  1.0000
  H   H1421     1.0  0.67093  0.44283  0.84428  1.0000
  C   C1432     1.0  0.71632  0.46041  0.73924  1.0000
  C   C1433     1.0  0.64062  0.20753  0.69164  1.0000
  C   C1434     1.0  0.69646  0.13227  0.70248  1.0000
  C   C1435     1.0  0.57071  0.04629  0.68812  1.0000
  H   H1422     1.0  0.63524  0.15568  0.67417  1.0000
  N   N118      1.0  0.64186  0.18228  0.67095  1.0000
  C   C1436     1.0  0.56840  0.02727  0.66351  1.0000
  Fe  Fe233     1.0  0.63920  0.26351  0.65652  1.0000
  H   H1423     1.0  0.68746  0.37098  0.66288  1.0000
  S   S473      1.0  0.65750  0.12332  0.65654  1.0000
  H   H1424     1.0  0.57446  0.01321  0.65886  1.0000
  N   N119      1.0  0.73269  0.49030  0.80431  1.0000
  H   H1425     1.0  0.73027  0.03464  0.69478  1.0000
  H   H1426     1.0  0.56038  0.02562  0.66314  1.0000
  Fe  Fe234     1.0  0.65131  0.29769  0.65648  1.0000
  H   H1427     1.0  0.49183  0.00626  0.65682  1.0000
  H   H1428     1.0  0.62888  0.18062  0.65902  1.0000
  C   C1437     1.0  0.56779  0.11040  0.66156  1.0000
  H   H1429     1.0  0.73250  0.07587  0.85009  1.0000
  H   H1430     1.0  0.68442  0.49267  0.74957  1.0000
  C   C1438     1.0  0.68819  0.18981  0.65901  1.0000
  Fe  Fe235     1.0  0.66252  0.25128  0.65848  1.0000
  N   N120      1.0  0.69083  0.33737  0.66403  1.0000
  H   H1431     1.0  0.70621  0.32377  0.67080  1.0000
  H   H1432     1.0  0.69294  0.49413  0.68334  1.0000
  C   C1439     1.0  0.50035  0.99957  0.69778  1.0000
  H   H1433     1.0  0.69218  0.30470  0.66364  1.0000
  H   H1434     1.0  0.65758  0.16629  0.65822  1.0000
  C   C1440     1.0  0.55448  0.08504  0.65869  1.0000
  C   C1441     1.0  0.68604  0.35832  0.65734  1.0000
  Fe  Fe236     1.0  0.73771  0.04287  0.77330  1.0000
  H   H1435     1.0  0.56355  0.00043  0.73532  1.0000
  C   C1442     1.0  0.68862  0.32132  0.65786  1.0000
  H   H1436     1.0  0.56440  0.99818  0.69883  1.0000
  C   C1443     1.0  0.73705  0.46823  0.77889  1.0000
  H   H1437     1.0  0.53241  0.99630  0.79781  1.0000
  H   H1438     1.0  0.50085  0.99648  0.85157  1.0000
  H   H1439     1.0  0.48834  0.04149  0.74339  1.0000
  C   C1444     1.0  0.72635  0.89428  0.01799  1.0000
  Fe  Fe237     1.0  0.62363  0.83709  0.11158  1.0000
  S   S474      1.0  0.61366  0.83124  0.14448  1.0000
  S   S475      1.0  0.64146  0.82780  0.10445  1.0000
  Fe  Fe238     1.0  0.60466  0.85263  0.09078  1.0000
  S   S476      1.0  0.59287  0.84876  0.12194  1.0000
  S   S477      1.0  0.59941  0.86495  0.05964  1.0000
  Fe  Fe239     1.0  0.60318  0.86293  0.13327  1.0000
  S   S478      1.0  0.59766  0.88800  0.15318  1.0000
  Fe  Fe240     1.0  0.60429  0.81760  0.13044  1.0000
  S   S479      1.0  0.59848  0.78708  0.14523  1.0000
  S   S480      1.0  0.61404  0.86984  0.10116  1.0000
  S   S481      1.0  0.61524  0.82038  0.09859  1.0000
  S   S482      1.0  0.60085  0.79870  0.00645  1.0000
  Fe  Fe241     1.0  0.54743  0.91884  0.23866  1.0000
  S   S483      1.0  0.55416  0.89173  0.22127  1.0000
  S   S484      1.0  0.53996  0.91038  0.27334  1.0000
  Fe  Fe242     1.0  0.68216  0.86626  0.13511  1.0000
  S   S485      1.0  0.69109  0.84748  0.11043  1.0000
  S   S486      1.0  0.66410  0.87530  0.14317  1.0000
  Fe  Fe243     1.0  0.70265  0.87111  0.14351  1.0000
  S   S487      1.0  0.71336  0.85243  0.11929  1.0000
  S   S488      1.0  0.70635  0.88646  0.16625  1.0000
  Fe  Fe244     1.0  0.70166  0.87106  0.09880  1.0000
  S   S489      1.0  0.70507  0.88318  0.06325  1.0000
  Fe  Fe245     1.0  0.70195  0.83007  0.13259  1.0000
  S   S490      1.0  0.70691  0.79413  0.13619  1.0000
  S   S491      1.0  0.69184  0.89165  0.12178  1.0000
  S   S492      1.0  0.69217  0.84700  0.15851  1.0000
  H   H1440     1.0  0.63818  0.71267  0.01919  1.0000
  S   S493      1.0  0.66615  0.65530  0.00182  1.0000
  H   H1441     1.0  0.63479  0.66736  0.18258  1.0000
  C   C1445     1.0  0.49315  0.92951  0.30970  1.0000
  C   C1446     1.0  0.63613  0.65132  0.00222  1.0000
  S   S494      1.0  0.68662  0.82345  0.03078  1.0000
  H   H1442     1.0  0.64886  0.86005  0.06133  1.0000
  H   H1443     1.0  0.67433  0.88872  0.10077  1.0000
  Fe  Fe246     1.0  0.70417  0.53539  0.23289  1.0000
  H   H1444     1.0  0.67285  0.60380  0.15790  1.0000
  N   N121      1.0  0.49533  0.97049  0.23094  1.0000
  Fe  Fe247     1.0  0.69380  0.57869  0.24407  1.0000
  S   S495      1.0  0.68247  0.61043  0.23559  1.0000
  H   H1445     1.0  0.64016  0.66215  0.20568  1.0000
  S   S496      1.0  0.70844  0.56762  0.22073  1.0000
  C   C1447     1.0  0.64220  0.66526  0.18813  1.0000
  Fe  Fe248     1.0  0.54148  0.96660  0.23789  1.0000
  H   H1446     1.0  0.66754  0.60210  0.19666  1.0000
  Fe  Fe249     1.0  0.65122  0.70631  0.12818  1.0000
  S   S497      1.0  0.65534  0.73539  0.10461  1.0000
  S   S498      1.0  0.63452  0.70230  0.14401  1.0000
  Fe  Fe250     1.0  0.67436  0.68399  0.12651  1.0000
  S   S499      1.0  0.68049  0.71164  0.10252  1.0000
  S   S500      1.0  0.68514  0.65254  0.13798  1.0000
  Fe  Fe251     1.0  0.66773  0.73193  0.12268  1.0000
  S   S501      1.0  0.66718  0.76255  0.13146  1.0000
  Fe  Fe252     1.0  0.66755  0.71258  0.08652  1.0000
  S   S502      1.0  0.66873  0.72182  0.05113  1.0000
  S   S503      1.0  0.66263  0.70436  0.14786  1.0000
  S   S504      1.0  0.66243  0.68342  0.10876  1.0000
  C   C1448     1.0  0.66587  0.67420  0.01606  1.0000
  C   C1449     1.0  0.66125  0.63287  0.15053  1.0000
  C   C1450     1.0  0.66456  0.71075  0.01841  1.0000
  C   C1451     1.0  0.66685  0.70343  0.03863  1.0000
  C   C1452     1.0  0.66830  0.68153  0.04784  1.0000
  C   C1453     1.0  0.66783  0.66695  0.03655  1.0000
  C   C1454     1.0  0.73506  0.86889  0.22867  1.0000
  H   H1447     1.0  0.66335  0.72772  0.01129  1.0000
  H   H1448     1.0  0.67013  0.67571  0.06337  1.0000
  H   H1449     1.0  0.66921  0.64995  0.04356  1.0000
  C   C1455     1.0  0.68307  0.62195  0.20845  1.0000
  C   C1456     1.0  0.68934  0.61074  0.19293  1.0000
  C   C1457     1.0  0.69003  0.62049  0.17141  1.0000
  C   C1458     1.0  0.68432  0.64142  0.16520  1.0000
  C   C1459     1.0  0.67797  0.65264  0.18070  1.0000
  C   C1460     1.0  0.67735  0.64292  0.20227  1.0000
  H   H1450     1.0  0.69358  0.59446  0.19741  1.0000
  H   H1451     1.0  0.69490  0.61167  0.15951  1.0000
  H   H1452     1.0  0.67357  0.66879  0.17609  1.0000
  H   H1453     1.0  0.67248  0.65173  0.21419  1.0000
  H   H1454     1.0  0.72175  0.54171  0.18729  1.0000
  C   C1461     1.0  0.58464  0.81418  0.09799  1.0000
  C   C1462     1.0  0.73363  0.54940  0.28342  1.0000
  H   H1455     1.0  0.60072  0.77724  0.10124  1.0000
  S   S505      1.0  0.73260  0.56634  0.24149  1.0000
  S   S506      1.0  0.55684  0.92819  0.30174  1.0000
  Fe  Fe253     1.0  0.54775  0.93507  0.27631  1.0000
  H   H1456     1.0  0.57771  0.81693  0.04518  1.0000
  C   C1463     1.0  0.69605  0.78410  0.13594  1.0000
  C   C1464     1.0  0.69752  0.76382  0.13158  1.0000
  C   C1465     1.0  0.68872  0.75659  0.13043  1.0000
  C   C1466     1.0  0.67852  0.76974  0.13361  1.0000
  C   C1467     1.0  0.67713  0.78972  0.13823  1.0000
  C   C1468     1.0  0.68580  0.79679  0.13963  1.0000
  H   H1457     1.0  0.70546  0.75391  0.12880  1.0000
  H   H1458     1.0  0.68987  0.74108  0.12687  1.0000
  H   H1459     1.0  0.66930  0.79995  0.14056  1.0000
  H   H1460     1.0  0.68456  0.81213  0.14359  1.0000
  C   C1469     1.0  0.71859  0.89304  0.16435  1.0000
  C   C1470     1.0  0.72815  0.88389  0.15205  1.0000
  H   H1461     1.0  0.68383  0.76802  0.08915  1.0000
  N   N122      1.0  0.63423  0.81606  0.99060  1.0000
  C   C1471     1.0  0.72853  0.90953  0.17868  1.0000
  C   C1472     1.0  0.71881  0.90622  0.17729  1.0000
  H   H1462     1.0  0.72806  0.87373  0.14201  1.0000
  C   C1473     1.0  0.56602  0.95257  0.31532  1.0000
  H   H1463     1.0  0.72856  0.91948  0.18893  1.0000
  H   H1464     1.0  0.71144  0.91347  0.18673  1.0000
  C   C1474     1.0  0.69818  0.83134  0.05413  1.0000
  C   C1475     1.0  0.70235  0.84449  0.06135  1.0000
  C   C1476     1.0  0.70136  0.86625  0.05180  1.0000
  C   C1477     1.0  0.69707  0.87439  0.03364  1.0000
  H   H1465     1.0  0.69857  0.81476  0.06234  1.0000
  H   H1466     1.0  0.70622  0.83778  0.07458  1.0000
  H   H1467     1.0  0.69645  0.89116  0.02595  1.0000
  C   C1478     1.0  0.50406  0.92503  0.30073  1.0000
  H   H1468     1.0  0.51923  0.90406  0.30408  1.0000
  C   C1479     1.0  0.71614  0.62703  0.19317  1.0000
  C   C1480     1.0  0.72745  0.96895  0.28588  1.0000
  C   C1481     1.0  0.65543  0.63131  0.19366  1.0000
  C   C1482     1.0  0.58493  0.89039  0.17016  1.0000
  C   C1483     1.0  0.57858  0.87566  0.17333  1.0000
  C   C1484     1.0  0.56887  0.87691  0.18834  1.0000
  C   C1485     1.0  0.56546  0.89283  0.20028  1.0000
  C   C1486     1.0  0.57162  0.90801  0.19657  1.0000
  C   C1487     1.0  0.58135  0.90672  0.18161  1.0000
  H   H1469     1.0  0.58127  0.86303  0.16457  1.0000
  H   H1470     1.0  0.56411  0.86514  0.19110  1.0000
  H   H1471     1.0  0.56904  0.92041  0.20558  1.0000
  H   H1472     1.0  0.58620  0.91827  0.17907  1.0000
  C   C1488     1.0  0.60872  0.76391  0.14503  1.0000
  C   C1489     1.0  0.61947  0.76524  0.13797  1.0000
  C   C1490     1.0  0.62749  0.74642  0.13776  1.0000
  C   C1491     1.0  0.62476  0.72627  0.14439  1.0000
  C   C1492     1.0  0.61401  0.72505  0.15157  1.0000
  C   C1493     1.0  0.60603  0.74379  0.15190  1.0000
  H   H1473     1.0  0.62160  0.78074  0.13274  1.0000
  H   H1474     1.0  0.63575  0.74754  0.13260  1.0000
  H   H1475     1.0  0.61185  0.70956  0.15681  1.0000
  H   H1476     1.0  0.59774  0.74268  0.15747  1.0000
  C   C1494     1.0  0.64750  0.84167  0.11490  1.0000
  C   C1495     1.0  0.64171  0.85954  0.12341  1.0000
  C   C1496     1.0  0.64685  0.87012  0.13182  1.0000
  C   C1497     1.0  0.65773  0.86263  0.13199  1.0000
  C   C1498     1.0  0.66339  0.84477  0.12358  1.0000
  C   C1499     1.0  0.65835  0.83448  0.11486  1.0000
  H   H1477     1.0  0.63329  0.86522  0.12347  1.0000
  H   H1478     1.0  0.64240  0.88394  0.13839  1.0000
  H   H1479     1.0  0.67160  0.83841  0.12433  1.0000
  H   H1480     1.0  0.66286  0.82066  0.10841  1.0000
  C   C1500     1.0  0.60140  0.81761  0.01974  1.0000
  C   C1501     1.0  0.60522  0.81030  0.03843  1.0000
  C   C1502     1.0  0.60491  0.82477  0.05048  1.0000
  C   C1503     1.0  0.60084  0.84667  0.04385  1.0000
  C   C1504     1.0  0.59734  0.85405  0.02477  1.0000
  C   C1505     1.0  0.59761  0.83955  0.01271  1.0000
  H   H1481     1.0  0.60817  0.79332  0.04391  1.0000
  H   H1482     1.0  0.60753  0.81885  0.06515  1.0000
  H   H1483     1.0  0.59417  0.87099  0.01955  1.0000
  H   H1484     1.0  0.72458  0.85561  0.04217  1.0000
  H   H1485     1.0  0.73256  0.54715  0.20926  1.0000
  H   H1486     1.0  0.63171  0.84592  0.99929  1.0000
  C   C1506     1.0  0.51082  0.90780  0.31110  1.0000
  H   H1487     1.0  0.67916  0.79645  0.08818  1.0000
  C   C1507     1.0  0.48986  0.95544  0.24791  1.0000
  C   C1508     1.0  0.63397  0.70526  0.01243  1.0000
  C   C1509     1.0  0.73776  0.56203  0.26405  1.0000
  H   H1488     1.0  0.57298  0.93960  0.31444  1.0000
  C   C1510     1.0  0.73436  0.53196  0.20461  1.0000
  H   H1489     1.0  0.64818  0.81803  0.99885  1.0000
  H   H1490     1.0  0.72973  0.95426  0.25964  1.0000
  H   H1491     1.0  0.59307  0.76196  0.09516  1.0000
  H   H1492     1.0  0.64481  0.64593  0.00207  1.0000
  H   H1493     1.0  0.72712  0.54206  0.28468  1.0000
  C   C1511     1.0  0.73046  0.50949  0.18620  1.0000
  N   N123      1.0  0.67302  0.78377  0.06914  1.0000
  C   C1512     1.0  0.67545  0.77737  0.05039  1.0000
  C   C1513     1.0  0.66265  0.78854  0.07976  1.0000
  C   C1514     1.0  0.66737  0.77567  0.04179  1.0000
  C   C1515     1.0  0.65436  0.78726  0.07151  1.0000
  C   C1516     1.0  0.65677  0.78058  0.05249  1.0000
  C   C1517     1.0  0.68163  0.78390  0.07869  1.0000
  H   H1494     1.0  0.68367  0.77347  0.04201  1.0000
  H   H1495     1.0  0.72560  0.50686  0.17697  1.0000
  H   H1496     1.0  0.66937  0.77009  0.02716  1.0000
  H   H1497     1.0  0.64616  0.79104  0.08013  1.0000
  H   H1498     1.0  0.65046  0.77884  0.04623  1.0000
  H   H1499     1.0  0.68880  0.78733  0.06640  1.0000
  C   C1518     1.0  0.50610  0.96508  0.22342  1.0000
  C   C1519     1.0  0.56622  0.97082  0.32174  1.0000
  C   C1520     1.0  0.54796  0.96813  0.31083  1.0000
  C   C1521     1.0  0.65320  0.64876  0.15882  1.0000
  N   N124      1.0  0.64513  0.79552  0.16541  1.0000
  C   C1522     1.0  0.64101  0.81682  0.16519  1.0000
  C   C1523     1.0  0.65376  0.78503  0.17418  1.0000
  C   C1524     1.0  0.64559  0.82822  0.17373  1.0000
  C   C1525     1.0  0.65861  0.79600  0.18268  1.0000
  C   C1526     1.0  0.65455  0.81781  0.18218  1.0000
  C   C1527     1.0  0.64075  0.78442  0.15476  1.0000
  H   H1500     1.0  0.63435  0.82529  0.15775  1.0000
  H   H1501     1.0  0.65726  0.76831  0.17379  1.0000
  H   H1502     1.0  0.64246  0.84525  0.17305  1.0000
  H   H1503     1.0  0.66576  0.78785  0.18868  1.0000
  H   H1504     1.0  0.65848  0.82678  0.18787  1.0000
  H   H1505     1.0  0.64275  0.76673  0.16046  1.0000
  H   H1506     1.0  0.63193  0.78956  0.15746  1.0000
  H   H1507     1.0  0.64416  0.78813  0.13746  1.0000
  N   N125      1.0  0.57981  0.87176  0.23836  1.0000
  C   C1528     1.0  0.57161  0.87424  0.25553  1.0000
  C   C1529     1.0  0.58678  0.88529  0.23125  1.0000
  C   C1530     1.0  0.57028  0.89048  0.26618  1.0000
  C   C1531     1.0  0.58559  0.90191  0.24136  1.0000
  C   C1532     1.0  0.57733  0.90436  0.25905  1.0000
  C   C1533     1.0  0.58143  0.85379  0.22830  1.0000
  H   H1508     1.0  0.56593  0.86386  0.26083  1.0000
  H   H1509     1.0  0.59317  0.88358  0.21739  1.0000
  C   C1534     1.0  0.72828  0.52908  0.19207  1.0000
  H   H1510     1.0  0.59098  0.91291  0.23541  1.0000
  H   H1511     1.0  0.57624  0.91724  0.26705  1.0000
  H   H1512     1.0  0.58572  0.83891  0.23735  1.0000
  H   H1513     1.0  0.57363  0.85132  0.22755  1.0000
  H   H1514     1.0  0.58608  0.85696  0.21171  1.0000
  N   N126      1.0  0.63235  0.67410  0.00286  1.0000
  H   H1515     1.0  0.73479  0.53667  0.31611  1.0000
  H   H1516     1.0  0.56374  0.89250  0.27972  1.0000
  C   C1535     1.0  0.72048  0.50002  0.32036  1.0000
  H   H1517     1.0  0.54088  0.96721  0.30664  1.0000
  C   C1536     1.0  0.55694  0.95131  0.30955  1.0000
  H   H1518     1.0  0.66240  0.70193  0.99149  1.0000
  C   C1537     1.0  0.72401  0.83890  0.01946  1.0000
  H   H1519     1.0  0.64426  0.67419  0.01841  1.0000
  C   C1538     1.0  0.66402  0.69618  0.00717  1.0000
  H   H1520     1.0  0.67219  0.50085  0.31896  1.0000
  C   C1539     1.0  0.62350  0.68564  0.99524  1.0000
  C   C1540     1.0  0.72508  0.85662  0.02556  1.0000
  H   H1521     1.0  0.59460  0.84531  0.99834  1.0000
  H   H1522     1.0  0.67723  0.51229  0.28091  1.0000
  H   H1523     1.0  0.67938  0.86139  0.06955  1.0000
  C   C1541     1.0  0.66475  0.85896  0.06388  1.0000
  H   H1524     1.0  0.71002  0.86653  0.21205  1.0000
  C   C1542     1.0  0.73127  0.98724  0.24897  1.0000
  S   S507      1.0  0.70310  0.51708  0.21036  1.0000
  H   H1525     1.0  0.58679  0.81352  0.11261  1.0000
  H   H1526     1.0  0.72795  0.85136  0.19323  1.0000
  H   H1527     1.0  0.51186  0.94746  0.32064  1.0000
  C   C1543     1.0  0.51141  0.97954  0.20749  1.0000
  C   C1544     1.0  0.66340  0.61495  0.18594  1.0000
  C   C1545     1.0  0.61980  0.70743  0.99558  1.0000
  S   S508      1.0  0.53335  0.94470  0.23109  1.0000
  C   C1546     1.0  0.69331  0.83964  0.03681  1.0000
  C   C1547     1.0  0.69306  0.86103  0.02607  1.0000
  N   N127      1.0  0.58688  0.79600  0.09033  1.0000
  S   S509      1.0  0.70243  0.57160  0.27044  1.0000
  H   H1528     1.0  0.64925  0.66195  0.14811  1.0000
  S   S510      1.0  0.71403  0.52449  0.25753  1.0000
  C   C1548     1.0  0.67343  0.89695  0.08446  1.0000
  H   H1529     1.0  0.68932  0.86753  0.01263  1.0000
  H   H1530     1.0  0.62236  0.73425  0.00432  1.0000
  C   C1549     1.0  0.72949  0.96875  0.26435  1.0000
  C   C1550     1.0  0.67103  0.86872  0.07032  1.0000
  C   C1551     1.0  0.58429  0.79679  0.07176  1.0000
  H   H1531     1.0  0.57382  0.85021  0.05871  1.0000
  H   H1532     1.0  0.72326  0.82681  0.99336  1.0000
  H   H1533     1.0  0.65345  0.63081  0.21051  1.0000
  C   C1552     1.0  0.57718  0.83487  0.06789  1.0000
  N   N128      1.0  0.66666  0.88709  0.07781  1.0000
  H   H1534     1.0  0.68748  0.68058  0.01398  1.0000
  C   C1553     1.0  0.54797  0.98589  0.31831  1.0000
  C   C1554     1.0  0.72760  0.98740  0.29197  1.0000
  H   H1535     1.0  0.66825  0.84436  0.05799  1.0000
  C   C1555     1.0  0.65388  0.86784  0.06565  1.0000
  S   S511      1.0  0.53376  0.96225  0.27226  1.0000
  H   H1536     1.0  0.66072  0.79306  0.09489  1.0000
  C   C1556     1.0  0.66637  0.61586  0.16421  1.0000
  S   S512      1.0  0.67117  0.81643  0.99444  1.0000
  H   H1537     1.0  0.70435  0.61911  0.26816  1.0000
  H   H1538     1.0  0.58633  0.78257  0.06527  1.0000
  H   H1539     1.0  0.72009  0.62574  0.17703  1.0000
  C   C1557     1.0  0.57936  0.81620  0.06032  1.0000
  C   C1558     1.0  0.64942  0.88620  0.07394  1.0000
  H   H1540     1.0  0.70206  0.64911  0.18448  1.0000
  S   S513      1.0  0.50894  0.94190  0.27699  1.0000
  C   C1559     1.0  0.70604  0.64022  0.19733  1.0000
  Fe  Fe254     1.0  0.71670  0.55799  0.24774  1.0000
  H   H1541     1.0  0.64500  0.68060  0.18201  1.0000
  C   C1560     1.0  0.72107  0.61547  0.20988  1.0000
  H   H1542     1.0  0.71972  0.51720  0.31759  1.0000
  Fe  Fe255     1.0  0.69900  0.53859  0.27840  1.0000
  H   H1543     1.0  0.69303  0.65137  0.22143  1.0000
  C   C1561     1.0  0.70097  0.64145  0.21826  1.0000
  C   C1562     1.0  0.70018  0.63117  0.25634  1.0000
  C   C1563     1.0  0.71576  0.61707  0.23061  1.0000
  H   H1544     1.0  0.64090  0.89273  0.07612  1.0000
  S   S514      1.0  0.68886  0.54704  0.25448  1.0000
  N   N129      1.0  0.70577  0.62972  0.23458  1.0000
  Fe  Fe256     1.0  0.52666  0.93830  0.26602  1.0000
  H   H1545     1.0  0.68551  0.72932  0.01126  1.0000
  C   C1564     1.0  0.59251  0.77590  0.10182  1.0000
  H   H1546     1.0  0.69204  0.62805  0.25949  1.0000
  H   H1547     1.0  0.71966  0.60796  0.24350  1.0000
  S   S515      1.0  0.55629  0.94148  0.24225  1.0000
  N   N130      1.0  0.65042  0.64790  0.18011  1.0000
  H   H1548     1.0  0.58830  0.77258  0.11873  1.0000
  C   C1565     1.0  0.65595  0.89560  0.08013  1.0000
  H   H1549     1.0  0.65239  0.90952  0.08712  1.0000
  H   H1550     1.0  0.69952  0.64740  0.25879  1.0000
  H   H1551     1.0  0.51066  0.94960  0.22993  1.0000
  H   H1552     1.0  0.68148  0.89573  0.07382  1.0000
  H   H1553     1.0  0.66999  0.91423  0.08421  1.0000
  C   C1566     1.0  0.57980  0.83389  0.08687  1.0000
  H   H1554     1.0  0.66371  0.63404  0.13356  1.0000
  H   H1555     1.0  0.57843  0.84846  0.09252  1.0000
  C   C1567     1.0  0.63742  0.68348  0.01185  1.0000
  S   S516      1.0  0.69378  0.52132  0.31203  1.0000
  Fe  Fe257     1.0  0.68401  0.83011  0.99784  1.0000
  C   C1568     1.0  0.62740  0.83302  0.00139  1.0000
  H   H1556     1.0  0.69263  0.70590  0.02657  1.0000
  H   H1557     1.0  0.63168  0.64147  0.01618  1.0000
  H   H1558     1.0  0.72269  0.82443  0.03121  1.0000
  C   C1569     1.0  0.69111  0.68758  0.99796  1.0000
  H   H1559     1.0  0.52877  0.92018  0.32232  1.0000
  C   C1570     1.0  0.48964  0.99032  0.22333  1.0000
  H   H1560     1.0  0.73141  0.90449  0.00566  1.0000
  C   C1571     1.0  0.62512  0.71731  0.00411  1.0000
  C   C1572     1.0  0.71700  0.86683  0.21722  1.0000
  H   H1561     1.0  0.62018  0.84080  0.99474  1.0000
  S   S517      1.0  0.73534  0.98623  0.22213  1.0000
  H   H1562     1.0  0.72620  0.95459  0.29774  1.0000
  C   C1573     1.0  0.69313  0.71714  0.01084  1.0000
  H   H1563     1.0  0.51998  0.97539  0.20175  1.0000
  H   H1564     1.0  0.68740  0.50177  0.24720  1.0000
  H   H1565     1.0  0.72428  0.88497  0.25269  1.0000
  H   H1566     1.0  0.70804  0.88366  0.24193  1.0000
  H   H1567     1.0  0.72893  0.60514  0.20692  1.0000
  C   C1574     1.0  0.71591  0.87659  0.23383  1.0000
  C   C1575     1.0  0.72499  0.87747  0.23976  1.0000
  H   H1568     1.0  0.52072  0.99351  0.24343  1.0000
  H   H1569     1.0  0.69970  0.72547  0.00832  1.0000
  C   C1576     1.0  0.72720  0.85837  0.20652  1.0000
  H   H1570     1.0  0.71807  0.90382  0.02151  1.0000
  N   N131      1.0  0.72627  0.87525  0.01100  1.0000
  C   C1577     1.0  0.73790  0.88737  0.15333  1.0000
  N   N132      1.0  0.69480  0.70597  0.99380  1.0000
  N   N133      1.0  0.73607  0.85984  0.21204  1.0000
  S   S518      1.0  0.73671  0.92428  0.22251  1.0000
  H   H1571     1.0  0.49487  0.93894  0.25027  1.0000
  H   H1572     1.0  0.72949  0.88977  0.03265  1.0000
  H   H1573     1.0  0.73014  0.49794  0.28910  1.0000
  C   C1578     1.0  0.72663  0.87669  0.99016  1.0000
  H   H1574     1.0  0.62487  0.82629  0.01853  1.0000
  C   C1579     1.0  0.72428  0.84027  0.99827  1.0000
  C   C1580     1.0  0.64482  0.80991  0.99112  1.0000
  S   S519      1.0  0.72744  0.98643  0.31832  1.0000
  H   H1575     1.0  0.51056  0.94102  0.40614  1.0000
  H   H1576     1.0  0.51953  0.97844  0.36093  1.0000
  C   C1581     1.0  0.73270  0.52465  0.43894  1.0000
  S   S520      1.0  0.51904  0.97741  0.40285  1.0000
  H   H1577     1.0  0.54657  0.94473  0.35904  1.0000
  H   H1578     1.0  0.57337  0.97195  0.32566  1.0000
  H   H1579     1.0  0.54084  0.92245  0.34329  1.0000
  C   C1582     1.0  0.53815  0.95197  0.36554  1.0000
  C   C1583     1.0  0.48899  0.91709  0.32915  1.0000
  C   C1584     1.0  0.55718  0.98745  0.32343  1.0000
  S   S521      1.0  0.72009  0.50344  0.40761  1.0000
  C   C1585     1.0  0.73558  0.53849  0.44768  1.0000
  C   C1586     1.0  0.70940  0.50092  0.35582  1.0000
  C   C1587     1.0  0.51459  0.96468  0.34087  1.0000
  C   C1588     1.0  0.49759  0.99317  0.40274  1.0000
  C   C1589     1.0  0.50603  0.97527  0.40349  1.0000
  C   C1590     1.0  0.49573  0.90011  0.33978  1.0000
  C   C1591     1.0  0.52161  0.96566  0.35246  1.0000
  H   H1580     1.0  0.49221  0.93663  0.40960  1.0000
  H   H1581     1.0  0.70361  0.51501  0.34922  1.0000
  C   C1592     1.0  0.50406  0.95495  0.40556  1.0000
  C   C1593     1.0  0.53344  0.93432  0.34279  1.0000
  H   H1582     1.0  0.53792  0.96892  0.36531  1.0000
  C   C1594     1.0  0.49368  0.95242  0.40751  1.0000
  N   N134      1.0  0.53096  0.95077  0.35309  1.0000
  C   C1595     1.0  0.50664  0.89530  0.33061  1.0000
  H   H1583     1.0  0.72561  0.52974  0.43234  1.0000
  H   H1584     1.0  0.53570  0.94364  0.38227  1.0000
  H   H1585     1.0  0.50719  0.97654  0.34052  1.0000
  H   H1586     1.0  0.71478  0.50654  0.36213  1.0000
  C   C1596     1.0  0.51718  0.94829  0.32987  1.0000
  S   S522      1.0  0.49056  0.88507  0.36458  1.0000
  C   C1597     1.0  0.52665  0.93297  0.33085  1.0000
  Fe  Fe258     1.0  0.73627  0.50294  0.38669  1.0000
  H   H1587     1.0  0.73075  0.55451  0.44792  1.0000
  H   H1588     1.0  0.48886  0.85664  0.40617  1.0000
  H   H1589     1.0  0.51187  0.88202  0.33870  1.0000
  Fe  Fe259     1.0  0.61279  0.82228  0.92928  1.0000
  S   S523      1.0  0.73547  0.95914  0.88574  1.0000
  S   S524      1.0  0.62965  0.82556  0.91379  1.0000
  Fe  Fe260     1.0  0.58868  0.83631  0.93542  1.0000
  S   S525      1.0  0.58590  0.80620  0.95950  1.0000
  S   S526      1.0  0.57483  0.86203  0.92496  1.0000
  H   H1590     1.0  0.51575  0.99411  0.67680  1.0000
  Fe  Fe261     1.0  0.59917  0.78981  0.93689  1.0000
  C   C1598     1.0  0.51566  0.82272  0.81709  1.0000
  S   S527      1.0  0.60056  0.84191  0.95075  1.0000
  S   S528      1.0  0.60121  0.81955  0.91194  1.0000
  Fe  Fe262     1.0  0.53725  0.87552  0.85055  1.0000
  S   S529      1.0  0.52853  0.90283  0.86648  1.0000
  S   S530      1.0  0.55080  0.84923  0.86121  1.0000
  Fe  Fe263     1.0  0.52526  0.89331  0.81413  1.0000
  S   S531      1.0  0.51582  0.92201  0.82720  1.0000
  S   S532      1.0  0.52390  0.89240  0.78172  1.0000
  Fe  Fe264     1.0  0.53111  0.92335  0.83382  1.0000
  S   S533      1.0  0.53534  0.95537  0.82698  1.0000
  Fe  Fe265     1.0  0.51409  0.89867  0.85839  1.0000
  S   S534      1.0  0.49876  0.89776  0.88248  1.0000
  S   S535      1.0  0.54087  0.89642  0.81822  1.0000
  S   S536      1.0  0.52250  0.86953  0.84496  1.0000
  C   C1599     1.0  0.50383  0.94734  0.88466  1.0000
  C   C1600     1.0  0.64733  0.78406  0.97005  1.0000
  C   C1601     1.0  0.70607  0.51917  0.68082  1.0000
  C   C1602     1.0  0.53962  0.82185  0.83621  1.0000
  C   C1603     1.0  0.48811  0.98287  0.87408  1.0000
  C   C1604     1.0  0.63649  0.79017  0.96992  1.0000
  C   C1605     1.0  0.60385  0.71771  0.93420  1.0000
  N   N135      1.0  0.51069  0.97159  0.77649  1.0000
  C   C1606     1.0  0.62998  0.80615  0.98051  1.0000
  H   H1591     1.0  0.63102  0.71598  0.94566  1.0000
  C   C1607     1.0  0.68107  0.53360  0.72078  1.0000
  H   H1592     1.0  0.70806  0.90421  0.96576  1.0000
  S   S537      1.0  0.69675  0.81294  0.97515  1.0000
  S   S538      1.0  0.65134  0.86044  0.96662  1.0000
  H   H1593     1.0  0.52798  0.84616  0.78621  1.0000
  Fe  Fe266     1.0  0.69208  0.84241  0.95082  1.0000
  C   C1608     1.0  0.49669  0.87090  0.79250  1.0000
  S   S539      1.0  0.70463  0.85637  0.92477  1.0000
  H   H1594     1.0  0.55228  0.83860  0.81980  1.0000
  S   S540      1.0  0.68009  0.86059  0.97399  1.0000
  H   H1595     1.0  0.71212  0.95163  0.90013  1.0000
  H   H1596     1.0  0.66720  0.51970  0.73012  1.0000
  S   S541      1.0  0.68018  0.82904  0.94297  1.0000
  H   H1597     1.0  0.62991  0.87048  0.96071  1.0000
  C   C1609     1.0  0.69166  0.67789  0.98155  1.0000
  S   S542      1.0  0.72552  0.92390  0.94062  1.0000
  S   S543      1.0  0.71873  0.53752  0.70873  1.0000
  C   C1610     1.0  0.71132  0.89752  0.95177  1.0000
  H   H1598     1.0  0.66000  0.78948  0.98067  1.0000
  C   C1611     1.0  0.70676  0.88215  0.94869  1.0000
  H   H1599     1.0  0.54271  0.81555  0.85057  1.0000
  Fe  Fe267     1.0  0.69662  0.53549  0.82054  1.0000
  S   S544      1.0  0.68175  0.55606  0.81065  1.0000
  S   S545      1.0  0.71284  0.54159  0.80397  1.0000
  C   C1612     1.0  0.50171  0.97674  0.76852  1.0000
  H   H1600     1.0  0.65251  0.77199  0.96157  1.0000
  Fe  Fe268     1.0  0.67810  0.52492  0.81038  1.0000
  S   S546      1.0  0.65789  0.64451  0.95537  1.0000
  Fe  Fe269     1.0  0.67441  0.54974  0.84548  1.0000
  S   S547      1.0  0.66368  0.57737  0.86015  1.0000
  Fe  Fe270     1.0  0.66848  0.84486  0.96806  1.0000
  S   S548      1.0  0.68972  0.53143  0.85532  1.0000
  S   S549      1.0  0.67607  0.67349  0.93898  1.0000
  Fe  Fe271     1.0  0.64658  0.67435  0.94349  1.0000
  S   S550      1.0  0.65744  0.68277  0.91198  1.0000
  S   S551      1.0  0.62972  0.67261  0.94667  1.0000
  Fe  Fe272     1.0  0.66925  0.65427  0.92492  1.0000
  S   S552      1.0  0.68022  0.63010  0.90591  1.0000
  Fe  Fe273     1.0  0.66317  0.70109  0.92866  1.0000
  S   S553      1.0  0.66531  0.73493  0.91425  1.0000
  H   H1601     1.0  0.70300  0.71343  0.94056  1.0000
  S   S554      1.0  0.65115  0.69520  0.95909  1.0000
  C   C1613     1.0  0.66802  0.58984  0.87554  1.0000
  C   C1614     1.0  0.66092  0.60679  0.88418  1.0000
  C   C1615     1.0  0.66441  0.61861  0.89450  1.0000
  C   C1616     1.0  0.67508  0.61365  0.89613  1.0000
  C   C1617     1.0  0.68209  0.59625  0.88812  1.0000
  C   C1618     1.0  0.67858  0.58437  0.87792  1.0000
  H   H1602     1.0  0.65273  0.61109  0.88251  1.0000
  H   H1603     1.0  0.65893  0.63193  0.90064  1.0000
  H   H1604     1.0  0.69033  0.59222  0.88944  1.0000
  H   H1605     1.0  0.68411  0.57131  0.87151  1.0000
  C   C1619     1.0  0.71726  0.53859  0.73512  1.0000
  C   C1620     1.0  0.72611  0.53744  0.74305  1.0000
  C   C1621     1.0  0.72478  0.53856  0.76418  1.0000
  C   C1622     1.0  0.71464  0.54015  0.77753  1.0000
  C   C1623     1.0  0.70590  0.54047  0.76972  1.0000
  C   C1624     1.0  0.70716  0.54005  0.74852  1.0000
  H   H1606     1.0  0.49497  0.98904  0.77362  1.0000
  H   H1607     1.0  0.52650  0.95268  0.77551  1.0000
  H   H1608     1.0  0.69809  0.54129  0.77986  1.0000
  H   H1609     1.0  0.70029  0.54065  0.74266  1.0000
  C   C1625     1.0  0.67783  0.75910  0.95806  1.0000
  C   C1626     1.0  0.67552  0.73867  0.96391  1.0000
  C   C1627     1.0  0.67163  0.73137  0.95050  1.0000
  C   C1628     1.0  0.66983  0.74461  0.93123  1.0000
  C   C1629     1.0  0.67172  0.76545  0.92561  1.0000
  C   C1630     1.0  0.67573  0.77271  0.93905  1.0000
  H   H1610     1.0  0.70171  0.73009  0.97009  1.0000
  H   H1611     1.0  0.67017  0.71532  0.95494  1.0000
  H   H1612     1.0  0.67029  0.77581  0.91071  1.0000
  H   H1613     1.0  0.67746  0.78856  0.93440  1.0000
  H   H1614     1.0  0.49101  0.93431  0.90686  1.0000
  H   H1615     1.0  0.72677  0.97649  0.78401  1.0000
  S   S555      1.0  0.61187  0.79088  0.95194  1.0000
  C   C1631     1.0  0.71078  0.87385  0.93038  1.0000
  C   C1632     1.0  0.71953  0.88055  0.91550  1.0000
  H   H1616     1.0  0.70695  0.90687  0.87112  1.0000
  C   C1633     1.0  0.72004  0.90433  0.93675  1.0000
  C   C1634     1.0  0.51931  0.95660  0.76946  1.0000
  S   S556      1.0  0.59744  0.76099  0.92796  1.0000
  H   H1617     1.0  0.72266  0.87418  0.90131  1.0000
  H   H1618     1.0  0.73159  0.53824  0.77009  1.0000
  C   C1635     1.0  0.50858  0.98806  0.68462  1.0000
  C   C1636     1.0  0.50978  0.95078  0.74652  1.0000
  C   C1637     1.0  0.73109  0.97615  0.79559  1.0000
  C   C1638     1.0  0.69127  0.53320  0.70780  1.0000
  H   H1619     1.0  0.68673  0.91810  0.93033  1.0000
  C   C1639     1.0  0.54500  0.83487  0.81892  1.0000
  C   C1640     1.0  0.69597  0.91139  0.90028  1.0000
  H   H1620     1.0  0.72748  0.89152  0.97864  1.0000
  H   H1621     1.0  0.62157  0.81097  0.98015  1.0000
  H   H1622     1.0  0.72601  0.86037  0.96691  1.0000
  C   C1641     1.0  0.70742  0.94078  0.89974  1.0000
  H   H1623     1.0  0.51548  0.80540  0.82269  1.0000
  C   C1642     1.0  0.54027  0.96304  0.79969  1.0000
  C   C1643     1.0  0.54658  0.94765  0.78824  1.0000
  C   C1644     1.0  0.54927  0.95305  0.76611  1.0000
  C   C1645     1.0  0.54559  0.97387  0.75537  1.0000
  H   H1624     1.0  0.50329  0.98846  0.80152  1.0000
  H   H1625     1.0  0.73394  0.53620  0.73284  1.0000
  H   H1626     1.0  0.54942  0.93155  0.79637  1.0000
  H   H1627     1.0  0.55392  0.94093  0.75730  1.0000
  C   C1646     1.0  0.72415  0.89571  0.91868  1.0000
  H   H1628     1.0  0.50941  0.94262  0.73484  1.0000
  C   C1647     1.0  0.51230  0.88680  0.77861  1.0000
  C   C1648     1.0  0.51030  0.89144  0.75827  1.0000
  C   C1649     1.0  0.50143  0.88621  0.75507  1.0000
  C   C1650     1.0  0.53125  0.83903  0.80026  1.0000
  H   H1629     1.0  0.70834  0.53488  0.67755  1.0000
  C   C1651     1.0  0.50536  0.87685  0.79581  1.0000
  H   H1630     1.0  0.51568  0.89895  0.74486  1.0000
  H   H1631     1.0  0.49998  0.88984  0.73928  1.0000
  C   C1652     1.0  0.49468  0.87561  0.77210  1.0000
  H   H1632     1.0  0.50679  0.87340  0.81158  1.0000
  C   C1653     1.0  0.56750  0.85656  0.90947  1.0000
  C   C1654     1.0  0.57136  0.83913  0.89953  1.0000
  C   C1655     1.0  0.56598  0.83668  0.88529  1.0000
  C   C1656     1.0  0.55673  0.85161  0.88082  1.0000
  C   C1657     1.0  0.55271  0.86866  0.89125  1.0000
  C   C1658     1.0  0.55805  0.87108  0.90553  1.0000
  H   H1633     1.0  0.57859  0.82774  0.90253  1.0000
  H   H1634     1.0  0.56912  0.82333  0.87747  1.0000
  H   H1635     1.0  0.54554  0.88013  0.88819  1.0000
  H   H1636     1.0  0.55492  0.88444  0.91333  1.0000
  C   C1659     1.0  0.60631  0.73667  0.93483  1.0000
  Fe  Fe274     1.0  0.66353  0.66621  0.96838  1.0000
  C   C1660     1.0  0.61105  0.69811  0.93814  1.0000
  C   C1661     1.0  0.62088  0.69744  0.94210  1.0000
  C   C1662     1.0  0.62341  0.71639  0.94269  1.0000
  C   C1663     1.0  0.49776  0.96191  0.68976  1.0000
  H   H1637     1.0  0.73448  0.94167  0.80534  1.0000
  H   H1638     1.0  0.60907  0.68348  0.93770  1.0000
  H   H1639     1.0  0.72013  0.95117  0.86238  1.0000
  S   S557      1.0  0.49547  0.94081  0.68150  1.0000
  C   C1664     1.0  0.63566  0.83590  0.92792  1.0000
  C   C1665     1.0  0.64664  0.82903  0.92693  1.0000
  C   C1666     1.0  0.65154  0.83661  0.93859  1.0000
  C   C1667     1.0  0.64554  0.85154  0.95085  1.0000
  C   C1668     1.0  0.63460  0.85879  0.95141  1.0000
  C   C1669     1.0  0.62963  0.85074  0.94025  1.0000
  H   H1640     1.0  0.65136  0.81755  0.91743  1.0000
  H   H1641     1.0  0.65994  0.83079  0.93807  1.0000
  Fe  Fe275     1.0  0.68358  0.80144  0.96986  1.0000
  H   H1642     1.0  0.62118  0.85638  0.94084  1.0000
  C   C1670     1.0  0.51898  0.94597  0.75441  1.0000
  H   H1643     1.0  0.63319  0.78294  0.96125  1.0000
  N   N136      1.0  0.57154  0.90575  0.87279  1.0000
  C   C1671     1.0  0.57710  0.88740  0.86592  1.0000
  C   C1672     1.0  0.56297  0.91824  0.86466  1.0000
  C   C1673     1.0  0.57412  0.88118  0.85050  1.0000
  C   C1674     1.0  0.55979  0.91252  0.84917  1.0000
  C   C1675     1.0  0.56538  0.89380  0.84216  1.0000
  C   C1676     1.0  0.57435  0.91160  0.88974  1.0000
  H   H1644     1.0  0.58358  0.87695  0.87305  1.0000
  H   H1645     1.0  0.55843  0.93254  0.87039  1.0000
  H   H1646     1.0  0.57824  0.86616  0.84577  1.0000
  H   H1647     1.0  0.55290  0.92231  0.84297  1.0000
  H   H1648     1.0  0.56277  0.88871  0.83075  1.0000
  H   H1649     1.0  0.58208  0.90157  0.89330  1.0000
  H   H1650     1.0  0.57501  0.92866  0.88532  1.0000
  H   H1651     1.0  0.56819  0.90890  0.90457  1.0000
  N   N137      1.0  0.69532  0.51955  0.69414  1.0000
  Fe  Fe276     1.0  0.73558  0.52177  0.69675  1.0000
  H   H1652     1.0  0.50916  0.83200  0.82750  1.0000
  C   C1677     1.0  0.49312  0.94813  0.89491  1.0000
  C   C1678     1.0  0.69312  0.92198  0.91692  1.0000
  H   H1653     1.0  0.70000  0.87709  0.96025  1.0000
  H   H1654     1.0  0.69703  0.94444  0.92997  1.0000
  S   S558      1.0  0.69346  0.50507  0.81823  1.0000
  H   H1655     1.0  0.71887  0.93054  0.85147  1.0000
  H   H1656     1.0  0.49548  0.93648  0.84981  1.0000
  N   N138      1.0  0.52598  0.82636  0.81734  1.0000
  H   H1657     1.0  0.72909  0.51204  0.82487  1.0000
  C   C1679     1.0  0.53002  0.81782  0.83520  1.0000
  C   C1680     1.0  0.50107  0.96620  0.75365  1.0000
  N   N139      1.0  0.69044  0.60688  0.82835  1.0000
  C   C1681     1.0  0.68016  0.61130  0.82598  1.0000
  C   C1682     1.0  0.69342  0.61864  0.83873  1.0000
  C   C1683     1.0  0.67260  0.62815  0.83371  1.0000
  C   C1684     1.0  0.68606  0.63560  0.84669  1.0000
  C   C1685     1.0  0.67558  0.64033  0.84416  1.0000
  C   C1686     1.0  0.69807  0.58836  0.82125  1.0000
  H   H1658     1.0  0.67761  0.60122  0.81890  1.0000
  H   H1659     1.0  0.70141  0.61449  0.84158  1.0000
  H   H1660     1.0  0.66435  0.63087  0.83270  1.0000
  H   H1661     1.0  0.68828  0.64424  0.85582  1.0000
  H   H1662     1.0  0.66968  0.65270  0.85123  1.0000
  H   H1663     1.0  0.69672  0.58615  0.80646  1.0000
  H   H1664     1.0  0.70643  0.59023  0.81779  1.0000
  H   H1665     1.0  0.69721  0.57358  0.83368  1.0000
  N   N140      1.0  0.63828  0.76874  0.89308  1.0000
  C   C1687     1.0  0.62821  0.78039  0.89182  1.0000
  C   C1688     1.0  0.64087  0.74732  0.89305  1.0000
  C   C1689     1.0  0.62054  0.77076  0.88976  1.0000
  C   C1690     1.0  0.63339  0.73716  0.89107  1.0000
  C   C1691     1.0  0.62318  0.74904  0.88926  1.0000
  C   C1692     1.0  0.64615  0.77896  0.89572  1.0000
  H   H1666     1.0  0.62603  0.79720  0.89256  1.0000
  H   H1667     1.0  0.64874  0.73790  0.89471  1.0000
  H   H1668     1.0  0.61248  0.77987  0.88924  1.0000
  H   H1669     1.0  0.63538  0.72005  0.89158  1.0000
  H   H1670     1.0  0.61717  0.74125  0.88845  1.0000
  H   H1671     1.0  0.64459  0.79645  0.88867  1.0000
  H   H1672     1.0  0.64590  0.77668  0.91281  1.0000
  H   H1673     1.0  0.65435  0.77195  0.88781  1.0000
  S   S559      1.0  0.67600  0.51866  0.78046  1.0000
  C   C1693     1.0  0.49875  0.98270  0.86361  1.0000
  H   H1674     1.0  0.72673  0.92377  0.87121  1.0000
  H   H1675     1.0  0.61807  0.75061  0.93950  1.0000
  Fe  Fe277     1.0  0.59890  0.81007  0.97261  1.0000
  H   H1676     1.0  0.54474  0.85422  0.78745  1.0000
  C   C1694     1.0  0.72575  0.85916  0.98345  1.0000
  H   H1677     1.0  0.71196  0.50667  0.68889  1.0000
  C   C1695     1.0  0.53716  0.98423  0.78901  1.0000
  H   H1678     1.0  0.67796  0.54404  0.73201  1.0000
  H   H1679     1.0  0.52580  0.93393  0.74907  1.0000
  N   N141      1.0  0.71006  0.93054  0.88333  1.0000
  C   C1696     1.0  0.70455  0.91579  0.88357  1.0000
  H   H1680     1.0  0.49390  0.97004  0.74757  1.0000
  C   C1697     1.0  0.69888  0.93677  0.91670  1.0000
  C   C1698     1.0  0.71938  0.93416  0.86629  1.0000
  C   C1699     1.0  0.50721  0.96944  0.68038  1.0000
  H   H1681     1.0  0.49142  0.86293  0.80577  1.0000
  H   H1682     1.0  0.59636  0.71817  0.93059  1.0000
  H   H1683     1.0  0.50983  0.93313  0.88879  1.0000
  C   C1700     1.0  0.61603  0.73599  0.93941  1.0000
  H   H1684     1.0  0.69596  0.54382  0.70876  1.0000
  H   H1685     1.0  0.70656  0.51586  0.66525  1.0000
  S   S560      1.0  0.66902  0.52053  0.84431  1.0000
  C   C1701     1.0  0.54080  0.84356  0.80081  1.0000
  C   C1702     1.0  0.69986  0.70577  0.95670  1.0000
  C   C1703     1.0  0.69917  0.71505  0.97350  1.0000
  H   H1686     1.0  0.51492  0.96426  0.86066  1.0000
  S   S561      1.0  0.54790  0.97973  0.72774  1.0000
  C   C1704     1.0  0.73242  0.99536  0.79832  1.0000
  C   C1705     1.0  0.69604  0.68711  0.96079  1.0000
  H   H1687     1.0  0.52573  0.80820  0.84895  1.0000
  C   C1706     1.0  0.65154  0.79387  0.98082  1.0000
  H   H1688     1.0  0.51399  0.82792  0.80091  1.0000
  H   H1689     1.0  0.69187  0.89910  0.90083  1.0000
  C   C1707     1.0  0.50664  0.96471  0.86883  1.0000
  C   C1708     1.0  0.53974  0.98961  0.76682  1.0000
  C   C1709     1.0  0.67935  0.50554  0.70627  1.0000
  C   C1710     1.0  0.49107  0.99166  0.70763  1.0000
  H   H1690     1.0  0.51338  0.96118  0.66934  1.0000
  Fe  Fe278     1.0  0.68487  0.50296  0.85192  1.0000
  S   S562      1.0  0.68373  0.76648  0.97459  1.0000
  H   H1691     1.0  0.67691  0.72827  0.97873  1.0000
  H   H1692     1.0  0.70232  0.49780  0.76821  1.0000
  C   C1711     1.0  0.68960  0.50551  0.69359  1.0000
  C   C1712     1.0  0.73546  0.95648  0.80762  1.0000
  C   C1713     1.0  0.51130  0.98294  0.79187  1.0000
  C   C1714     1.0  0.73600  0.50366  0.81438  1.0000
  H   H1693     1.0  0.51629  0.97231  0.80305  1.0000
  C   C1715     1.0  0.67502  0.51990  0.71974  1.0000
  H   H1694     1.0  0.68845  0.66361  0.98489  1.0000
  H   H1695     1.0  0.73078  0.90094  0.90696  1.0000
  C   C1716     1.0  0.48985  0.97268  0.70398  1.0000
  H   H1696     1.0  0.69632  0.67999  0.94788  1.0000
  H   H1697     1.0  0.63502  0.64830  0.98756  1.0000
  H   H1698     1.0  0.61934  0.67809  0.98849  1.0000
  H   H1699     1.0  0.61293  0.71661  0.98900  1.0000
  C   C1717     1.0  0.89913  0.34041  0.05308  1.0000
  C   C1718     1.0  0.75209  0.35521  0.30686  1.0000
  C   C1719     1.0  0.82458  0.13914  0.16731  1.0000
  Fe  Fe279     1.0  0.80339  0.02941  0.18818  1.0000
  S   S563      1.0  0.79623  0.03298  0.22145  1.0000
  S   S564      1.0  0.79469  0.01711  0.17137  1.0000
  Fe  Fe280     1.0  0.82161  0.05092  0.18376  1.0000
  S   S565      1.0  0.81611  0.05614  0.21696  1.0000
  S   S566      1.0  0.83463  0.06371  0.15753  1.0000
  Fe  Fe281     1.0  0.81303  0.02266  0.22583  1.0000
  Fe  Fe282     1.0  0.79973  0.06575  0.21033  1.0000
  S   S567      1.0  0.78805  0.09489  0.21922  1.0000
  S   S568      1.0  0.82012  0.01623  0.19310  1.0000
  S   S569      1.0  0.80533  0.06338  0.17646  1.0000
  Fe  Fe283     1.0  0.86249  0.15978  0.12322  1.0000
  S   S570      1.0  0.85938  0.15632  0.09354  1.0000
  S   S571      1.0  0.85868  0.13544  0.15385  1.0000
  Fe  Fe284     1.0  0.86945  0.20267  0.10172  1.0000
  S   S572      1.0  0.86637  0.20241  0.07042  1.0000
  S   S573      1.0  0.87382  0.23350  0.10223  1.0000
  Fe  Fe285     1.0  0.85164  0.19096  0.08977  1.0000
  S   S574      1.0  0.83580  0.19816  0.08137  1.0000
  Fe  Fe286     1.0  0.87437  0.16773  0.07715  1.0000
  S   S575      1.0  0.88566  0.15049  0.05262  1.0000
  S   S576      1.0  0.85375  0.19421  0.12049  1.0000
  S   S577      1.0  0.87853  0.16831  0.10723  1.0000
  Fe  Fe287     1.0  0.81959  0.36163  0.07968  1.0000
  S   S578      1.0  0.80717  0.34248  0.09682  1.0000
  S   S579      1.0  0.81541  0.39298  0.05746  1.0000
  Fe  Fe288     1.0  0.83752  0.32683  0.09493  1.0000
  S   S580      1.0  0.82671  0.30422  0.11302  1.0000
  S   S581      1.0  0.85535  0.31621  0.08876  1.0000
  Fe  Fe289     1.0  0.81925  0.31535  0.08484  1.0000
  S   S582      1.0  0.81391  0.29591  0.06895  1.0000
  Fe  Fe290     1.0  0.81565  0.33349  0.12348  1.0000
  S   S583      1.0  0.80636  0.32988  0.15723  1.0000
  S   S584      1.0  0.83106  0.33519  0.06572  1.0000
  S   S585      1.0  0.82712  0.35545  0.10744  1.0000
  Fe  Fe291     1.0  0.73967  0.41393  0.23191  1.0000
  H   H1700     1.0  0.84656  0.21723  0.00841  1.0000
  N   N142      1.0  0.92722  0.39745  0.22026  1.0000
  C   C1720     1.0  0.75464  0.08218  0.24876  1.0000
  S   S586      1.0  0.76673  0.41192  0.24351  1.0000
  N   N143      1.0  0.79407  0.36370  0.22563  1.0000
  Fe  Fe292     1.0  0.75178  0.43731  0.24641  1.0000
  S   S587      1.0  0.75033  0.46779  0.25611  1.0000
  Fe  Fe293     1.0  0.76330  0.41112  0.21298  1.0000
  S   S588      1.0  0.77588  0.41377  0.18288  1.0000
  H   H1701     1.0  0.81801  0.10311  0.18187  1.0000
  C   C1721     1.0  0.82737  0.26284  0.00691  1.0000
  Fe  Fe294     1.0  0.91989  0.32088  0.10224  1.0000
  S   S589      1.0  0.92713  0.29452  0.12642  1.0000
  S   S590      1.0  0.92780  0.32797  0.06772  1.0000
  Fe  Fe295     1.0  0.89864  0.32998  0.13263  1.0000
  S   S591      1.0  0.90435  0.30492  0.15962  1.0000
  S   S592      1.0  0.88127  0.34726  0.13630  1.0000
  Fe  Fe296     1.0  0.91951  0.31787  0.14810  1.0000
  S   S593      1.0  0.92900  0.32035  0.17087  1.0000
  Fe  Fe297     1.0  0.91145  0.28405  0.13575  1.0000
  S   S594      1.0  0.90910  0.25020  0.13988  1.0000
  S   S595      1.0  0.91308  0.34482  0.12305  1.0000
  S   S596      1.0  0.90512  0.30836  0.10980  1.0000
  C   C1722     1.0  0.86548  0.15257  0.01595  1.0000
  H   H1702     1.0  0.79640  0.03701  0.26703  1.0000
  H   H1703     1.0  0.86863  0.07588  0.14608  1.0000
  C   C1723     1.0  0.80913  0.34982  0.20021  1.0000
  H   H1704     1.0  0.77782  0.36227  0.23853  1.0000
  H   H1705     1.0  0.86518  0.16887  0.04002  1.0000
  H   H1706     1.0  0.81435  0.33627  0.19393  1.0000
  Fe  Fe298     1.0  0.95770  0.43119  0.22232  1.0000
  S   S597      1.0  0.94601  0.45802  0.23590  1.0000
  H   H1707     1.0  0.88987  0.26844  0.17703  1.0000
  C   C1724     1.0  0.88123  0.12498  0.00853  1.0000
  C   C1725     1.0  0.84001  0.37626  0.01967  1.0000
  C   C1726     1.0  0.94280  0.47476  0.29101  1.0000
  C   C1727     1.0  0.94198  0.47504  0.27062  1.0000
  C   C1728     1.0  0.94664  0.45691  0.26188  1.0000
  C   C1729     1.0  0.95186  0.43827  0.27381  1.0000
  H   H1708     1.0  0.77290  0.02597  0.16874  1.0000
  H   H1709     1.0  0.83062  0.18764  0.02154  1.0000
  S   S598      1.0  0.74181  0.07711  0.25916  1.0000
  H   H1710     1.0  0.95424  0.49465  0.23288  1.0000
  H   H1711     1.0  0.74915  0.11382  0.23106  1.0000
  H   H1712     1.0  0.85105  0.27393  0.15018  1.0000
  C   C1730     1.0  0.85907  0.28148  0.00831  1.0000
  C   C1731     1.0  0.90138  0.33139  0.03546  1.0000
  C   C1732     1.0  0.77381  0.08873  0.29484  1.0000
  H   H1713     1.0  0.85401  0.06265  0.11684  1.0000
  C   C1733     1.0  0.93498  0.34105  0.17167  1.0000
  C   C1734     1.0  0.94111  0.33718  0.18690  1.0000
  C   C1735     1.0  0.94634  0.35275  0.18768  1.0000
  C   C1736     1.0  0.94550  0.37247  0.17322  1.0000
  C   C1737     1.0  0.93933  0.37639  0.15805  1.0000
  C   C1738     1.0  0.93409  0.36085  0.15729  1.0000
  H   H1714     1.0  0.94190  0.32190  0.19806  1.0000
  H   H1715     1.0  0.95112  0.34935  0.19932  1.0000
  H   H1716     1.0  0.93864  0.39155  0.14670  1.0000
  H   H1717     1.0  0.92943  0.36410  0.14547  1.0000
  C   C1739     1.0  0.90738  0.34076  0.06200  1.0000
  C   C1740     1.0  0.91794  0.33193  0.05347  1.0000
  C   C1741     1.0  0.92030  0.32418  0.03491  1.0000
  H   H1718     1.0  0.90550  0.34730  0.07599  1.0000
  H   H1719     1.0  0.92848  0.31735  0.02820  1.0000
  H   H1720     1.0  0.86515  0.30184  0.14327  1.0000
  H   H1721     1.0  0.86015  0.27845  0.12476  1.0000
  H   H1722     1.0  0.85944  0.25168  0.13876  1.0000
  C   C1742     1.0  0.91200  0.32388  0.02588  1.0000
  C   C1743     1.0  0.80107  0.34659  0.21840  1.0000
  C   C1744     1.0  0.76957  0.00578  0.24848  1.0000
  C   C1745     1.0  0.86212  0.32699  0.10095  1.0000
  C   C1746     1.0  0.85678  0.33804  0.11716  1.0000
  C   C1747     1.0  0.86265  0.34501  0.12752  1.0000
  C   C1748     1.0  0.87382  0.34110  0.12155  1.0000
  C   C1749     1.0  0.87895  0.33140  0.10441  1.0000
  C   C1750     1.0  0.87319  0.32401  0.09442  1.0000
  H   H1723     1.0  0.84819  0.34059  0.12218  1.0000
  H   H1724     1.0  0.85856  0.35289  0.14053  1.0000
  H   H1725     1.0  0.88735  0.33004  0.09844  1.0000
  H   H1726     1.0  0.87735  0.31615  0.08142  1.0000
  C   C1751     1.0  0.79678  0.35296  0.16240  1.0000
  C   C1752     1.0  0.78857  0.35140  0.18061  1.0000
  C   C1753     1.0  0.78169  0.37001  0.18646  1.0000
  C   C1754     1.0  0.78310  0.39019  0.17422  1.0000
  C   C1755     1.0  0.79102  0.39169  0.15557  1.0000
  C   C1756     1.0  0.79782  0.37310  0.14958  1.0000
  H   H1727     1.0  0.78770  0.33580  0.19044  1.0000
  H   H1728     1.0  0.77552  0.36875  0.20072  1.0000
  H   H1729     1.0  0.79210  0.40729  0.14601  1.0000
  H   H1730     1.0  0.80411  0.37441  0.13548  1.0000
  H   H1731     1.0  0.93060  0.43024  0.24753  1.0000
  C   C1757     1.0  0.80676  0.36718  0.01814  1.0000
  C   C1758     1.0  0.81066  0.36939  0.03463  1.0000
  C   C1759     1.0  0.81023  0.38982  0.03740  1.0000
  C   C1760     1.0  0.80576  0.40799  0.02377  1.0000
  H   H1732     1.0  0.83971  0.18913  0.03652  1.0000
  H   H1733     1.0  0.93302  0.36381  0.22725  1.0000
  H   H1734     1.0  0.81392  0.35524  0.04523  1.0000
  H   H1735     1.0  0.80541  0.42382  0.02579  1.0000
  N   N144      1.0  0.75748  0.02477  0.18868  1.0000
  C   C1761     1.0  0.88401  0.23725  0.11219  1.0000
  C   C1762     1.0  0.89084  0.22022  0.12263  1.0000
  C   C1763     1.0  0.89856  0.22437  0.13086  1.0000
  C   C1764     1.0  0.89952  0.24551  0.12873  1.0000
  C   C1765     1.0  0.89268  0.26242  0.11821  1.0000
  C   C1766     1.0  0.88503  0.25831  0.10993  1.0000
  H   H1736     1.0  0.89011  0.20391  0.12456  1.0000
  H   H1737     1.0  0.90376  0.21113  0.13907  1.0000
  H   H1738     1.0  0.89304  0.27875  0.11684  1.0000
  H   H1739     1.0  0.87973  0.27164  0.10205  1.0000
  C   C1767     1.0  0.82955  0.22511  0.07983  1.0000
  C   C1768     1.0  0.83461  0.23968  0.08275  1.0000
  C   C1769     1.0  0.82962  0.26148  0.08032  1.0000
  C   C1770     1.0  0.81978  0.26865  0.07434  1.0000
  C   C1771     1.0  0.81468  0.25398  0.07186  1.0000
  C   C1772     1.0  0.81947  0.23216  0.07503  1.0000
  H   H1740     1.0  0.84235  0.23417  0.08678  1.0000
  H   H1741     1.0  0.83343  0.27274  0.08275  1.0000
  H   H1742     1.0  0.80699  0.25948  0.06757  1.0000
  H   H1743     1.0  0.81544  0.22078  0.07343  1.0000
  C   C1773     1.0  0.86968  0.15667  0.03120  1.0000
  C   C1774     1.0  0.87978  0.14521  0.03467  1.0000
  C   C1775     1.0  0.88550  0.12937  0.02332  1.0000
  H   H1744     1.0  0.91380  0.31696  0.01217  1.0000
  S   S599      1.0  0.97481  0.42460  0.22397  1.0000
  H   H1745     1.0  0.89328  0.12042  0.02595  1.0000
  H   H1746     1.0  0.78688  0.34377  0.25399  1.0000
  C   C1776     1.0  0.84000  0.08511  0.15783  1.0000
  C   C1777     1.0  0.84268  0.08674  0.17593  1.0000
  C   C1778     1.0  0.84829  0.10243  0.17465  1.0000
  C   C1779     1.0  0.85108  0.11676  0.15538  1.0000
  C   C1780     1.0  0.84797  0.11555  0.13760  1.0000
  C   C1781     1.0  0.84258  0.09969  0.13875  1.0000
  H   H1747     1.0  0.84085  0.07536  0.19068  1.0000
  H   H1748     1.0  0.85064  0.10322  0.18853  1.0000
  H   H1749     1.0  0.84990  0.12647  0.12278  1.0000
  H   H1750     1.0  0.84053  0.09856  0.12468  1.0000
  H   H1751     1.0  0.86416  0.37814  0.04727  1.0000
  C   C1782     1.0  0.75603  0.10167  0.23486  1.0000
  C   C1783     1.0  0.76631  0.10561  0.22604  1.0000
  C   C1784     1.0  0.77523  0.08977  0.23050  1.0000
  C   C1785     1.0  0.77383  0.07017  0.24427  1.0000
  C   C1786     1.0  0.76354  0.06651  0.25369  1.0000
  H   H1752     1.0  0.94505  0.36571  0.08647  1.0000
  H   H1753     1.0  0.76735  0.12082  0.21548  1.0000
  H   H1754     1.0  0.78064  0.05805  0.24816  1.0000
  H   H1755     1.0  0.76249  0.05150  0.26458  1.0000
  H   H1756     1.0  0.93225  0.45420  0.21181  1.0000
  Fe  Fe299     1.0  0.89416  0.31982  0.99553  1.0000
  C   C1787     1.0  0.73868  0.49310  0.19282  1.0000
  N   N145      1.0  0.85526  0.36366  0.03560  1.0000
  C   C1788     1.0  0.84510  0.37542  0.03559  1.0000
  C   C1789     1.0  0.86064  0.35285  0.01984  1.0000
  H   H1757     1.0  0.84351  0.29573  0.00139  1.0000
  S   S600      1.0  0.74097  0.41469  0.26406  1.0000
  C   C1790     1.0  0.77077  0.07572  0.31462  1.0000
  H   H1758     1.0  0.74792  0.00798  0.18117  1.0000
  C   C1791     1.0  0.75364  0.33503  0.32046  1.0000
  C   C1792     1.0  0.86950  0.08435  0.09411  1.0000
  C   C1793     1.0  0.79341  0.23846  0.01026  1.0000
  H   H1759     1.0  0.84150  0.36557  0.99132  1.0000
  H   H1760     1.0  0.93776  0.48938  0.26160  1.0000
  H   H1761     1.0  0.79793  0.41992  0.99749  1.0000
  H   H1762     1.0  0.84082  0.38421  0.04793  1.0000
  C   C1794     1.0  0.81873  0.25405  0.01936  1.0000
  N   N146      1.0  0.78251  0.36342  0.04250  1.0000
  C   C1795     1.0  0.78204  0.35187  0.02886  1.0000
  C   C1796     1.0  0.78648  0.35328  0.06023  1.0000
  C   C1797     1.0  0.78583  0.32961  0.03260  1.0000
  C   C1798     1.0  0.79027  0.33107  0.06449  1.0000
  C   C1799     1.0  0.79003  0.31922  0.05048  1.0000
  C   C1800     1.0  0.77834  0.38667  0.03870  1.0000
  H   H1763     1.0  0.77895  0.35990  0.01473  1.0000
  H   H1764     1.0  0.78691  0.36241  0.07101  1.0000
  H   H1765     1.0  0.83198  0.38570  0.01962  1.0000
  H   H1766     1.0  0.79353  0.32311  0.07844  1.0000
  S   S601      1.0  0.75344  0.38611  0.22746  1.0000
  H   H1767     1.0  0.78350  0.39478  0.04297  1.0000
  H   H1768     1.0  0.77830  0.39362  0.02169  1.0000
  H   H1769     1.0  0.77011  0.39032  0.04822  1.0000
  C   C1801     1.0  0.78527  0.36014  0.24394  1.0000
  H   H1770     1.0  0.80025  0.33033  0.22622  1.0000
  H   H1771     1.0  0.78388  0.37163  0.25422  1.0000
  S   S602      1.0  0.77356  0.00706  0.31381  1.0000
  H   H1772     1.0  0.91881  0.37261  0.23674  1.0000
  C   C1802     1.0  0.85009  0.28987  0.04829  1.0000
  H   H1773     1.0  0.93914  0.48877  0.29765  1.0000
  C   C1803     1.0  0.84374  0.29536  0.03338  1.0000
  H   H1774     1.0  0.92421  0.37265  0.20919  1.0000
  H   H1775     1.0  0.76588  0.02205  0.24182  1.0000
  H   H1776     1.0  0.81341  0.22509  0.03631  1.0000
  H   H1777     1.0  0.84659  0.29351  0.06381  1.0000
  H   H1778     1.0  0.78561  0.32049  0.02160  1.0000
  C   C1804     1.0  0.78563  0.04740  0.30494  1.0000
  C   C1805     1.0  0.92807  0.41063  0.20055  1.0000
  H   H1779     1.0  0.97352  0.45248  0.30001  1.0000
  C   C1806     1.0  0.75460  0.44017  0.29266  1.0000
  N   N147      1.0  0.98403  0.47061  0.27619  1.0000
  N   N148      1.0  0.90590  0.26454  0.06835  1.0000
  C   C1807     1.0  0.90882  0.24274  0.07466  1.0000
  C   C1808     1.0  0.91150  0.27756  0.07127  1.0000
  C   C1809     1.0  0.91739  0.23351  0.08472  1.0000
  C   C1810     1.0  0.92018  0.26890  0.08103  1.0000
  C   C1811     1.0  0.92305  0.24674  0.08800  1.0000
  C   C1812     1.0  0.89692  0.27416  0.05783  1.0000
  H   H1780     1.0  0.90433  0.23238  0.07252  1.0000
  H   H1781     1.0  0.90912  0.29478  0.06645  1.0000
  H   H1782     1.0  0.91944  0.21629  0.09043  1.0000
  H   H1783     1.0  0.92449  0.27940  0.08353  1.0000
  H   H1784     1.0  0.92951  0.23987  0.09633  1.0000
  H   H1785     1.0  0.89211  0.28887  0.06350  1.0000
  H   H1786     1.0  0.89993  0.27873  0.04045  1.0000
  H   H1787     1.0  0.89149  0.26299  0.06126  1.0000
  N   N149      1.0  0.86736  0.26787  0.15140  1.0000
  C   C1813     1.0  0.86953  0.28696  0.15109  1.0000
  C   C1814     1.0  0.87281  0.24899  0.16153  1.0000
  C   C1815     1.0  0.87759  0.28752  0.16040  1.0000
  C   C1816     1.0  0.88088  0.24894  0.17117  1.0000
  C   C1817     1.0  0.88334  0.26833  0.17039  1.0000
  C   C1818     1.0  0.85907  0.26793  0.14088  1.0000
  H   H1788     1.0  0.87122  0.23380  0.16155  1.0000
  H   H1789     1.0  0.87948  0.30272  0.15950  1.0000
  H   H1790     1.0  0.88553  0.23393  0.17838  1.0000
  H   H1791     1.0  0.86714  0.34921  0.05402  1.0000
  C   C1819     1.0  0.93476  0.38952  0.99307  1.0000
  C   C1820     1.0  0.87851  0.10825  0.10042  1.0000
  C   C1821     1.0  0.75473  0.47294  0.31127  1.0000
  H   H1792     1.0  0.75083  0.48350  0.21093  1.0000
  C   C1822     1.0  0.77670  0.05491  0.31973  1.0000
  C   C1823     1.0  0.82025  0.23190  0.02735  1.0000
  H   H1793     1.0  0.87687  0.10803  0.06955  1.0000
  H   H1794     1.0  0.76107  0.07070  0.20938  1.0000
  N   N150      1.0  0.83021  0.21904  0.02398  1.0000
  C   C1824     1.0  0.83872  0.22751  0.01157  1.0000
  H   H1795     1.0  0.91938  0.36743  0.00919  1.0000
  C   C1825     1.0  0.79477  0.38421  0.21496  1.0000
  H   H1796     1.0  0.87353  0.26839  0.01970  1.0000
  S   S603      1.0  0.95658  0.39662  0.22951  1.0000
  C   C1826     1.0  0.83167  0.19592  0.03285  1.0000
  C   C1827     1.0  0.74961  0.03311  0.20396  1.0000
  C   C1828     1.0  0.87616  0.09916  0.12201  1.0000
  S   S604      1.0  0.74905  0.01873  0.29166  1.0000
  H   H1797     1.0  0.97251  0.40072  0.27173  1.0000
  C   C1829     1.0  0.80991  0.37068  0.18929  1.0000
  C   C1830     1.0  0.77780  0.00211  0.25893  1.0000
  H   H1798     1.0  0.87118  0.28827  0.05680  1.0000
  S   S605      1.0  0.95217  0.39259  0.17274  1.0000
  C   C1831     1.0  0.80158  0.40578  0.00770  1.0000
  C   C1832     1.0  0.84535  0.36497  0.00378  1.0000
  H   H1799     1.0  0.79320  0.30202  0.05341  1.0000
  C   C1833     1.0  0.92573  0.37558  0.22352  1.0000
  H   H1800     1.0  0.78892  0.39779  0.22000  1.0000
  S   S606      1.0  0.89066  0.32792  0.02730  1.0000
  S   S607      1.0  0.96114  0.43501  0.18722  1.0000
  H   H1801     1.0  0.82620  0.27992  0.00028  1.0000
  H   H1802     1.0  0.86229  0.27236  0.07552  1.0000
  C   C1834     1.0  0.80271  0.38801  0.19671  1.0000
  H   H1803     1.0  0.81577  0.37337  0.17459  1.0000
  H   H1804     1.0  0.93133  0.38990  0.01001  1.0000
  C   C1835     1.0  0.86064  0.36373  0.05185  1.0000
  Fe  Fe300     1.0  0.75570  0.38911  0.25833  1.0000
  C   C1836     1.0  0.94801  0.35483  0.09990  1.0000
  H   H1805     1.0  0.78563  0.24138  0.02066  1.0000
  H   H1806     1.0  0.83533  0.30276  0.03744  1.0000
  H   H1807     1.0  0.89564  0.18121  0.00301  1.0000
  C   C1837     1.0  0.76007  0.05772  0.20371  1.0000
  C   C1838     1.0  0.94509  0.33502  0.10801  1.0000
  S   S608      1.0  0.76063  0.35905  0.28173  1.0000
  H   H1808     1.0  0.80290  0.40429  0.18779  1.0000
  H   H1809     1.0  0.89095  0.34661  0.06026  1.0000
  Fe  Fe301     1.0  0.96118  0.39967  0.19403  1.0000
  C   C1839     1.0  0.84830  0.29125  0.01321  1.0000
  H   H1810     1.0  0.80569  0.11895  0.17463  1.0000
  H   H1811     1.0  0.79004  0.03099  0.30880  1.0000
  H   H1812     1.0  0.94650  0.30590  0.13213  1.0000
  C   C1840     1.0  0.95470  0.36051  0.10929  1.0000
  C   C1841     1.0  0.94890  0.32114  0.12532  1.0000
  H   H1813     1.0  0.95692  0.37596  0.10294  1.0000
  H   H1814     1.0  0.81484  0.13390  0.12838  1.0000
  H   H1815     1.0  0.82346  0.16458  0.10887  1.0000
  H   H1816     1.0  0.79566  0.20406  0.02010  1.0000
  C   C1842     1.0  0.86514  0.27589  0.02372  1.0000
  H   H1817     1.0  0.82581  0.19244  0.04798  1.0000
  C   C1843     1.0  0.87057  0.08257  0.12921  1.0000
  C   C1844     1.0  0.94799  0.45615  0.30300  1.0000
  S   S609      1.0  0.81464  0.00223  0.25808  1.0000
  H   H1818     1.0  0.75455  0.42744  0.28558  1.0000
  C   C1845     1.0  0.75313  0.46145  0.28127  1.0000
  C   C1846     1.0  0.81893  0.14018  0.13644  1.0000
  C   C1847     1.0  0.82376  0.15750  0.12534  1.0000
  H   H1819     1.0  0.86688  0.07876  0.08306  1.0000
  N   N151      1.0  0.95831  0.34686  0.12640  1.0000
  C   C1848     1.0  0.95558  0.32730  0.13431  1.0000
  H   H1820     1.0  0.98343  0.46162  0.20378  1.0000
  C   C1849     1.0  0.96554  0.35288  0.13563  1.0000
  H   H1821     1.0  0.95830  0.31654  0.14803  1.0000
  H   H1822     1.0  0.97390  0.34854  0.12686  1.0000
  H   H1823     1.0  0.85772  0.16142  0.01329  1.0000
  H   H1824     1.0  0.96498  0.34474  0.15258  1.0000
  C   C1850     1.0  0.95240  0.43779  0.29449  1.0000
  S   S610      1.0  0.97889  0.39062  0.19306  1.0000
  Fe  Fe302     1.0  0.97830  0.42560  0.18940  1.0000
  H   H1825     1.0  0.81528  0.10211  0.15779  1.0000
  N   N152      1.0  0.81949  0.13109  0.15709  1.0000
  C   C1851     1.0  0.81432  0.11303  0.16842  1.0000
  C   C1852     1.0  0.75328  0.47782  0.29051  1.0000
  S   S611      1.0  0.74926  0.43868  0.21464  1.0000
  H   H1826     1.0  0.82510  0.13186  0.18361  1.0000
  H   H1827     1.0  0.87845  0.10526  0.13317  1.0000
  H   H1828     1.0  0.83296  0.17885  0.12701  1.0000
  C   C1853     1.0  0.82910  0.16558  0.13554  1.0000
  H   H1829     1.0  0.97918  0.49063  0.24834  1.0000
  H   H1830     1.0  0.76911  0.10476  0.29048  1.0000
  H   H1831     1.0  0.96344  0.37041  0.13517  1.0000
  H   H1832     1.0  0.86276  0.27836  0.99264  1.0000
  H   H1833     1.0  0.97501  0.45011  0.27325  1.0000
  C   C1854     1.0  0.76664  0.03248  0.18086  1.0000
  S   S612      1.0  0.80875  0.32044  0.99138  1.0000
  N   N153      1.0  0.78853  0.06023  0.28557  1.0000
  S   S613      1.0  0.81626  0.18686  0.99725  1.0000
  C   C1855     1.0  0.82952  0.15639  0.15665  1.0000
  C   C1856     1.0  0.80916  0.21341  0.99660  1.0000
  H   H1834     1.0  0.83391  0.16220  0.16453  1.0000
  H   H1835     1.0  0.85497  0.36362  0.06744  1.0000
  H   H1836     1.0  0.77546  0.05479  0.18216  1.0000
  H   H1837     1.0  0.97645  0.41442  0.29894  1.0000
  C   C1857     1.0  0.79909  0.21735  0.00994  1.0000
  N   N154      1.0  0.86060  0.28000  0.04345  1.0000
  H   H1838     1.0  0.93986  0.33049  0.10092  1.0000
  C   C1858     1.0  0.97999  0.39415  0.27670  1.0000
  H   H1839     1.0  0.76127  0.00562  0.16557  1.0000
  H   H1840     1.0  0.88575  0.11271  0.99980  1.0000
  Fe  Fe303     1.0  0.97428  0.39034  0.22795  1.0000
  H   H1841     1.0  0.87323  0.25973  0.05788  1.0000
  H   H1842     1.0  0.80701  0.35137  0.01630  1.0000
  H   H1843     1.0  0.86652  0.04329  0.11764  1.0000
  H   H1844     1.0  0.94137  0.37516  0.99189  1.0000
  H   H1845     1.0  0.84411  0.25615  0.99235  1.0000
  H   H1846     1.0  0.95536  0.42415  0.26722  1.0000
  C   C1859     1.0  0.92808  0.40429  0.23702  1.0000
  H   H1847     1.0  0.92763  0.39371  0.25256  1.0000
  C   C1860     1.0  0.92991  0.43119  0.19720  1.0000
  C   C1861     1.0  0.87130  0.13676  0.00448  1.0000
  C   C1862     1.0  0.78281  0.08074  0.28047  1.0000
  C   C1863     1.0  0.92976  0.42490  0.23429  1.0000
  C   C1864     1.0  0.86146  0.05799  0.12291  1.0000
  H   H1848     1.0  0.93095  0.44128  0.18142  1.0000
  H   H1849     1.0  0.78504  0.09091  0.26504  1.0000
  C   C1865     1.0  0.80210  0.38539  0.00479  1.0000
  C   C1866     1.0  0.76810  0.04896  0.18831  1.0000
  H   H1850     1.0  0.96720  0.47423  0.28214  1.0000
  H   H1851     1.0  0.74032  0.47778  0.18845  1.0000
  C   C1867     1.0  0.86719  0.27487  0.05909  1.0000
  H   H1852     1.0  0.74446  0.05648  0.22372  1.0000
  C   C1868     1.0  0.93071  0.43836  0.21422  1.0000
  H   H1853     1.0  0.86881  0.34402  0.01949  1.0000
  H   H1854     1.0  0.92762  0.40513  0.18713  1.0000
  H   H1855     1.0  0.85896  0.05407  0.14048  1.0000
  C   C1869     1.0  0.75635  0.00659  0.18168  1.0000
  C   C1870     1.0  0.83742  0.24951  0.00267  1.0000
  C   C1871     1.0  0.79771  0.05157  0.27023  1.0000
  S   S614      1.0  0.98436  0.36668  0.24970  1.0000
  H   H1856     1.0  0.90643  0.36363  0.99104  1.0000
  Fe  Fe304     1.0  0.75611  0.02151  0.31700  1.0000
  H   H1857     1.0  0.74243  0.38722  0.30307  1.0000
  H   H1858     1.0  0.74037  0.34586  0.27178  1.0000
  C   C1872     1.0  0.87515  0.10085  0.08635  1.0000
  S   S615      1.0  0.96664  0.49429  0.32138  1.0000
  N   N155      1.0  0.86726  0.07547  0.11531  1.0000
  H   H1859     1.0  0.88281  0.12119  0.09459  1.0000
  H   H1860     1.0  0.79902  0.06329  0.25492  1.0000
  C   C1873     1.0  0.75075  0.04977  0.21167  1.0000
  H   H1861     1.0  0.87353  0.22553  0.99434  1.0000
  C   C1874     1.0  0.98529  0.48541  0.25749  1.0000
  C   C1875     1.0  0.91940  0.37613  0.99299  1.0000
  C   C1876     1.0  0.98226  0.40197  0.29202  1.0000
  S   S616      1.0  0.74983  0.05682  0.31318  1.0000
  Fe  Fe305     1.0  0.74156  0.05339  0.29003  1.0000
  C   C1877     1.0  0.79778  0.25577  0.99729  1.0000
  H   H1862     1.0  0.75497  0.48562  0.31822  1.0000
  C   C1878     1.0  0.74355  0.37148  0.31319  1.0000
  H   H1863     1.0  0.80508  0.04696  0.27651  1.0000
  H   H1864     1.0  0.95635  0.42328  0.30377  1.0000
  S   S617      1.0  0.79068  0.28209  0.99894  1.0000
  H   H1865     1.0  0.74236  0.02696  0.21011  1.0000
  C   C1879     1.0  0.97450  0.46139  0.28321  1.0000
  H   H1866     1.0  0.76027  0.32243  0.31575  1.0000
  H   H1867     1.0  0.81084  0.26424  0.02232  1.0000
  H   H1868     1.0  0.86001  0.34472  0.99132  1.0000
  C   C1880     1.0  0.85573  0.35319  0.00384  1.0000
  C   C1881     1.0  0.75600  0.43531  0.31346  1.0000
  H   H1869     1.0  0.78052  0.01544  0.26057  1.0000
  H   H1870     1.0  0.75222  0.49428  0.28170  1.0000
  C   C1882     1.0  0.98720  0.37719  0.26851  1.0000
  H   H1871     1.0  0.98740  0.49291  0.21101  1.0000
  H   H1872     1.0  0.75705  0.41887  0.32227  1.0000
  H   H1873     1.0  0.96224  0.49249  0.19567  1.0000
  H   H1874     1.0  0.98350  0.47120  0.34231  1.0000
  C   C1883     1.0  0.74333  0.41045  0.39291  1.0000
  H   H1875     1.0  0.95513  0.44961  0.36979  1.0000
  H   H1876     1.0  0.76368  0.08154  0.32580  1.0000
  S   S618      1.0  0.94925  0.45578  0.32839  1.0000
  C   C1884     1.0  0.97526  0.40713  0.36034  1.0000
  H   H1877     1.0  0.77422  0.04435  0.33478  1.0000
  N   N156      1.0  0.98041  0.42949  0.37682  1.0000
  S   S619      1.0  0.74967  0.47566  0.39456  1.0000
  C   C1885     1.0  0.96526  0.42081  0.36088  1.0000
  H   H1878     1.0  0.76674  0.49300  0.45612  1.0000
  H   H1879     1.0  0.96867  0.45720  0.38400  1.0000
  H   H1880     1.0  0.73925  0.40843  0.43879  1.0000
  H   H1881     1.0  0.95941  0.41760  0.35434  1.0000
  C   C1886     1.0  0.74651  0.33087  0.33995  1.0000
  C   C1887     1.0  0.98281  0.41178  0.36833  1.0000
  C   C1888     1.0  0.96288  0.43885  0.36952  1.0000
  H   H1882     1.0  0.98589  0.44941  0.39008  1.0000
  Fe  Fe306     1.0  0.95020  0.48784  0.33202  1.0000
  Fe  Fe307     1.0  0.75359  0.47648  0.35991  1.0000
  C   C1889     1.0  0.97058  0.44301  0.37748  1.0000
  S   S620      1.0  0.75706  0.44575  0.34926  1.0000
  C   C1890     1.0  0.75596  0.45172  0.32285  1.0000
  C   C1891     1.0  0.98765  0.48975  0.35942  1.0000
  C   C1892     1.0  0.74137  0.38198  0.37931  1.0000
  H   H1883     1.0  0.74713  0.42365  0.39084  1.0000
  H   H1884     1.0  0.74769  0.31510  0.35022  1.0000
  C   C1893     1.0  0.74610  0.39911  0.37678  1.0000
  S   S621      1.0  0.74259  0.01265  0.34366  1.0000
  H   H1885     1.0  0.97726  0.39329  0.35324  1.0000
  H   H1886     1.0  0.75194  0.40354  0.36246  1.0000
  H   H1887     1.0  0.75321  0.48200  0.44607  1.0000
  H   H1888     1.0  0.74352  0.37291  0.36703  1.0000
  N   N157      1.0  0.83698  0.30390  0.90674  1.0000
  H   H1889     1.0  0.84715  0.36952  0.94955  1.0000
  N   N158      1.0  0.88649  0.18779  0.95899  1.0000
  Fe  Fe308     1.0  0.75987  0.04742  0.74793  1.0000
  S   S622      1.0  0.75696  0.08217  0.74818  1.0000
  Fe  Fe309     1.0  0.74924  0.07178  0.78235  1.0000
  S   S623      1.0  0.75256  0.07891  0.81057  1.0000
  C   C1894     1.0  0.73959  0.48266  0.78752  1.0000
  Fe  Fe310     1.0  0.89259  0.28761  0.97192  1.0000
  S   S624      1.0  0.75333  0.03670  0.78241  1.0000
  S   S625      1.0  0.74473  0.05007  0.73869  1.0000
  C   C1895     1.0  0.95375  0.49314  0.80812  1.0000
  S   S626      1.0  0.83465  0.20084  0.94056  1.0000
  C   C1896     1.0  0.78197  0.39181  0.91276  1.0000
  Fe  Fe311     1.0  0.85430  0.15610  0.96901  1.0000
  S   S627      1.0  0.85852  0.17110  0.93432  1.0000
  C   C1897     1.0  0.82827  0.31061  0.89776  1.0000
  Fe  Fe312     1.0  0.85060  0.20198  0.94520  1.0000
  S   S628      1.0  0.85814  0.23133  0.93347  1.0000
  Fe  Fe313     1.0  0.84221  0.16810  0.93307  1.0000
  S   S629      1.0  0.83671  0.16141  0.90640  1.0000
  C   C1898     1.0  0.77236  0.01932  0.81004  1.0000
  S   S630      1.0  0.83881  0.15032  0.96690  1.0000
  Fe  Fe314     1.0  0.80310  0.07396  0.84053  1.0000
  S   S631      1.0  0.82043  0.06328  0.84233  1.0000
  S   S632      1.0  0.79815  0.09138  0.80968  1.0000
  Fe  Fe315     1.0  0.79560  0.04829  0.88418  1.0000
  S   S633      1.0  0.81226  0.03520  0.88910  1.0000
  H   H1890     1.0  0.73823  0.37368  0.70787  1.0000
  Fe  Fe316     1.0  0.81470  0.06920  0.87567  1.0000
  S   S634      1.0  0.82313  0.07971  0.89574  1.0000
  Fe  Fe317     1.0  0.81644  0.03067  0.85570  1.0000
  H   H1891     1.0  0.76024  0.00428  0.75726  1.0000
  S   S635      1.0  0.79754  0.08246  0.87266  1.0000
  S   S636      1.0  0.79962  0.04110  0.85208  1.0000
  S   S637      1.0  0.95550  0.43607  0.92379  1.0000
  H   H1892     1.0  0.75364  0.07882  0.68762  1.0000
  H   H1893     1.0  0.88401  0.16415  0.94608  1.0000
  H   H1894     1.0  0.76636  0.38001  0.73920  1.0000
  S   S638      1.0  0.75884  0.34317  0.88479  1.0000
  C   C1899     1.0  0.77989  0.02496  0.79168  1.0000
  C   C1900     1.0  0.81269  0.04151  0.76035  1.0000
  S   S639      1.0  0.81452  0.35164  0.94418  1.0000
  H   H1895     1.0  0.80624  0.16604  0.91527  1.0000
  C   C1901     1.0  0.75928  0.01279  0.88600  1.0000
  S   S640      1.0  0.81104  0.30355  0.94805  1.0000
  H   H1896     1.0  0.80491  0.06821  0.77550  1.0000
  Fe  Fe318     1.0  0.82049  0.31811  0.96083  1.0000
  C   C1902     1.0  0.80789  0.25177  0.98396  1.0000
  Fe  Fe319     1.0  0.80382  0.33725  0.93427  1.0000
  S   S641      1.0  0.80269  0.34777  0.90014  1.0000
  N   N159      1.0  0.74179  0.07019  0.87319  1.0000
  C   C1903     1.0  0.89799  0.21207  0.95309  1.0000
  C   C1904     1.0  0.98238  0.48489  0.95288  1.0000
  C   C1905     1.0  0.97463  0.41120  0.81071  1.0000
  C   C1906     1.0  0.84248  0.33942  0.95482  1.0000
  H   H1897     1.0  0.94074  0.34632  0.97383  1.0000
  S   S642      1.0  0.89536  0.31056  0.94039  1.0000
  S   S643      1.0  0.74947  0.35953  0.83003  1.0000
  H   H1898     1.0  0.97456  0.43770  0.77437  1.0000
  H   H1899     1.0  0.83409  0.34660  0.95653  1.0000
  Fe  Fe320     1.0  0.90786  0.31882  0.95195  1.0000
  S   S644      1.0  0.92284  0.32719  0.92875  1.0000
  Fe  Fe321     1.0  0.74338  0.41475  0.84487  1.0000
  S   S645      1.0  0.94887  0.46689  0.87062  1.0000
  Fe  Fe322     1.0  0.96176  0.40130  0.92257  1.0000
  S   S646      1.0  0.95314  0.37663  0.94684  1.0000
  C   C1907     1.0  0.74464  0.37476  0.71434  1.0000
  H   H1900     1.0  0.80832  0.09855  0.93986  1.0000
  S   S647      1.0  0.97825  0.40245  0.92395  1.0000
  S   S648      1.0  0.96539  0.40716  0.88703  1.0000
  H   H1901     1.0  0.82143  0.22772  0.97349  1.0000
  C   C1908     1.0  0.83424  0.26780  0.91687  1.0000
  H   H1902     1.0  0.81858  0.06130  0.79620  1.0000
  H   H1903     1.0  0.83664  0.25114  0.92458  1.0000
  C   C1909     1.0  0.75907  0.39109  0.71231  1.0000
  C   C1910     1.0  0.93094  0.34141  0.93410  1.0000
  C   C1911     1.0  0.93648  0.35494  0.91729  1.0000
  C   C1912     1.0  0.94331  0.36585  0.92089  1.0000
  C   C1913     1.0  0.94490  0.36281  0.94129  1.0000
  C   C1914     1.0  0.93947  0.34902  0.95805  1.0000
  C   C1915     1.0  0.93239  0.33866  0.95456  1.0000
  H   H1904     1.0  0.93548  0.35698  0.90140  1.0000
  H   H1905     1.0  0.94743  0.37637  0.90784  1.0000
  S   S649      1.0  0.74920  0.00697  0.87783  1.0000
  H   H1906     1.0  0.92831  0.32802  0.96757  1.0000
  C   C1916     1.0  0.84604  0.31725  0.95668  1.0000
  C   C1917     1.0  0.85686  0.30804  0.95480  1.0000
  Fe  Fe323     1.0  0.88405  0.33531  0.95740  1.0000
  H   H1907     1.0  0.75840  0.43293  0.87095  1.0000
  H   H1908     1.0  0.76677  0.36867  0.92662  1.0000
  C   C1918     1.0  0.87955  0.17917  0.95143  1.0000
  H   H1909     1.0  0.85957  0.29095  0.95609  1.0000
  H   H1910     1.0  0.78344  0.37577  0.92349  1.0000
  H   H1911     1.0  0.78889  0.39183  0.89903  1.0000
  H   H1912     1.0  0.96696  0.42151  0.80874  1.0000
  C   C1919     1.0  0.77140  0.34335  0.88820  1.0000
  C   C1920     1.0  0.77817  0.35529  0.87266  1.0000
  C   C1921     1.0  0.78791  0.35609  0.87622  1.0000
  C   C1922     1.0  0.79086  0.34517  0.89542  1.0000
  C   C1923     1.0  0.78415  0.33308  0.91093  1.0000
  C   C1924     1.0  0.77447  0.33201  0.90722  1.0000
  H   H1913     1.0  0.77596  0.36372  0.85782  1.0000
  H   H1914     1.0  0.79312  0.36538  0.86416  1.0000
  H   H1915     1.0  0.78641  0.32449  0.92574  1.0000
  H   H1916     1.0  0.76928  0.32265  0.91924  1.0000
  C   C1925     1.0  0.92688  0.39919  0.96190  1.0000
  H   H1917     1.0  0.76297  0.34834  0.76645  1.0000
  H   H1918     1.0  0.81448  0.10137  0.97054  1.0000
  H   H1919     1.0  0.84253  0.03890  0.78671  1.0000
  C   C1926     1.0  0.81221  0.17437  0.94616  1.0000
  Fe  Fe324     1.0  0.97231  0.43780  0.92179  1.0000
  C   C1927     1.0  0.98527  0.38422  0.83319  1.0000
  C   C1928     1.0  0.74389  0.01164  0.70452  1.0000
  H   H1920     1.0  0.86229  0.21536  0.97629  1.0000
  C   C1929     1.0  0.86573  0.23859  0.94736  1.0000
  C   C1930     1.0  0.87131  0.25507  0.93705  1.0000
  C   C1931     1.0  0.87771  0.26087  0.94724  1.0000
  C   C1932     1.0  0.87855  0.25029  0.96794  1.0000
  H   H1921     1.0  0.74260  0.05153  0.85167  1.0000
  C   C1933     1.0  0.86648  0.22815  0.96818  1.0000
  H   H1922     1.0  0.87080  0.26330  0.92097  1.0000
  H   H1923     1.0  0.80420  0.18484  0.94980  1.0000
  Fe  Fe325     1.0  0.98138  0.41125  0.88849  1.0000
  H   H1924     1.0  0.75580  0.10797  0.86650  1.0000
  C   C1934     1.0  0.83354  0.13815  0.90309  1.0000
  C   C1935     1.0  0.83531  0.11821  0.91703  1.0000
  C   C1936     1.0  0.83238  0.10046  0.91406  1.0000
  C   C1937     1.0  0.82747  0.10237  0.89736  1.0000
  C   C1938     1.0  0.82579  0.12228  0.88329  1.0000
  C   C1939     1.0  0.82886  0.13996  0.88610  1.0000
  H   H1925     1.0  0.83897  0.11641  0.93007  1.0000
  H   H1926     1.0  0.83379  0.08516  0.92499  1.0000
  H   H1927     1.0  0.82209  0.12407  0.87031  1.0000
  H   H1928     1.0  0.82751  0.15522  0.87509  1.0000
  H   H1929     1.0  0.74552  0.40918  0.88724  1.0000
  H   H1930     1.0  0.74175  0.49339  0.82417  1.0000
  H   H1931     1.0  0.98608  0.37383  0.84850  1.0000
  S   S650      1.0  0.73862  0.44661  0.85398  1.0000
  C   C1940     1.0  0.91233  0.38431  0.96165  1.0000
  S   S651      1.0  0.82615  0.99976  0.84568  1.0000
  H   H1932     1.0  0.80899  0.01586  0.82240  1.0000
  Fe  Fe326     1.0  0.79878  0.30813  0.97754  1.0000
  C   C1941     1.0  0.82539  0.27447  0.90761  1.0000
  H   H1933     1.0  0.75930  0.08582  0.90132  1.0000
  Fe  Fe327     1.0  0.74100  0.08412  0.74169  1.0000
  C   C1942     1.0  0.86418  0.32084  0.95131  1.0000
  H   H1934     1.0  0.82572  0.32741  0.89065  1.0000
  S   S652      1.0  0.89654  0.34544  0.96631  1.0000
  C   C1943     1.0  0.77269  0.03377  0.87890  1.0000
  H   H1935     1.0  0.81152  0.26483  0.97445  1.0000
  C   C1944     1.0  0.80884  0.11405  0.94157  1.0000
  H   H1936     1.0  0.77720  0.04511  0.86816  1.0000
  H   H1937     1.0  0.74717  0.48751  0.78088  1.0000
  C   C1945     1.0  0.81357  0.23063  0.98356  1.0000
  C   C1946     1.0  0.76560  0.08119  0.80931  1.0000
  C   C1947     1.0  0.77230  0.08873  0.79022  1.0000
  C   C1948     1.0  0.78231  0.09196  0.79026  1.0000
  C   C1949     1.0  0.78568  0.08739  0.80934  1.0000
  C   C1950     1.0  0.77905  0.07949  0.82824  1.0000
  C   C1951     1.0  0.76912  0.07627  0.82818  1.0000
  H   H1938     1.0  0.76963  0.09278  0.77555  1.0000
  H   H1939     1.0  0.78736  0.09831  0.77556  1.0000
  H   H1940     1.0  0.78150  0.07630  0.84302  1.0000
  H   H1941     1.0  0.76419  0.06989  0.84287  1.0000
  C   C1952     1.0  0.76577  0.45363  0.77072  1.0000
  C   C1953     1.0  0.74959  0.06395  0.90313  1.0000
  C   C1954     1.0  0.76755  0.01253  0.91399  1.0000
  H   H1942     1.0  0.90696  0.38217  0.95324  1.0000
  S   S653      1.0  0.76328  0.49011  0.73968  1.0000
  H   H1943     1.0  0.92026  0.40465  0.93451  1.0000
  S   S654      1.0  0.76333  0.48590  0.68200  1.0000
  S   S655      1.0  0.78208  0.03661  0.90929  1.0000
  N   N160      1.0  0.81122  0.15343  0.94457  1.0000
  C   C1955     1.0  0.81349  0.13558  0.95997  1.0000
  C   C1956     1.0  0.80775  0.15202  0.92776  1.0000
  C   C1957     1.0  0.81239  0.11561  0.95865  1.0000
  C   C1958     1.0  0.80647  0.13235  0.92605  1.0000
  S   S656      1.0  0.97654  0.44679  0.88651  1.0000
  H   H1944     1.0  0.87254  0.31350  0.94995  1.0000
  H   H1945     1.0  0.78172  0.40408  0.92137  1.0000
  H   H1946     1.0  0.87259  0.17546  0.96427  1.0000
  C   C1959     1.0  0.77618  0.00276  0.73799  1.0000
  H   H1947     1.0  0.83271  0.03549  0.81127  1.0000
  C   C1960     1.0  0.81947  0.05083  0.78565  1.0000
  H   H1948     1.0  0.89001  0.21047  0.93005  1.0000
  H   H1949     1.0  0.81692  0.18220  0.93104  1.0000
  H   H1950     1.0  0.87629  0.19094  0.93821  1.0000
  C   C1961     1.0  0.74388  0.04892  0.68837  1.0000
  Fe  Fe328     1.0  0.83203  0.18294  0.97429  1.0000
  S   S657      1.0  0.79045  0.34086  0.96265  1.0000
  H   H1951     1.0  0.76824  0.00719  0.93035  1.0000
  H   H1952     1.0  0.76771  0.03128  0.81913  1.0000
  H   H1953     1.0  0.93825  0.40394  0.98546  1.0000
  C   C1962     1.0  0.75410  0.08188  0.89372  1.0000
  H   H1954     1.0  0.96773  0.44504  0.84589  1.0000
  H   H1955     1.0  0.74995  0.39955  0.68822  1.0000
  S   S658      1.0  0.77527  0.03052  0.73078  1.0000
  C   C1963     1.0  0.89950  0.20405  0.97376  1.0000
  C   C1964     1.0  0.81169  0.05485  0.77393  1.0000
  H   H1956     1.0  0.73887  0.00976  0.81573  1.0000
  C   C1965     1.0  0.75942  0.06409  0.68363  1.0000
  C   C1966     1.0  0.75965  0.02573  0.69782  1.0000
  C   C1967     1.0  0.83617  0.03012  0.79609  1.0000
  C   C1968     1.0  0.81376  0.00115  0.81809  1.0000
  C   C1969     1.0  0.86070  0.34300  0.94941  1.0000
  H   H1957     1.0  0.85024  0.31196  0.91270  1.0000
  H   H1958     1.0  0.96291  0.49134  0.91942  1.0000
  S   S659      1.0  0.86680  0.13154  0.98447  1.0000
  Fe  Fe329     1.0  0.96023  0.44204  0.88848  1.0000
  H   H1959     1.0  0.74039  0.04373  0.89953  1.0000
  C   C1970     1.0  0.97540  0.39717  0.83026  1.0000
  C   C1971     1.0  0.77054  0.99846  0.81606  1.0000
  C   C1972     1.0  0.98283  0.42835  0.77473  1.0000
  H   H1960     1.0  0.81533  0.30158  0.89122  1.0000
  S   S660      1.0  0.76431  0.39183  0.77788  1.0000
  C   C1973     1.0  0.96379  0.45839  0.83539  1.0000
  H   H1961     1.0  0.88208  0.27339  0.93893  1.0000
  H   H1962     1.0  0.74262  0.46197  0.76578  1.0000
  H   H1963     1.0  0.76400  0.40272  0.70408  1.0000
  C   C1974     1.0  0.74608  0.36228  0.73420  1.0000
  H   H1964     1.0  0.75128  0.05392  0.91804  1.0000
  H   H1965     1.0  0.83573  0.00715  0.76950  1.0000
  H   H1966     1.0  0.76791  0.02311  0.69868  1.0000
  H   H1967     1.0  0.80512  0.00325  0.79464  1.0000
  C   C1975     1.0  0.76030  0.37832  0.73219  1.0000
  H   H1968     1.0  0.75160  0.33754  0.76891  1.0000
  S   S661      1.0  0.73936  0.41137  0.81605  1.0000
  C   C1976     1.0  0.75117  0.38930  0.70338  1.0000
  S   S662      1.0  0.97569  0.45415  0.94378  1.0000
  H   H1969     1.0  0.81639  0.17294  0.95882  1.0000
  H   H1970     1.0  0.79143  0.01378  0.76532  1.0000
  C   C1977     1.0  0.76545  0.02689  0.87198  1.0000
  H   H1971     1.0  0.76445  0.03285  0.85587  1.0000
  H   H1972     1.0  0.97793  0.47970  0.96874  1.0000
  C   C1978     1.0  0.75454  0.00842  0.70545  1.0000
  C   C1979     1.0  0.77365  0.02687  0.89998  1.0000
  C   C1980     1.0  0.94905  0.48845  0.82974  1.0000
  S   S663      1.0  0.76010  0.39565  0.83842  1.0000
  C   C1981     1.0  0.82236  0.29602  0.89799  1.0000
  C   C1982     1.0  0.84290  0.31968  0.90640  1.0000
  H   H1973     1.0  0.83782  0.33107  0.91642  1.0000
  H   H1974     1.0  0.76643  0.42510  0.79564  1.0000
  H   H1975     1.0  0.84672  0.27750  0.92393  1.0000
  C   C1983     1.0  0.78565  0.00961  0.77981  1.0000
  H   H1976     1.0  0.81631  0.13665  0.97324  1.0000
  C   C1984     1.0  0.76454  0.46250  0.74990  1.0000
  C   C1985     1.0  0.76478  0.41884  0.76705  1.0000
  C   C1986     1.0  0.76569  0.43186  0.77943  1.0000
  C   C1987     1.0  0.75458  0.35261  0.76456  1.0000
  Fe  Fe330     1.0  0.74722  0.47966  0.68471  1.0000
  N   N161      1.0  0.77202  0.39618  0.90557  1.0000
  H   H1977     1.0  0.76651  0.46364  0.78028  1.0000
  H   H1978     1.0  0.84533  0.32874  0.88999  1.0000
  C   C1988     1.0  0.83996  0.28282  0.91633  1.0000
  Fe  Fe331     1.0  0.75537  0.38929  0.81151  1.0000
  C   C1989     1.0  0.76495  0.38294  0.91457  1.0000
  C   C1990     1.0  0.75537  0.38728  0.90797  1.0000
  H   H1979     1.0  0.74068  0.35165  0.74292  1.0000
  S   S664      1.0  0.96990  0.48682  0.77354  1.0000
  H   H1980     1.0  0.82219  0.01353  0.74854  1.0000
  N   N162      1.0  0.75381  0.36425  0.74292  1.0000
  S   S665      1.0  0.74420  0.44796  0.68440  1.0000
  C   C1991     1.0  0.95418  0.47131  0.84341  1.0000
  S   S666      1.0  0.86983  0.35846  0.94714  1.0000
  C   C1992     1.0  0.76382  0.42767  0.74612  1.0000
  C   C1993     1.0  0.75296  0.40549  0.89239  1.0000
  C   C1994     1.0  0.74589  0.08819  0.86415  1.0000
  Fe  Fe332     1.0  0.75287  0.36752  0.85762  1.0000
  H   H1981     1.0  0.90153  0.22534  0.94305  1.0000
  C   C1995     1.0  0.76020  0.41889  0.88329  1.0000
  C   C1996     1.0  0.76977  0.41393  0.89007  1.0000
  H   H1982     1.0  0.76296  0.41789  0.73656  1.0000
  H   H1983     1.0  0.74997  0.37631  0.91455  1.0000
  C   C1997     1.0  0.76354  0.44950  0.73767  1.0000
  H   H1984     1.0  0.77540  0.42434  0.88284  1.0000
  H   H1985     1.0  0.98710  0.43345  0.84459  1.0000
  C   C1998     1.0  0.89142  0.20369  0.94590  1.0000
  H   H1986     1.0  0.76589  0.06120  0.69222  1.0000
  N   N163      1.0  0.75420  0.04580  0.69013  1.0000
  H   H1987     1.0  0.80666  0.04432  0.75134  1.0000
  C   C1999     1.0  0.98262  0.47511  0.93678  1.0000
  S   S667      1.0  0.83724  0.30046  0.96135  1.0000
  C   C2000     1.0  0.89461  0.18754  0.98683  1.0000
  H   H1988     1.0  0.93292  0.40842  0.95332  1.0000
  N   N164      1.0  0.82797  0.03384  0.78404  1.0000
  C   C2001     1.0  0.75214  0.09427  0.87422  1.0000
  C   C2002     1.0  0.82146  0.02440  0.75860  1.0000
  H   H1989     1.0  0.82081  0.26301  0.90816  1.0000
  H   H1990     1.0  0.76248  0.45620  0.72170  1.0000
  C   C2003     1.0  0.96833  0.46283  0.81372  1.0000
  C   C2004     1.0  0.96346  0.48040  0.80014  1.0000
  S   S668      1.0  0.90625  0.29331  0.98217  1.0000
  H   H1991     1.0  0.74981  0.36294  0.77588  1.0000
  C   C2005     1.0  0.91976  0.39707  0.95113  1.0000
  C   C2006     1.0  0.84985  0.35237  0.95093  1.0000
  H   H1992     1.0  0.83974  0.01272  0.80045  1.0000
  N   N165      1.0  0.98347  0.41246  0.79462  1.0000
  C   C2007     1.0  0.82909  0.02082  0.77057  1.0000
  H   H1993     1.0  0.97575  0.45301  0.80751  1.0000
  S   S669      1.0  0.88726  0.25574  0.98069  1.0000
  C   C2008     1.0  0.88816  0.17946  0.97905  1.0000
  H   H1994     1.0  0.80410  0.13108  0.91233  1.0000
  H   H1995     1.0  0.78113  0.04127  0.78655  1.0000
  C   C2009     1.0  0.74343  0.05829  0.89257  1.0000
  H   H1996     1.0  0.96844  0.39666  0.84317  1.0000
  C   C2010     1.0  0.87285  0.23398  0.97839  1.0000
  H   H1997     1.0  0.98387  0.48186  0.82430  1.0000
  S   S670      1.0  0.74038  0.48899  0.71591  1.0000
  C   C2011     1.0  0.76045  0.00529  0.90695  1.0000
  S   S671      1.0  0.84714  0.18697  0.97971  1.0000
  N   N166      1.0  0.92665  0.38872  0.98255  1.0000
  C   C2012     1.0  0.73855  0.03193  0.69565  1.0000
  H   H1998     1.0  0.74486  0.09729  0.84849  1.0000
  H   H1999     1.0  0.76283  0.06698  0.66636  1.0000
  H   H2000     1.0  0.73962  0.06474  0.68188  1.0000
  H   H2001     1.0  0.79590  0.49189  0.66966  1.0000
  H   H2002     1.0  0.95661  0.49138  0.88817  1.0000
  Fe  Fe333     1.0  0.80174  0.35279  0.97375  1.0000
  H   H2003     1.0  0.90423  0.21104  0.97976  1.0000
  H   H2004     1.0  0.98576  0.42039  0.76109  1.0000
  H   H2005     1.0  0.73977  0.99845  0.71075  1.0000
  C   C2013     1.0  0.91208  0.37386  0.98277  1.0000
  H   H2006     1.0  0.98615  0.48950  0.79583  1.0000
  H   H2007     1.0  0.98781  0.44010  0.77267  1.0000
  C   C2014     1.0  0.98626  0.49441  0.81029  1.0000
  S   S672      1.0  0.79587  0.38321  0.98584  1.0000
  S   S673      1.0  0.88055  0.31210  0.98806  1.0000
  H   H2008     1.0  0.79216  0.99595  0.71945  1.0000
  H   H2009     1.0  0.88437  0.16672  0.98925  1.0000
  Fe  Fe334     1.0  0.76616  0.92669  0.21743  1.0000
  H   H2010     1.0  0.80557  0.89964  0.21482  1.0000
  S   S674      1.0  0.78195  0.92904  0.22147  1.0000
  H   H2011     1.0  0.78290  0.99155  0.16253  1.0000
  H   H2012     1.0  0.74937  0.58137  0.24754  1.0000
  S   S675      1.0  0.76159  0.89609  0.21899  1.0000
  C   C2015     1.0  0.76609  0.98841  0.24678  1.0000
  H   H2013     1.0  0.79726  0.83935  0.28784  1.0000
  S   S676      1.0  0.80969  0.90601  0.27678  1.0000
  C   C2016     1.0  0.74615  0.57161  0.26245  1.0000
  N   N167      1.0  0.79959  0.87782  0.24281  1.0000
  C   C2017     1.0  0.97208  0.53346  0.19738  1.0000
  C   C2018     1.0  0.80154  0.86520  0.26175  1.0000
  C   C2019     1.0  0.78800  0.84625  0.26425  1.0000
  C   C2020     1.0  0.79503  0.98127  0.20360  1.0000
  H   H2014     1.0  0.77966  0.85772  0.23873  1.0000
  C   C2021     1.0  0.79583  0.84915  0.27267  1.0000
  C   C2022     1.0  0.80537  0.89508  0.23207  1.0000
  H   H2015     1.0  0.80748  0.86762  0.26857  1.0000
  H   H2016     1.0  0.80136  0.90951  0.23880  1.0000
  H   H2017     1.0  0.81373  0.89031  0.23420  1.0000
  C   C2023     1.0  0.74830  0.51889  0.22511  1.0000
  H   H2018     1.0  0.78332  0.83425  0.27292  1.0000
  C   C2024     1.0  0.81090  0.93282  0.27193  1.0000
  C   C2025     1.0  0.81017  0.94244  0.28849  1.0000
  C   C2026     1.0  0.81134  0.96376  0.28408  1.0000
  H   H2019     1.0  0.74926  0.83377  0.20835  1.0000
  C   C2027     1.0  0.81342  0.96624  0.24669  1.0000
  C   C2028     1.0  0.81250  0.94478  0.25105  1.0000
  H   H2020     1.0  0.80894  0.93335  0.30463  1.0000
  S   S677      1.0  0.75052  0.90174  0.17024  1.0000
  Fe  Fe335     1.0  0.75095  0.91615  0.19679  1.0000
  H   H2021     1.0  0.81313  0.93742  0.23815  1.0000
  C   C2029     1.0  0.77087  0.96759  0.25578  1.0000
  H   H2022     1.0  0.75261  0.86000  0.20039  1.0000
  C   C2030     1.0  0.78575  0.95319  0.20715  1.0000
  H   H2023     1.0  0.75972  0.99099  0.23861  1.0000
  C   C2031     1.0  0.79229  0.96156  0.21445  1.0000
  H   H2024     1.0  0.77753  0.95746  0.18242  1.0000
  H   H2025     1.0  0.79520  0.95296  0.22855  1.0000
  H   H2026     1.0  0.76355  0.95945  0.31996  1.0000
  C   C2032     1.0  0.96766  0.53492  0.21849  1.0000
  C   C2033     1.0  0.74457  0.49646  0.20549  1.0000
  H   H2027     1.0  0.76830  0.95412  0.25407  1.0000
  C   C2034     1.0  0.76964  0.87080  0.29645  1.0000
  C   C2035     1.0  0.76191  0.87987  0.28409  1.0000
  N   N168      1.0  0.77879  0.96418  0.26636  1.0000
  H   H2028     1.0  0.98122  0.52219  0.30065  1.0000
  H   H2029     1.0  0.77617  0.87851  0.29412  1.0000
  H   H2030     1.0  0.74349  0.51687  0.24161  1.0000
  H   H2031     1.0  0.76244  0.89466  0.27246  1.0000
  C   C2036     1.0  0.79185  0.87519  0.23453  1.0000
  C   C2037     1.0  0.76071  0.84136  0.31389  1.0000
  C   C2038     1.0  0.98403  0.56208  0.31576  1.0000
  C   C2039     1.0  0.96380  0.50453  0.20192  1.0000
  C   C2040     1.0  0.74632  0.55617  0.29954  1.0000
  H   H2032     1.0  0.79012  0.88550  0.21976  1.0000
  C   C2041     1.0  0.97462  0.51736  0.16709  1.0000
  C   C2042     1.0  0.78593  0.85943  0.24513  1.0000
  H   H2033     1.0  0.81099  0.97101  0.29689  1.0000
  H   H2034     1.0  0.74529  0.87997  0.14406  1.0000
  S   S678      1.0  0.96580  0.54292  0.27408  1.0000
  S   S679      1.0  0.74320  0.88154  0.27310  1.0000
  C   C2043     1.0  0.79154  0.99226  0.18500  1.0000
  S   S680      1.0  0.75316  0.93508  0.24469  1.0000
  C   C2044     1.0  0.75032  0.56891  0.28019  1.0000
  S   S681      1.0  0.75702  0.94598  0.19255  1.0000
  H   H2035     1.0  0.97541  0.56468  0.31887  1.0000
  C   C2045     1.0  0.75339  0.86999  0.28719  1.0000
  C   C2046     1.0  0.98526  0.52978  0.28534  1.0000
  H   H2036     1.0  0.97646  0.58241  0.28182  1.0000
  S   S682      1.0  0.94248  0.52010  0.31546  1.0000
  H   H2037     1.0  0.98230  0.52283  0.16126  1.0000
  C   C2047     1.0  0.97957  0.54088  0.26955  1.0000
  H   H2038     1.0  0.96891  0.52766  0.15728  1.0000
  C   C2048     1.0  0.78226  0.96418  0.18856  1.0000
  H   H2039     1.0  0.75006  0.53520  0.22013  1.0000
  C   C2049     1.0  0.78357  0.94219  0.27581  1.0000
  Fe  Fe336     1.0  0.74778  0.90628  0.24426  1.0000
  H   H2040     1.0  0.78964  0.96880  0.31094  1.0000
  H   H2041     1.0  0.78957  0.93457  0.26348  1.0000
  H   H2042     1.0  0.78758  0.94180  0.28840  1.0000
  H   H2043     1.0  0.97640  0.50063  0.16486  1.0000
  C   C2050     1.0  0.81300  0.97569  0.26317  1.0000
  H   H2044     1.0  0.81476  0.97528  0.23052  1.0000
  N   N169      1.0  0.97017  0.51829  0.18940  1.0000
  H   H2045     1.0  0.79997  0.98781  0.20946  1.0000
  H   H2046     1.0  0.98055  0.55989  0.23777  1.0000
  H   H2047     1.0  0.75601  0.50708  0.22514  1.0000
  H   H2048     1.0  0.75672  0.57662  0.27886  1.0000
  Fe  Fe337     1.0  0.74362  0.95239  0.22014  1.0000
  H   H2049     1.0  0.97720  0.54429  0.18753  1.0000
  Fe  Fe338     1.0  0.95874  0.52734  0.30720  1.0000
  N   N170      1.0  0.74240  0.51577  0.21112  1.0000
  C   C2051     1.0  0.78246  0.98108  0.26752  1.0000
  H   H2050     1.0  0.77742  0.93237  0.28307  1.0000
  C   C2052     1.0  0.78530  0.98351  0.17731  1.0000
  H   H2051     1.0  0.96922  0.54685  0.22485  1.0000
  C   C2053     1.0  0.98490  0.55088  0.24992  1.0000
  C   C2054     1.0  0.96119  0.52093  0.23138  1.0000
  H   H2052     1.0  0.75885  0.99140  0.19289  1.0000
  C   C2055     1.0  0.74624  0.91579  0.31338  1.0000
  H   H2053     1.0  0.74535  0.94947  0.30067  1.0000
  H   H2054     1.0  0.75044  0.97234  0.31508  1.0000
  C   C2056     1.0  0.75280  0.85080  0.30217  1.0000
  C   C2057     1.0  0.73813  0.89983  0.16700  1.0000
  H   H2055     1.0  0.98140  0.60389  0.28523  1.0000
  H   H2056     1.0  0.78901  0.97844  0.27519  1.0000
  C   C2058     1.0  0.98373  0.58765  0.28171  1.0000
  H   H2057     1.0  0.74624  0.84309  0.30461  1.0000
  Fe  Fe339     1.0  0.80343  0.88952  0.31023  1.0000
  H   H2058     1.0  0.74207  0.86979  0.23330  1.0000
  C   C2059     1.0  0.95927  0.50560  0.22308  1.0000
  C   C2060     1.0  0.73800  0.54628  0.30114  1.0000
  C   C2061     1.0  0.74807  0.93583  0.31253  1.0000
  H   H2059     1.0  0.74215  0.91392  0.30229  1.0000
  S   S683      1.0  0.80625  0.85351  0.31830  1.0000
  H   H2060     1.0  0.74675  0.85204  0.18386  1.0000
  H   H2061     1.0  0.95767  0.52203  0.24777  1.0000
  C   C2062     1.0  0.76909  0.85138  0.31124  1.0000
  C   C2063     1.0  0.74670  0.85083  0.20070  1.0000
  S   S684      1.0  0.78564  0.89459  0.32075  1.0000
  S   S685      1.0  0.75172  0.55370  0.32143  1.0000
  S   S686      1.0  0.81829  0.61618  0.64279  1.0000
  H   H2062     1.0  0.86505  0.79262  0.61570  1.0000
  S   S687      1.0  0.77806  0.91529  0.37302  1.0000
  Fe  Fe340     1.0  0.83939  0.73310  0.46139  1.0000
  S   S688      1.0  0.83903  0.70947  0.49226  1.0000
  S   S689      1.0  0.85168  0.73193  0.43106  1.0000
  Fe  Fe341     1.0  0.81769  0.75888  0.47626  1.0000
  S   S690      1.0  0.81515  0.73732  0.50884  1.0000
  S   S691      1.0  0.80540  0.78654  0.46339  1.0000
  Fe  Fe342     1.0  0.83209  0.73779  0.50752  1.0000
  S   S692      1.0  0.83817  0.73098  0.53738  1.0000
  Fe  Fe343     1.0  0.82229  0.71047  0.49166  1.0000
  S   S693      1.0  0.81807  0.67810  0.50254  1.0000
  S   S694      1.0  0.83408  0.76172  0.47634  1.0000
  S   S695      1.0  0.82316  0.73170  0.45947  1.0000
  C   C2064     1.0  0.76948  0.95827  0.36445  1.0000
  C   C2065     1.0  0.89521  0.51179  0.47873  1.0000
  H   H2063     1.0  0.80570  0.72053  0.57804  1.0000
  C   C2066     1.0  0.76036  0.50413  0.46488  1.0000
  S   S696      1.0  0.84757  0.74724  0.63677  1.0000
  H   H2064     1.0  0.78167  0.63631  0.52483  1.0000
  C   C2067     1.0  0.78481  0.94527  0.33863  1.0000
  C   C2068     1.0  0.77431  0.55323  0.64091  1.0000
  Fe  Fe344     1.0  0.83684  0.77941  0.62875  1.0000
  S   S697      1.0  0.83431  0.79446  0.59553  1.0000
  C   C2069     1.0  0.85217  0.58642  0.64517  1.0000
  H   H2065     1.0  0.89249  0.74962  0.64345  1.0000
  H   H2066     1.0  0.79897  0.82705  0.39400  1.0000
  Fe  Fe345     1.0  0.80714  0.85575  0.35048  1.0000
  H   H2067     1.0  0.84966  0.75039  0.38443  1.0000
  C   C2070     1.0  0.87764  0.53067  0.43033  1.0000
  C   C2071     1.0  0.81136  0.73025  0.57769  1.0000
  C   C2072     1.0  0.81214  0.77006  0.38981  1.0000
  S   S698      1.0  0.82394  0.60508  0.55293  1.0000
  Fe  Fe346     1.0  0.79390  0.61770  0.45575  1.0000
  S   S699      1.0  0.79682  0.60180  0.42871  1.0000
  S   S700      1.0  0.79211  0.65339  0.45049  1.0000
  Fe  Fe347     1.0  0.79605  0.57521  0.48802  1.0000
  S   S701      1.0  0.79900  0.55541  0.46380  1.0000
  S   S702      1.0  0.79541  0.56239  0.52308  1.0000
  Fe  Fe348     1.0  0.80960  0.57798  0.44363  1.0000
  S   S703      1.0  0.82660  0.57058  0.42598  1.0000
  Fe  Fe349     1.0  0.78588  0.58087  0.45092  1.0000
  S   S704      1.0  0.77195  0.57784  0.43958  1.0000
  S   S705      1.0  0.80758  0.59573  0.46861  1.0000
  S   S706      1.0  0.78199  0.59877  0.47704  1.0000
  Fe  Fe350     1.0  0.89254  0.57450  0.46509  1.0000
  S   S707      1.0  0.88169  0.56778  0.49724  1.0000
  S   S708      1.0  0.90862  0.55325  0.45538  1.0000
  Fe  Fe351     1.0  0.87722  0.61415  0.44908  1.0000
  S   S709      1.0  0.86485  0.61119  0.47925  1.0000
  S   S710      1.0  0.87641  0.63880  0.41888  1.0000
  Fe  Fe352     1.0  0.87855  0.60317  0.49538  1.0000
  S   S711      1.0  0.87442  0.61889  0.52332  1.0000
  Fe  Fe353     1.0  0.86877  0.57633  0.47911  1.0000
  S   S712      1.0  0.85574  0.55792  0.49013  1.0000
  S   S713      1.0  0.89067  0.60923  0.46496  1.0000
  S   S714      1.0  0.87980  0.57981  0.44735  1.0000
  C   C2073     1.0  0.80368  0.72964  0.63567  1.0000
  S   S715      1.0  0.91354  0.61983  0.62373  1.0000
  H   H2068     1.0  0.90306  0.51856  0.43686  1.0000
  S   S716      1.0  0.88792  0.63683  0.62402  1.0000
  Fe  Fe354     1.0  0.90067  0.60805  0.61740  1.0000
  S   S717      1.0  0.90381  0.59177  0.59015  1.0000
  Fe  Fe355     1.0  0.90033  0.64695  0.63347  1.0000
  S   S718      1.0  0.77894  0.83858  0.32599  1.0000
  H   H2069     1.0  0.76385  0.51782  0.46418  1.0000
  C   C2074     1.0  0.88251  0.61086  0.54206  1.0000
  C   C2075     1.0  0.87944  0.62043  0.55963  1.0000
  C   C2076     1.0  0.88583  0.61460  0.57466  1.0000
  C   C2077     1.0  0.89533  0.59916  0.57215  1.0000
  C   C2078     1.0  0.89825  0.58926  0.55483  1.0000
  C   C2079     1.0  0.89186  0.59507  0.53982  1.0000
  H   H2070     1.0  0.87217  0.63256  0.56148  1.0000
  H   H2071     1.0  0.88349  0.62212  0.58806  1.0000
  H   H2072     1.0  0.90557  0.57726  0.55287  1.0000
  H   H2073     1.0  0.89429  0.58757  0.52637  1.0000
  C   C2080     1.0  0.83047  0.70869  0.63492  1.0000
  S   S719      1.0  0.80616  0.89137  0.34111  1.0000
  C   C2081     1.0  0.92315  0.53999  0.42125  1.0000
  C   C2082     1.0  0.91306  0.55224  0.42838  1.0000
  C   C2083     1.0  0.90659  0.56325  0.41393  1.0000
  C   C2084     1.0  0.91018  0.56213  0.39256  1.0000
  H   H2074     1.0  0.92820  0.53135  0.43234  1.0000
  H   H2075     1.0  0.89890  0.57296  0.41903  1.0000
  H   H2076     1.0  0.90516  0.57092  0.38145  1.0000
  C   C2085     1.0  0.83487  0.56676  0.44355  1.0000
  C   C2086     1.0  0.83164  0.55752  0.46495  1.0000
  C   C2087     1.0  0.83807  0.55500  0.47915  1.0000
  C   C2088     1.0  0.84764  0.56218  0.47213  1.0000
  C   C2089     1.0  0.85078  0.57190  0.45081  1.0000
  C   C2090     1.0  0.84447  0.57387  0.43646  1.0000
  C   C2091     1.0  0.78490  0.58158  0.64724  1.0000
  C   C2092     1.0  0.74474  0.53150  0.45611  1.0000
  H   H2077     1.0  0.85813  0.57759  0.44528  1.0000
  H   H2078     1.0  0.84693  0.58125  0.41996  1.0000
  H   H2079     1.0  0.89387  0.52555  0.48623  1.0000
  C   C2093     1.0  0.81656  0.59088  0.54599  1.0000
  C   C2094     1.0  0.80803  0.58291  0.56044  1.0000
  C   C2095     1.0  0.80192  0.57283  0.55372  1.0000
  C   C2096     1.0  0.80423  0.57110  0.53253  1.0000
  C   C2097     1.0  0.81320  0.57777  0.51868  1.0000
  C   C2098     1.0  0.81927  0.58782  0.52529  1.0000
  H   H2080     1.0  0.80603  0.58486  0.57660  1.0000
  H   H2081     1.0  0.79520  0.56701  0.56475  1.0000
  H   H2082     1.0  0.81558  0.57486  0.50293  1.0000
  H   H2083     1.0  0.82606  0.59330  0.51426  1.0000
  Fe  Fe356     1.0  0.78856  0.89332  0.35230  1.0000
  C   C2099     1.0  0.81736  0.75741  0.40579  1.0000
  H   H2084     1.0  0.85529  0.80071  0.59977  1.0000
  C   C2100     1.0  0.77172  0.52106  0.41373  1.0000
  C   C2101     1.0  0.78014  0.52016  0.42289  1.0000
  C   C2102     1.0  0.78035  0.53747  0.43091  1.0000
  C   C2103     1.0  0.77208  0.55568  0.42992  1.0000
  C   C2104     1.0  0.76366  0.55652  0.42082  1.0000
  C   C2105     1.0  0.76351  0.53934  0.41260  1.0000
  C   C2106     1.0  0.77030  0.55154  0.35440  1.0000
  H   H2085     1.0  0.78687  0.53671  0.43793  1.0000
  H   H2086     1.0  0.75726  0.57062  0.42001  1.0000
  H   H2087     1.0  0.75696  0.54015  0.40573  1.0000
  C   C2107     1.0  0.75518  0.90064  0.34249  1.0000
  H   H2088     1.0  0.79133  0.58107  0.39338  1.0000
  C   C2108     1.0  0.78396  0.96588  0.32574  1.0000
  H   H2089     1.0  0.77443  0.60332  0.38384  1.0000
  H   H2090     1.0  0.81405  0.77446  0.61725  1.0000
  H   H2091     1.0  0.89306  0.61775  0.38430  1.0000
  H   H2092     1.0  0.77460  0.55097  0.33783  1.0000
  H   H2093     1.0  0.79111  0.93239  0.33357  1.0000
  H   H2094     1.0  0.83430  0.72213  0.63045  1.0000
  C   C2109     1.0  0.85839  0.70586  0.42805  1.0000
  C   C2110     1.0  0.85786  0.68831  0.44521  1.0000
  C   C2111     1.0  0.86342  0.66766  0.44255  1.0000
  C   C2112     1.0  0.86936  0.66445  0.42261  1.0000
  C   C2113     1.0  0.86977  0.68194  0.40537  1.0000
  C   C2114     1.0  0.86437  0.70263  0.40812  1.0000
  H   H2095     1.0  0.85340  0.69066  0.46065  1.0000
  H   H2096     1.0  0.86316  0.65432  0.45595  1.0000
  H   H2097     1.0  0.87436  0.67954  0.38993  1.0000
  H   H2098     1.0  0.86485  0.71613  0.39481  1.0000
  C   C2115     1.0  0.83540  0.77710  0.57904  1.0000
  C   C2116     1.0  0.83939  0.75513  0.58512  1.0000
  C   C2117     1.0  0.84041  0.74145  0.57180  1.0000
  C   C2118     1.0  0.83713  0.74944  0.55258  1.0000
  C   C2119     1.0  0.83309  0.77143  0.54634  1.0000
  C   C2120     1.0  0.83235  0.78529  0.55949  1.0000
  H   H2099     1.0  0.84180  0.74862  0.59999  1.0000
  H   H2100     1.0  0.84375  0.72452  0.57645  1.0000
  H   H2101     1.0  0.83062  0.77774  0.53141  1.0000
  H   H2102     1.0  0.82930  0.80234  0.55462  1.0000
  C   C2121     1.0  0.81046  0.67199  0.48839  1.0000
  C   C2122     1.0  0.80825  0.65148  0.49407  1.0000
  C   C2123     1.0  0.80244  0.64589  0.48272  1.0000
  C   C2124     1.0  0.79890  0.66067  0.46552  1.0000
  C   C2125     1.0  0.80102  0.68129  0.45995  1.0000
  C   C2126     1.0  0.80681  0.68696  0.47138  1.0000
  H   H2103     1.0  0.81106  0.63985  0.50726  1.0000
  H   H2104     1.0  0.80059  0.63023  0.48750  1.0000
  H   H2105     1.0  0.79821  0.69284  0.44676  1.0000
  H   H2106     1.0  0.80838  0.70290  0.46709  1.0000
  C   C2127     1.0  0.79719  0.87929  0.40504  1.0000
  C   C2128     1.0  0.92685  0.53919  0.39972  1.0000
  S   S720      1.0  0.97450  0.50014  0.37130  1.0000
  H   H2107     1.0  0.76671  0.57810  0.60313  1.0000
  C   C2129     1.0  0.82897  0.70023  0.61928  1.0000
  C   C2130     1.0  0.81560  0.82063  0.39448  1.0000
  C   C2131     1.0  0.82326  0.81033  0.40674  1.0000
  C   C2132     1.0  0.82025  0.79921  0.42770  1.0000
  C   C2133     1.0  0.80952  0.79862  0.43663  1.0000
  C   C2134     1.0  0.80189  0.80872  0.42431  1.0000
  C   C2135     1.0  0.80492  0.81961  0.40330  1.0000
  H   H2108     1.0  0.83155  0.81099  0.40004  1.0000
  H   H2109     1.0  0.82619  0.79151  0.43711  1.0000
  H   H2110     1.0  0.79359  0.80821  0.43111  1.0000
  Fe  Fe357     1.0  0.80698  0.60475  0.63096  1.0000
  C   C2136     1.0  0.88969  0.73587  0.64316  1.0000
  Fe  Fe358     1.0  0.96273  0.50656  0.35095  1.0000
  C   C2137     1.0  0.77753  0.94142  0.35791  1.0000
  H   H2111     1.0  0.77486  0.59080  0.53531  1.0000
  H   H2112     1.0  0.80062  0.71923  0.65035  1.0000
  H   H2113     1.0  0.76388  0.95537  0.37944  1.0000
  H   H2114     1.0  0.79672  0.57394  0.61977  1.0000
  H   H2115     1.0  0.86836  0.80677  0.58846  1.0000
  N   N171      1.0  0.80658  0.86863  0.41103  1.0000
  C   C2138     1.0  0.80654  0.85461  0.43021  1.0000
  C   C2139     1.0  0.79694  0.85040  0.44366  1.0000
  H   H2116     1.0  0.83161  0.70725  0.60280  1.0000
  C   C2140     1.0  0.81670  0.87302  0.39723  1.0000
  H   H2117     1.0  0.81397  0.84609  0.43499  1.0000
  H   H2118     1.0  0.79699  0.83862  0.45850  1.0000
  H   H2119     1.0  0.80644  0.75147  0.65114  1.0000
  H   H2120     1.0  0.82331  0.85874  0.39933  1.0000
  H   H2121     1.0  0.81630  0.87669  0.38028  1.0000
  H   H2122     1.0  0.81861  0.88681  0.40067  1.0000
  N   N172      1.0  0.82823  0.63551  0.44508  1.0000
  C   C2141     1.0  0.82947  0.65595  0.44244  1.0000
  C   C2142     1.0  0.83146  0.61971  0.46139  1.0000
  C   C2143     1.0  0.83445  0.66082  0.45578  1.0000
  C   C2144     1.0  0.83648  0.62400  0.47502  1.0000
  C   C2145     1.0  0.83799  0.64471  0.47213  1.0000
  C   C2146     1.0  0.82301  0.63084  0.43085  1.0000
  H   H2123     1.0  0.82650  0.66866  0.43009  1.0000
  H   H2124     1.0  0.83015  0.60368  0.46397  1.0000
  H   H2125     1.0  0.83535  0.67708  0.45380  1.0000
  H   H2126     1.0  0.83913  0.61135  0.48777  1.0000
  H   H2127     1.0  0.84169  0.64845  0.48273  1.0000
  H   H2128     1.0  0.81422  0.63547  0.43611  1.0000
  H   H2129     1.0  0.82542  0.63972  0.41435  1.0000
  H   H2130     1.0  0.82519  0.61351  0.43053  1.0000
  H   H2131     1.0  0.76027  0.82631  0.32523  1.0000
  C   C2147     1.0  0.78645  0.61994  0.52952  1.0000
  H   H2132     1.0  0.78650  0.50600  0.42385  1.0000
  H   H2133     1.0  0.90394  0.50717  0.47248  1.0000
  C   C2148     1.0  0.86274  0.65700  0.60894  1.0000
  C   C2149     1.0  0.85503  0.64591  0.61003  1.0000
  C   C2150     1.0  0.81233  0.75486  0.59803  1.0000
  C   C2151     1.0  0.94744  0.59502  0.65274  1.0000
  C   C2152     1.0  0.75494  0.95932  0.32570  1.0000
  S   S721      1.0  0.76790  0.53512  0.63696  1.0000
  H   H2134     1.0  0.86927  0.65830  0.59520  1.0000
  H   H2135     1.0  0.85547  0.63861  0.59715  1.0000
  H   H2136     1.0  0.78849  0.53178  0.36640  1.0000
  S   S722      1.0  0.76461  0.49904  0.35182  1.0000
  C   C2153     1.0  0.78554  0.54777  0.36962  1.0000
  N   N173      1.0  0.90811  0.61737  0.38925  1.0000
  C   C2154     1.0  0.91742  0.60655  0.37867  1.0000
  C   C2155     1.0  0.90680  0.61746  0.41010  1.0000
  C   C2156     1.0  0.92575  0.59555  0.38900  1.0000
  C   C2157     1.0  0.91494  0.60650  0.42095  1.0000
  C   C2158     1.0  0.92446  0.59545  0.41031  1.0000
  C   C2159     1.0  0.89916  0.62777  0.37875  1.0000
  H   H2137     1.0  0.91832  0.60558  0.36241  1.0000
  H   H2138     1.0  0.89934  0.62572  0.41854  1.0000
  H   H2139     1.0  0.93293  0.58628  0.38078  1.0000
  H   H2140     1.0  0.91377  0.60602  0.43767  1.0000
  H   H2141     1.0  0.93067  0.58624  0.41876  1.0000
  S   S723      1.0  0.84333  0.79558  0.64634  1.0000
  C   C2160     1.0  0.86798  0.59672  0.64691  1.0000
  H   H2142     1.0  0.89532  0.64373  0.38271  1.0000
  N   N174      1.0  0.83130  0.66415  0.54485  1.0000
  C   C2161     1.0  0.83615  0.67707  0.55008  1.0000
  C   C2162     1.0  0.83709  0.65020  0.53211  1.0000
  C   C2163     1.0  0.84708  0.67620  0.54255  1.0000
  C   C2164     1.0  0.84806  0.64881  0.52442  1.0000
  C   C2165     1.0  0.85305  0.66200  0.52961  1.0000
  C   C2166     1.0  0.81979  0.66579  0.55269  1.0000
  H   H2143     1.0  0.83154  0.68836  0.55990  1.0000
  H   H2144     1.0  0.83320  0.64025  0.52763  1.0000
  H   H2145     1.0  0.85083  0.68684  0.54637  1.0000
  H   H2146     1.0  0.85268  0.63765  0.51447  1.0000
  H   H2147     1.0  0.86153  0.66131  0.52348  1.0000
  H   H2148     1.0  0.81546  0.68192  0.54580  1.0000
  H   H2149     1.0  0.81695  0.65367  0.54826  1.0000
  H   H2150     1.0  0.81774  0.66327  0.57013  1.0000
  H   H2151     1.0  0.79442  0.62106  0.53070  1.0000
  C   C2167     1.0  0.89349  0.70077  0.63494  1.0000
  S   S724      1.0  0.94689  0.49708  0.36331  1.0000
  C   C2168     1.0  0.87833  0.52128  0.46727  1.0000
  H   H2152     1.0  0.89293  0.53024  0.40855  1.0000
  H   H2153     1.0  0.87995  0.68633  0.64178  1.0000
  S   S725      1.0  0.74544  0.52840  0.38134  1.0000
  C   C2169     1.0  0.80484  0.72449  0.61622  1.0000
  Fe  Fe359     1.0  0.75931  0.50096  0.38604  1.0000
  H   H2154     1.0  0.90174  0.63028  0.36126  1.0000
  H   H2155     1.0  0.87309  0.53578  0.41804  1.0000
  C   C2170     1.0  0.77228  0.58000  0.36915  1.0000
  C   C2171     1.0  0.78139  0.61270  0.56825  1.0000
  C   C2172     1.0  0.74821  0.49781  0.44684  1.0000
  S   S726      1.0  0.81962  0.58038  0.61525  1.0000
  H   H2156     1.0  0.86761  0.57941  0.62454  1.0000
  C   C2173     1.0  0.88874  0.52753  0.42502  1.0000
  H   H2157     1.0  0.81379  0.79192  0.35935  1.0000
  N   N175      1.0  0.80919  0.73699  0.59773  1.0000
  H   H2158     1.0  0.86688  0.71754  0.65449  1.0000
  H   H2159     1.0  0.87413  0.51937  0.48374  1.0000
  H   H2160     1.0  0.84846  0.77767  0.36926  1.0000
  C   C2174     1.0  0.77626  0.60190  0.58773  1.0000
  H   H2161     1.0  0.80365  0.77147  0.39178  1.0000
  N   N176      1.0  0.77616  0.56005  0.36462  1.0000
  S   S727      1.0  0.84614  0.57387  0.63319  1.0000
  H   H2162     1.0  0.76584  0.57103  0.56934  1.0000
  C   C2175     1.0  0.82823  0.75637  0.40328  1.0000
  H   H2163     1.0  0.84584  0.77235  0.39767  1.0000
  C   C2176     1.0  0.77005  0.58297  0.56917  1.0000
  N   N177      1.0  0.85860  0.56945  0.57198  1.0000
  C   C2177     1.0  0.86204  0.57436  0.55049  1.0000
  C   C2178     1.0  0.84907  0.56328  0.58078  1.0000
  C   C2179     1.0  0.85590  0.57314  0.53722  1.0000
  C   C2180     1.0  0.84280  0.56161  0.56795  1.0000
  C   C2181     1.0  0.84627  0.56656  0.54601  1.0000
  C   C2182     1.0  0.86482  0.57206  0.58562  1.0000
  H   H2164     1.0  0.86956  0.57931  0.54350  1.0000
  H   H2165     1.0  0.84623  0.55972  0.59780  1.0000
  H   H2166     1.0  0.85855  0.57742  0.52023  1.0000
  H   H2167     1.0  0.83515  0.55710  0.57490  1.0000
  H   H2168     1.0  0.84140  0.56572  0.53582  1.0000
  H   H2169     1.0  0.86471  0.55894  0.60005  1.0000
  H   H2170     1.0  0.87331  0.57180  0.57745  1.0000
  H   H2171     1.0  0.86135  0.58762  0.59056  1.0000
  H   H2172     1.0  0.81295  0.74888  0.42025  1.0000
  N   N178      1.0  0.86786  0.77422  0.59247  1.0000
  C   C2183     1.0  0.87650  0.75997  0.59895  1.0000
  C   C2184     1.0  0.86322  0.77008  0.57867  1.0000
  C   C2185     1.0  0.88047  0.74058  0.59221  1.0000
  C   C2186     1.0  0.86697  0.75083  0.57162  1.0000
  C   C2187     1.0  0.87563  0.73597  0.57854  1.0000
  C   C2188     1.0  0.86396  0.79461  0.59940  1.0000
  H   H2173     1.0  0.88034  0.76353  0.60947  1.0000
  H   H2174     1.0  0.85656  0.78167  0.57307  1.0000
  H   H2175     1.0  0.88727  0.72923  0.59755  1.0000
  H   H2176     1.0  0.86317  0.74755  0.56085  1.0000
  H   H2177     1.0  0.87865  0.72098  0.57321  1.0000
  H   H2178     1.0  0.75814  0.88691  0.35407  1.0000
  Fe  Fe360     1.0  0.82043  0.60751  0.58681  1.0000
  H   H2179     1.0  0.81071  0.74431  0.56419  1.0000
  S   S728      1.0  0.80687  0.63094  0.60158  1.0000
  S   S729      1.0  0.83287  0.61894  0.59462  1.0000
  H   H2180     1.0  0.79717  0.89078  0.39006  1.0000
  S   S730      1.0  0.82128  0.67433  0.60473  1.0000
  S   S731      1.0  0.90284  0.68073  0.62312  1.0000
  C   C2189     1.0  0.81784  0.78143  0.37156  1.0000
  C   C2190     1.0  0.82385  0.68304  0.62486  1.0000
  H   H2181     1.0  0.78790  0.61120  0.51671  1.0000
  Fe  Fe361     1.0  0.81930  0.64023  0.61194  1.0000
  H   H2182     1.0  0.77680  0.60489  0.60244  1.0000
  H   H2183     1.0  0.78730  0.54912  0.61399  1.0000
  C   C2191     1.0  0.74977  0.89814  0.32857  1.0000
  C   C2192     1.0  0.78391  0.55716  0.62707  1.0000
  C   C2193     1.0  0.78735  0.86080  0.43744  1.0000
  C   C2194     1.0  0.78924  0.57124  0.63028  1.0000
  H   H2184     1.0  0.83560  0.54750  0.49562  1.0000
  H   H2185     1.0  0.87628  0.59727  0.64062  1.0000
  C   C2195     1.0  0.77559  0.98248  0.33173  1.0000
  C   C2196     1.0  0.87240  0.52733  0.45158  1.0000
  C   C2197     1.0  0.78745  0.87544  0.41807  1.0000
  H   H2186     1.0  0.78004  0.88375  0.41307  1.0000
  H   H2187     1.0  0.79848  0.54522  0.38428  1.0000
  H   H2188     1.0  0.83289  0.78990  0.35588  1.0000
  C   C2198     1.0  0.92039  0.55047  0.38530  1.0000
  C   C2199     1.0  0.77060  0.58688  0.58814  1.0000
  C   C2200     1.0  0.77519  0.59421  0.54998  1.0000
  H   H2189     1.0  0.78596  0.62405  0.56804  1.0000
  H   H2190     1.0  0.81959  0.72039  0.57471  1.0000
  H   H2191     1.0  0.86378  0.52967  0.45592  1.0000
  H   H2192     1.0  0.83225  0.74674  0.41579  1.0000
  H   H2193     1.0  0.82423  0.55199  0.47054  1.0000
  Fe  Fe362     1.0  0.83090  0.59404  0.62451  1.0000
  H   H2194     1.0  0.98507  0.53841  0.34488  1.0000
  H   H2195     1.0  0.93475  0.53019  0.39423  1.0000
  H   H2196     1.0  0.76221  0.99177  0.35626  1.0000
  H   H2197     1.0  0.76084  0.92291  0.35235  1.0000
  N   N179      1.0  0.78091  0.60859  0.54972  1.0000
  S   S732      1.0  0.78965  0.85809  0.36377  1.0000
  H   H2198     1.0  0.77986  0.85742  0.44757  1.0000
  C   C2201     1.0  0.76848  0.97881  0.35126  1.0000
  H   H2199     1.0  0.75216  0.96316  0.34166  1.0000
  Fe  Fe363     1.0  0.94049  0.53018  0.34590  1.0000
  C   C2202     1.0  0.78724  0.57541  0.38476  1.0000
  S   S733      1.0  0.92503  0.55203  0.35792  1.0000
  C   C2203     1.0  0.89444  0.52101  0.44113  1.0000
  C   C2204     1.0  0.84497  0.76710  0.38398  1.0000
  S   S734      1.0  0.81970  0.83422  0.36815  1.0000
  N   N180      1.0  0.83371  0.76787  0.38553  1.0000
  C   C2205     1.0  0.82868  0.78021  0.36970  1.0000
  H   H2200     1.0  0.76943  0.53508  0.36322  1.0000
  C   C2206     1.0  0.80701  0.74768  0.63611  1.0000
  N   N181      1.0  0.88921  0.51801  0.46194  1.0000
  H   H2201     1.0  0.90530  0.71926  0.62984  1.0000
  N   N182      1.0  0.75311  0.93826  0.32662  1.0000
  C   C2207     1.0  0.75674  0.92098  0.34134  1.0000
  C   C2208     1.0  0.79123  0.55526  0.37972  1.0000
  C   C2209     1.0  0.73900  0.50414  0.43864  1.0000
  H   H2202     1.0  0.81581  0.76470  0.58341  1.0000
  S   S735      1.0  0.77146  0.49875  0.40469  1.0000
  S   S736      1.0  0.79163  0.59797  0.65298  1.0000
  C   C2210     1.0  0.77772  0.58790  0.37942  1.0000
  C   C2211     1.0  0.82028  0.67414  0.64621  1.0000
  Fe  Fe364     1.0  0.74996  0.52472  0.34764  1.0000
  C   C2212     1.0  0.81131  0.76048  0.61716  1.0000
  H   H2203     1.0  0.76213  0.56142  0.35399  1.0000
  H   H2204     1.0  0.80266  0.70992  0.61609  1.0000
  H   H2205     1.0  0.81617  0.66105  0.65065  1.0000
  S   S737      1.0  0.95616  0.54053  0.33594  1.0000
  H   H2206     1.0  0.76482  0.58970  0.36531  1.0000
  C   C2213     1.0  0.89695  0.71867  0.63547  1.0000
  C   C2214     1.0  0.86301  0.58675  0.63763  1.0000
  C   C2215     1.0  0.88265  0.70015  0.64217  1.0000
  C   C2216     1.0  0.87882  0.73572  0.64971  1.0000
  H   H2207     1.0  0.86815  0.67447  0.62508  1.0000
  Fe  Fe365     1.0  0.78860  0.85890  0.33090  1.0000
  H   H2208     1.0  0.84078  0.63534  0.62906  1.0000
  H   H2209     1.0  0.74696  0.54236  0.46285  1.0000
  H   H2210     1.0  0.94579  0.57888  0.65501  1.0000
  H   H2211     1.0  0.74844  0.88248  0.32936  1.0000
  H   H2212     1.0  0.79540  0.51526  0.64802  1.0000
  C   C2217     1.0  0.84680  0.64401  0.62795  1.0000
  H   H2213     1.0  0.95148  0.60030  0.63603  1.0000
  C   C2218     1.0  0.87527  0.71781  0.64929  1.0000
  N   N183      1.0  0.75098  0.51146  0.45541  1.0000
  C   C2219     1.0  0.84650  0.65294  0.64473  1.0000
  S   S738      1.0  0.89711  0.58844  0.65040  1.0000
  C   C2220     1.0  0.86210  0.66602  0.62590  1.0000
  S   S739      1.0  0.73935  0.50196  0.35264  1.0000
  H   H2214     1.0  0.89267  0.49798  0.49094  1.0000
  N   N184      1.0  0.85409  0.66377  0.64356  1.0000
  S   S740      1.0  0.82316  0.77262  0.65586  1.0000
  H   H2215     1.0  0.93955  0.60612  0.65583  1.0000
  H   H2216     1.0  0.75814  0.49579  0.48166  1.0000
  Fe  Fe366     1.0  0.74886  0.97207  0.88805  1.0000
  S   S741      1.0  0.76147  0.95237  0.86743  1.0000
  H   H2217     1.0  0.86040  0.81723  0.71156  1.0000
  S   S742      1.0  0.84061  0.75378  0.68606  1.0000
  S   S743      1.0  0.75104  0.91102  0.89589  1.0000
  C   C2221     1.0  0.85604  0.78602  0.69925  1.0000
  Fe  Fe367     1.0  0.76296  0.92826  0.89760  1.0000
  S   S744      1.0  0.77893  0.91082  0.90452  1.0000
  Fe  Fe368     1.0  0.74835  0.93738  0.86769  1.0000
  H   H2218     1.0  0.97731  0.56632  0.68130  1.0000
  S   S745      1.0  0.75133  0.94921  0.91859  1.0000
  C   C2222     1.0  0.96732  0.52201  0.90604  1.0000
  Fe  Fe369     1.0  0.81128  0.89361  0.79766  1.0000
  S   S746      1.0  0.82630  0.90360  0.77738  1.0000
  S   S747      1.0  0.81108  0.87164  0.82962  1.0000
  Fe  Fe370     1.0  0.79802  0.91938  0.76568  1.0000
  S   S748      1.0  0.81197  0.93122  0.74277  1.0000
  S   S749      1.0  0.78093  0.93049  0.76264  1.0000
  Fe  Fe371     1.0  0.82096  0.89710  0.75097  1.0000
  S   S750      1.0  0.83219  0.87933  0.72594  1.0000
  Fe  Fe372     1.0  0.81574  0.93657  0.77131  1.0000
  S   S751      1.0  0.81665  0.96998  0.77227  1.0000
  S   S752      1.0  0.80665  0.88498  0.77201  1.0000
  S   S753      1.0  0.80123  0.92674  0.79350  1.0000
  H   H2219     1.0  0.91768  0.61427  0.69474  1.0000
  H   H2220     1.0  0.97096  0.55254  0.88843  1.0000
  C   C2223     1.0  0.95655  0.52115  0.85253  1.0000
  C   C2224     1.0  0.96774  0.53913  0.88853  1.0000
  C   C2225     1.0  0.96711  0.59349  0.69342  1.0000
  H   H2221     1.0  0.81705  0.93316  0.85232  1.0000
  S   S754      1.0  0.86998  0.75894  0.65681  1.0000
  H   H2222     1.0  0.79410  0.95673  0.73077  1.0000
  C   C2226     1.0  0.83256  0.83569  0.69315  1.0000
  S   S755      1.0  0.86854  0.61799  0.67601  1.0000
  Fe  Fe373     1.0  0.73909  0.93400  0.91432  1.0000
  Fe  Fe374     1.0  0.85283  0.76251  0.65676  1.0000
  H   H2223     1.0  0.79006  0.84939  0.84941  1.0000
  S   S756      1.0  0.97103  0.58167  0.75206  1.0000
  Fe  Fe375     1.0  0.96946  0.52218  0.76410  1.0000
  S   S757      1.0  0.95820  0.54533  0.78307  1.0000
  H   H2224     1.0  0.98747  0.50883  0.96143  1.0000
  Fe  Fe376     1.0  0.95738  0.56803  0.75156  1.0000
  S   S758      1.0  0.94247  0.59129  0.74274  1.0000
  Fe  Fe377     1.0  0.97286  0.55651  0.78179  1.0000
  S   S759      1.0  0.97532  0.55719  0.81365  1.0000
  S   S760      1.0  0.96745  0.54369  0.73269  1.0000
  H   H2225     1.0  0.84719  0.66921  0.67495  1.0000
  Fe  Fe378     1.0  0.90904  0.60236  0.65742  1.0000
  H   H2226     1.0  0.84026  0.65077  0.65886  1.0000
  C   C2227     1.0  0.80825  0.93830  0.85430  1.0000
  H   H2227     1.0  0.75558  0.99462  0.91794  1.0000
  C   C2228     1.0  0.82328  0.82803  0.70371  1.0000
  H   H2228     1.0  0.97213  0.59297  0.70386  1.0000
  C   C2229     1.0  0.77519  0.57802  0.66070  1.0000
  C   C2230     1.0  0.76892  0.97159  0.75846  1.0000
  H   H2229     1.0  0.83148  0.94948  0.80020  1.0000
  H   H2230     1.0  0.94855  0.51709  0.85740  1.0000
  C   C2231     1.0  0.76758  0.88422  0.83718  1.0000
  H   H2231     1.0  0.90668  0.54997  0.68473  1.0000
  H   H2232     1.0  0.90107  0.53319  0.70911  1.0000
  C   C2232     1.0  0.78075  0.87961  0.80593  1.0000
  C   C2233     1.0  0.78683  0.96700  0.73702  1.0000
  C   C2234     1.0  0.77441  0.86985  0.84968  1.0000
  C   C2235     1.0  0.93646  0.58737  0.72413  1.0000
  C   C2236     1.0  0.92841  0.60378  0.71632  1.0000
  C   C2237     1.0  0.92378  0.60145  0.70083  1.0000
  C   C2238     1.0  0.92706  0.58247  0.69337  1.0000
  C   C2239     1.0  0.93500  0.56599  0.70137  1.0000
  C   C2240     1.0  0.93974  0.56847  0.71656  1.0000
  H   H2233     1.0  0.93757  0.55123  0.69571  1.0000
  H   H2234     1.0  0.94587  0.55567  0.72254  1.0000
  N   N185      1.0  0.77074  0.88873  0.81558  1.0000
  C   C2241     1.0  0.85145  0.60498  0.67218  1.0000
  C   C2242     1.0  0.82817  0.86091  0.71648  1.0000
  C   C2243     1.0  0.83770  0.81647  0.74954  1.0000
  H   H2235     1.0  0.75518  0.90248  0.80943  1.0000
  H   H2236     1.0  0.73970  0.51621  0.80225  1.0000
  C   C2244     1.0  0.78774  0.86500  0.81796  1.0000
  H   H2237     1.0  0.81033  0.98651  0.89033  1.0000
  H   H2238     1.0  0.76401  0.92086  0.80256  1.0000
  S   S761      1.0  0.75045  0.53213  0.69541  1.0000
  C   C2245     1.0  0.95970  0.50489  0.88816  1.0000
  Fe  Fe379     1.0  0.88531  0.61814  0.65752  1.0000
  H   H2239     1.0  0.77983  0.97118  0.89966  1.0000
  C   C2246     1.0  0.78039  0.51913  0.69629  1.0000
  C   C2247     1.0  0.95128  0.60935  0.67929  1.0000
  C   C2248     1.0  0.81872  0.85374  0.72649  1.0000
  C   C2249     1.0  0.96325  0.50479  0.90591  1.0000
  H   H2240     1.0  0.80907  0.83169  0.72831  1.0000
  C   C2250     1.0  0.79455  0.98045  0.89672  1.0000
  H   H2241     1.0  0.77819  0.95250  0.82393  1.0000
  H   H2242     1.0  0.78358  0.50554  0.66118  1.0000
  H   H2243     1.0  0.95519  0.62023  0.70316  1.0000
  H   H2244     1.0  0.96436  0.55220  0.85755  1.0000
  C   C2251     1.0  0.73800  0.99491  0.81332  1.0000
  H   H2245     1.0  0.78338  0.88379  0.78885  1.0000
  H   H2246     1.0  0.90609  0.58867  0.73639  1.0000
  H   H2247     1.0  0.83537  0.96217  0.82822  1.0000
  H   H2248     1.0  0.88165  0.57970  0.69752  1.0000
  C   C2252     1.0  0.95768  0.60897  0.69280  1.0000
  H   H2249     1.0  0.79721  0.56078  0.68846  1.0000
  N   N186      1.0  0.80361  0.95230  0.86950  1.0000
  C   C2253     1.0  0.83437  0.80029  0.74510  1.0000
  H   H2250     1.0  0.78205  0.55726  0.71951  1.0000
  Fe  Fe380     1.0  0.75685  0.51948  0.66562  1.0000
  C   C2254     1.0  0.78827  0.96914  0.89236  1.0000
  C   C2255     1.0  0.79255  0.54882  0.69102  1.0000
  H   H2251     1.0  0.83766  0.77848  0.72460  1.0000
  H   H2252     1.0  0.92585  0.61849  0.72208  1.0000
  C   C2256     1.0  0.88421  0.59908  0.71569  1.0000
  H   H2253     1.0  0.94391  0.62132  0.67911  1.0000
  C   C2257     1.0  0.80982  0.96324  0.87379  1.0000
  H   H2254     1.0  0.95600  0.53678  0.84089  1.0000
  H   H2255     1.0  0.94979  0.50641  0.79758  1.0000
  C   C2258     1.0  0.82178  0.68260  0.66191  1.0000
  H   H2256     1.0  0.79575  0.85797  0.81040  1.0000
  H   H2257     1.0  0.81895  0.67581  0.67845  1.0000
  H   H2258     1.0  0.83793  0.82882  0.68030  1.0000
  H   H2259     1.0  0.81337  0.86042  0.73942  1.0000
  H   H2260     1.0  0.80645  0.94691  0.83860  1.0000
  H   H2261     1.0  0.86446  0.78781  0.69459  1.0000
  H   H2262     1.0  0.98333  0.55444  0.84979  1.0000
  C   C2259     1.0  0.84719  0.82238  0.73757  1.0000
  C   C2260     1.0  0.83499  0.85206  0.69953  1.0000
  N   N187      1.0  0.84996  0.79600  0.71712  1.0000
  H   H2263     1.0  0.80130  0.53775  0.66279  1.0000
  H   H2264     1.0  0.78800  0.94651  0.87514  1.0000
  Fe  Fe381     1.0  0.75581  0.49816  0.71171  1.0000
  H   H2265     1.0  0.85624  0.76852  0.70333  1.0000
  C   C2261     1.0  0.96404  0.53879  0.87109  1.0000
  S   S762      1.0  0.98417  0.53201  0.76453  1.0000
  H   H2266     1.0  0.76571  0.90229  0.78621  1.0000
  C   C2262     1.0  0.79105  0.50780  0.66376  1.0000
  H   H2267     1.0  0.82675  0.79629  0.75360  1.0000
  S   S763      1.0  0.82871  0.71023  0.67610  1.0000
  C   C2263     1.0  0.78767  0.89988  0.88359  1.0000
  C   C2264     1.0  0.78554  0.90626  0.86330  1.0000
  C   C2265     1.0  0.79285  0.89808  0.84652  1.0000
  C   C2266     1.0  0.80214  0.88298  0.85013  1.0000
  C   C2267     1.0  0.80416  0.87629  0.87051  1.0000
  C   C2268     1.0  0.79701  0.88498  0.88714  1.0000
  H   H2268     1.0  0.77828  0.91743  0.86048  1.0000
  H   H2269     1.0  0.79105  0.90277  0.83102  1.0000
  H   H2270     1.0  0.81131  0.86453  0.87339  1.0000
  H   H2271     1.0  0.79868  0.87998  0.90283  1.0000
  C   C2269     1.0  0.77414  0.96180  0.81083  1.0000
  C   C2270     1.0  0.78564  0.98925  0.73032  1.0000
  H   H2272     1.0  0.78836  0.97699  0.77717  1.0000
  H   H2273     1.0  0.88913  0.61562  0.73364  1.0000
  H   H2274     1.0  0.79105  0.99140  0.90737  1.0000
  H   H2275     1.0  0.75976  0.89184  0.84489  1.0000
  C   C2271     1.0  0.80539  0.97758  0.88731  1.0000
  H   H2276     1.0  0.84227  0.85763  0.69158  1.0000
  C   C2272     1.0  0.77863  0.95811  0.75158  1.0000
  H   H2277     1.0  0.76248  0.96483  0.76959  1.0000
  C   C2273     1.0  0.84635  0.59571  0.66235  1.0000
  H   H2278     1.0  0.77127  0.53018  0.72459  1.0000
  H   H2279     1.0  0.96224  0.50874  0.84439  1.0000
  Fe  Fe382     1.0  0.83431  0.74139  0.66506  1.0000
  C   C2274     1.0  0.74085  0.95606  0.82287  1.0000
  C   C2275     1.0  0.82246  0.99000  0.82727  1.0000
  C   C2276     1.0  0.76356  0.90429  0.80283  1.0000
  H   H2280     1.0  0.81827  0.96104  0.86670  1.0000
  S   S764      1.0  0.92156  0.57845  0.67405  1.0000
  C   C2277     1.0  0.82862  0.97095  0.82121  1.0000
  C   C2278     1.0  0.96335  0.57916  0.66759  1.0000
  H   H2281     1.0  0.77197  0.86670  0.86681  1.0000
  C   C2279     1.0  0.84059  0.79026  0.72864  1.0000
  H   H2282     1.0  0.84700  0.61181  0.68572  1.0000
  C   C2280     1.0  0.78453  0.86008  0.83994  1.0000
  H   H2283     1.0  0.77566  0.50742  0.69862  1.0000
  N   N188      1.0  0.89634  0.56671  0.70782  1.0000
  C   C2281     1.0  0.88698  0.58138  0.70629  1.0000
  C   C2282     1.0  0.90308  0.56910  0.71867  1.0000
  H   H2284     1.0  0.89304  0.54776  0.69007  1.0000
  C   C2283     1.0  0.90058  0.58663  0.72822  1.0000
  C   C2284     1.0  0.89109  0.60174  0.72662  1.0000
  C   C2285     1.0  0.89939  0.54849  0.69746  1.0000
  C   C2286     1.0  0.86225  0.60566  0.66433  1.0000
  H   H2285     1.0  0.91062  0.55774  0.71943  1.0000
  H   H2286     1.0  0.87686  0.61085  0.71411  1.0000
  Fe  Fe383     1.0  0.83063  0.78591  0.67436  1.0000
  N   N189      1.0  0.78861  0.52145  0.67904  1.0000
  C   C2287     1.0  0.82686  0.69993  0.65627  1.0000
  C   C2288     1.0  0.82637  0.96362  0.80547  1.0000
  S   S765      1.0  0.74132  0.51205  0.66545  1.0000
  H   H2287     1.0  0.76450  0.99437  0.83015  1.0000
  H   H2288     1.0  0.85231  0.79350  0.68538  1.0000
  S   S766      1.0  0.82040  0.80580  0.69821  1.0000
  H   H2289     1.0  0.84953  0.83572  0.74024  1.0000
  C   C2289     1.0  0.81630  0.83740  0.72014  1.0000
  H   H2290     1.0  0.97022  0.52200  0.91964  1.0000
  C   C2290     1.0  0.79295  0.95516  0.87851  1.0000
  H   H2291     1.0  0.83271  0.82513  0.76155  1.0000
  C   C2291     1.0  0.81798  0.97541  0.79558  1.0000
  C   C2292     1.0  0.85324  0.81197  0.72126  1.0000
  N   N190      1.0  0.96009  0.52178  0.87108  1.0000
  H   H2292     1.0  0.83800  0.59527  0.66839  1.0000
  H   H2293     1.0  0.77176  0.58608  0.67377  1.0000
  Fe  Fe384     1.0  0.98110  0.55581  0.73500  1.0000
  H   H2294     1.0  0.80501  0.92349  0.85978  1.0000
  H   H2295     1.0  0.76545  0.96223  0.81609  1.0000
  C   C2293     1.0  0.78378  0.98881  0.78648  1.0000
  N   N191      1.0  0.77613  0.98360  0.80414  1.0000
  C   C2294     1.0  0.78399  0.54697  0.70835  1.0000
  C   C2295     1.0  0.79479  0.53580  0.67647  1.0000
  N   N192      1.0  0.95412  0.59444  0.66703  1.0000
  C   C2296     1.0  0.97000  0.57849  0.68073  1.0000
  C   C2297     1.0  0.77790  0.53194  0.71111  1.0000
  H   H2296     1.0  0.76240  0.56150  0.66794  1.0000
  S   S767      1.0  0.89678  0.63044  0.66774  1.0000
  H   H2297     1.0  0.77714  0.95320  0.79761  1.0000
  H   H2298     1.0  0.96560  0.56733  0.65790  1.0000
  H   H2299     1.0  0.74612  0.97509  0.83777  1.0000
  C   C2298     1.0  0.85374  0.67313  0.66118  1.0000
  C   C2299     1.0  0.74207  0.97527  0.82583  1.0000
  S   S768      1.0  0.74574  0.93147  0.83864  1.0000
  H   H2300     1.0  0.86134  0.66675  0.66672  1.0000
  C   C2300     1.0  0.81156  0.99391  0.80231  1.0000
  H   H2301     1.0  0.94152  0.49830  0.83589  1.0000
  C   C2301     1.0  0.98686  0.56389  0.81576  1.0000
  H   H2302     1.0  0.75879  0.99274  0.71239  1.0000
  C   C2302     1.0  0.76993  0.56386  0.65759  1.0000
  C   C2303     1.0  0.76769  0.99395  0.75165  1.0000
  C   C2304     1.0  0.98780  0.50139  0.94875  1.0000
  H   H2303     1.0  0.98020  0.50963  0.81106  1.0000
  H   H2304     1.0  0.85236  0.69089  0.65615  1.0000
