data_image0
_chemical_formula_structural       FeSHFeSFeSFeS3FeS2FeS2FeHSHC2H2C6H4CHCHCHCHCHCH4SHC2NC2SCH2SH2CSHC3HC2FeCH2C2HSHFeHSH2NC3H3CHCH4NHCNC2HFeSHFeS2FeSFeS3FeSH4NSFeSCH5FeS2FeSFeSFeS3FeS2FeSFeSFeS3C6H5C4NH4CHC4H3NHC2H4C4H2C2SHC2H2C6H4C6H4C6H5NC2H2SC4NC6H5SH2C3HNH2C4H2C5H3SC3SCH4NHCH2C2HC2H2C3HC3NH4C2HFeC2HCHCHCSCH2CH2CH2CH2CH2C2HCH4NCHFeS2CSFeHFeS4FeSFeSCFeSFeS3H2C3H5C2HNFeSC7H3C3HCH3S2CFeNC2H2NC6H9CHCHCHCHCHCH3S2H3CH2C2HC4FeS2FeHFeCS2FeS2FeSFeSFeCS3CFeS2FeSFeS2H2CFeS2FeH7CSNSC3HC6H4C6H5SHC7FeH4CH2CHCHC6H5NHCHCHC6HSH2C3HC2HNSH2CHCHCHCH2CHCSHC2SCHSH2CSHCHC3HSHCH3CNCHN2C7HCH2FeHCNHCHCHC2HCHCHCHSHCH2SC2S2CHCH9SHFeSCS2HSCFeS2FeS2FeSFeS3CSCFeSHFeSFeSCSH2SFeC7H4SHNC3H2CHCHCHCH8C5H3CHCH2CHC3HC3HC2HCH2C6H3CHSNHCH3CHCFeC2H2NHCHCNH2C2FeH4C5H2CHSC4HC2HFeH2C2H2NHCHCHSHC2HCHNC2H2SCHC2H3CH5C2H2CHFeSCHFeHCHFeSFeS2FeSFeS3FeSFeS2FeSFeS3C2HFeSH5CNCSCFeS2FeS2FeSFeS3FeS2FeS2Fe2S3C6H4C6H4C6H5CHSHC6H4C6H4C2NH2SH2CHCHNHC2H2CHC6H6NC6H8CHCNC6H3CH4NC6H8C3H2S2C2HC3NC6H4C4SHCH2CH4C4NC2H2NC2HCHNHC2HSHCHFeCH3NC4HCHCHCH2CHCHCHCH2CH5CH3CHCH2CSCH2CHSH3CH3FeHSCFeSHFeS2FeSFeS3FeS2FeS2FeHFeS3CH3SC2FeSH2S2FeS2FeS2FeSFeS3C2H3C6H4NH5CHC6HCH4C6H4CH2FeC4H2C6H4C6H5C2NSHC3HSCH2CHNC6H4C2H8C3HCHNC6H3NC2H5CHC2H2SN2FeHCSC3HC2HC2HC3H2C2HC2H6C2HCH3CHC2H2SHCSCFeS2HCNCHFeS3CFeHFeS2FeSHFeSFeS3HSHC4H5C6H7FeH2C4HSC5HCH3C4HC2H2C6NC6H8CHNC6H5SHCHFeNSCHCH2CH2CH2C2FeSC2H2FeCH2C3SC2SH3SCHC2FeHNHCSHCFeHFeCH3SC2HCNCH3CSC3HC2SHCNH2CNSCHCFeCHC5SH2NSHC3H3CNFeNC2H2CH7C3H2C3HCNHCS2HC4H2S2C2H2SHSCSCHC2HCH3FeSH4CHC4HC7H6NH4CH2CHFeSFe2H2S2FeHCHSCHSC2FeH2C2SH4CHC3FeHNCH2C2NCSCHSH2C4FeH2CHC2HCHC2SHSFeHC2H2FeS2FeS2FeSFeS3FeS2FeS2FeSFeS3CS2CHSFeS3FeSFeCSFeS2FeSHFeSFeS3C6H2CH2C3H2CHC12H4C6H4C3H2C6H4C6H4C6H4CH3C3H3C2NC6H8NC2H3CHCHC2SH2CH2CHC2H3N2FeHCH6CHS2HSCH2CHCHCFeH2C4NHCH3C4HCH4C2HN2HC3H4CH9C4NHCHSFeCSH2CH2C2HCHCHC2H2C2H2CS3CHSHCFeSC3FeS2C2NSCSH2CHFeC4H4CFeCHSHNCH3C4HC2H2SHFeCH2C2HCSH2CHCHC2FeHCH3CH2C
_chemical_formula_sum              "Fe144 S288 H864 C864 N72"
_cell_length_a       85.6177
_cell_length_b       85.2272
_cell_length_c       32.4983
_cell_angle_alpha    85.2482
_cell_angle_beta     84.0537
_cell_angle_gamma    109.163

_space_group_name_H-M_alt    "P 1"
_space_group_IT_number       1

loop_
  _space_group_symop_operation_xyz
  'x, y, z'

loop_
  _atom_site_type_symbol
  _atom_site_label
  _atom_site_symmetry_multiplicity
  _atom_site_fract_x
  _atom_site_fract_y
  _atom_site_fract_z
  _atom_site_occupancy
  Fe  Fe1       1.0  0.02649  0.43586  0.53908  1.0000
  S   S1        1.0  0.05227  0.43988  0.50657  1.0000
  H   H1        1.0  0.02770  0.40229  0.39797  1.0000
  Fe  Fe2       1.0  0.03497  0.47248  0.55158  1.0000
  S   S2        1.0  0.06127  0.47972  0.51948  1.0000
  Fe  Fe3       1.0  0.04965  0.46285  0.47235  1.0000
  S   S3        1.0  0.05261  0.47211  0.40313  1.0000
  Fe  Fe4       1.0  0.06166  0.45636  0.55658  1.0000
  S   S4        1.0  0.08011  0.45321  0.60018  1.0000
  S   S5        1.0  0.02329  0.45769  0.50247  1.0000
  S   S6        1.0  0.03591  0.45022  0.59120  1.0000
  Fe  Fe5       1.0  0.04681  0.44236  0.18508  1.0000
  S   S7        1.0  0.01985  0.43981  0.19665  1.0000
  S   S8        1.0  0.05789  0.43547  0.24153  1.0000
  Fe  Fe6       1.0  0.05014  0.45479  0.09162  1.0000
  S   S9        1.0  0.02312  0.45309  0.09744  1.0000
  S   S10       1.0  0.06258  0.46674  0.02565  1.0000
  Fe  Fe7       1.0  0.01761  0.42858  0.13662  1.0000
  H   H2        1.0  0.13862  0.46484  0.65417  1.0000
  S   S11       1.0  0.04421  0.42912  0.12712  1.0000
  H   H3        1.0  0.01969  0.41482  0.27315  1.0000
  C   C1        1.0  0.10507  0.45926  0.97548  1.0000
  C   C2        1.0  0.15723  0.46234  0.69185  1.0000
  H   H4        1.0  0.10250  0.48708  0.89752  1.0000
  H   H5        1.0  0.07201  0.48243  0.71624  1.0000
  C   C3        1.0  0.05400  0.46141  0.35910  1.0000
  C   C4        1.0  0.05915  0.44742  0.36040  1.0000
  C   C5        1.0  0.06058  0.43975  0.32402  1.0000
  C   C6        1.0  0.05656  0.44576  0.28634  1.0000
  C   C7        1.0  0.05120  0.45960  0.28526  1.0000
  C   C8        1.0  0.05009  0.46747  0.32135  1.0000
  H   H6        1.0  0.06240  0.44277  0.38911  1.0000
  H   H7        1.0  0.06480  0.42908  0.32507  1.0000
  H   H8        1.0  0.04798  0.46428  0.25654  1.0000
  H   H9        1.0  0.04611  0.47827  0.32011  1.0000
  C   C9        1.0  0.14998  0.47127  0.66665  1.0000
  H   H10       1.0  0.15154  0.44886  0.69913  1.0000
  C   C10       1.0  0.01401  0.43262  0.36079  1.0000
  H   H11       1.0  0.15159  0.49555  0.63860  1.0000
  C   C11       1.0  0.09768  0.46311  0.66544  1.0000
  H   H12       1.0  0.01280  0.42012  0.95289  1.0000
  C   C12       1.0  0.11621  0.49134  0.66988  1.0000
  H   H13       1.0  0.11285  0.45207  0.98390  1.0000
  C   C13       1.0  0.09368  0.46829  0.62680  1.0000
  H   H14       1.0  0.09211  0.45011  0.67875  1.0000
  C   C14       1.0  0.10948  0.46976  0.93726  1.0000
  H   H15       1.0  0.09844  0.48918  0.57968  1.0000
  H   H16       1.0  0.11152  0.47044  0.71700  1.0000
  H   H17       1.0  0.99874  0.43745  0.60608  1.0000
  H   H18       1.0  0.05879  0.47008  0.66037  1.0000
  S   S12       1.0  0.05515  0.46799  0.14878  1.0000
  H   H19       1.0  0.08757  0.45003  0.03245  1.0000
  C   C15       1.0  0.09931  0.47896  0.92674  1.0000
  C   C16       1.0  0.02355  0.40986  0.37608  1.0000
  N   N1        1.0  0.01846  0.42252  0.38884  1.0000
  C   C17       1.0  0.10113  0.48506  0.60969  1.0000
  C   C18       1.0  0.01891  0.42611  0.43211  1.0000
  S   S13       1.0  0.15211  0.48778  0.78660  1.0000
  C   C19       1.0  0.05979  0.48237  0.64362  1.0000
  H   H20       1.0  0.04741  0.48405  0.64756  1.0000
  H   H21       1.0  0.07719  0.48487  0.94553  1.0000
  S   S14       1.0  0.02384  0.48937  0.58411  1.0000
  H   H22       1.0  0.02412  0.40253  0.06874  1.0000
  H   H23       1.0  0.06341  0.48177  0.61013  1.0000
  C   C20       1.0  0.11245  0.49645  0.63093  1.0000
  S   S15       1.0  0.00636  0.41043  0.55455  1.0000
  H   H24       1.0  0.01079  0.44318  0.37050  1.0000
  C   C21       1.0  0.02385  0.40676  0.33442  1.0000
  C   C22       1.0  0.01678  0.40051  0.04315  1.0000
  C   C23       1.0  0.01405  0.42979  0.31898  1.0000
  H   H25       1.0  0.04118  0.43237  0.97551  1.0000
  C   C24       1.0  0.09075  0.45808  0.00308  1.0000
  C   C25       1.0  0.08061  0.46730  0.99241  1.0000
  Fe  Fe8       1.0  0.02781  0.46436  0.15648  1.0000
  C   C26       1.0  0.10873  0.47459  0.68713  1.0000
  H   H26       1.0  0.17756  0.46407  0.72740  1.0000
  H   H27       1.0  0.03103  0.43581  0.43461  1.0000
  C   C27       1.0  0.08494  0.47768  0.95409  1.0000
  C   C28       1.0  0.03430  0.42827  0.00762  1.0000
  H   H28       1.0  0.02954  0.43822  0.01747  1.0000
  S   S16       1.0  0.01831  0.48461  0.17505  1.0000
  H   H29       1.0  0.04354  0.42709  0.02828  1.0000
  Fe  Fe9       1.0  0.13972  0.49152  0.84858  1.0000
  H   H30       1.0  0.23029  0.49337  0.86510  1.0000
  S   S17       1.0  0.12800  0.47144  0.90429  1.0000
  H   H31       1.0  0.11528  0.48942  0.02887  1.0000
  H   H32       1.0  0.00865  0.43075  0.44268  1.0000
  N   N2        1.0  0.02038  0.41249  0.00950  1.0000
  C   C29       1.0  0.01036  0.41034  0.97872  1.0000
  C   C30       1.0  0.01899  0.41676  0.30581  1.0000
  C   C31       1.0  0.00305  0.38576  0.04617  1.0000
  H   H33       1.0  0.01731  0.41473  0.45389  1.0000
  H   H34       1.0  0.04594  0.49383  0.10923  1.0000
  H   H35       1.0  0.01084  0.43800  0.29659  1.0000
  C   C32       1.0  0.15734  0.48868  0.65808  1.0000
  H   H36       1.0  0.02829  0.39701  0.32402  1.0000
  C   C33       1.0  0.17180  0.47086  0.70770  1.0000
  H   H37       1.0  0.09033  0.48986  0.06593  1.0000
  H   H38       1.0  0.20526  0.49843  0.84275  1.0000
  H   H39       1.0  0.19002  0.49483  0.71140  1.0000
  H   H40       1.0  0.99982  0.37667  0.07386  1.0000
  N   N3        1.0  0.07231  0.49630  0.65822  1.0000
  H   H41       1.0  0.06061  0.49795  0.23736  1.0000
  C   C34       1.0  0.17877  0.48829  0.69866  1.0000
  N   N4        1.0  0.17129  0.49699  0.67494  1.0000
  C   C35       1.0  0.07707  0.49439  0.69671  1.0000
  C   C36       1.0  0.11583  0.50016  0.00765  1.0000
  H   H42       1.0  0.13661  0.49862  0.96630  1.0000
  Fe  Fe10      1.0  0.18609  0.68185  0.79609  1.0000
  S   S18       1.0  0.17910  0.65992  0.84723  1.0000
  H   H43       1.0  0.08251  0.59892  0.66695  1.0000
  Fe  Fe11      1.0  0.16347  0.66040  0.73772  1.0000
  S   S19       1.0  0.15527  0.63754  0.78422  1.0000
  S   S20       1.0  0.15726  0.65849  0.67130  1.0000
  Fe  Fe12      1.0  0.15275  0.65426  0.83263  1.0000
  S   S21       1.0  0.12751  0.64306  0.87356  1.0000
  Fe  Fe13      1.0  0.18189  0.64478  0.79481  1.0000
  S   S22       1.0  0.19353  0.62459  0.79060  1.0000
  S   S23       1.0  0.15924  0.67701  0.78476  1.0000
  S   S24       1.0  0.19067  0.66692  0.74506  1.0000
  Fe  Fe14      1.0  0.17334  0.51108  0.79438  1.0000
  S   S25       1.0  0.16180  0.52810  0.76215  1.0000
  H   H44       1.0  0.18167  0.72197  0.74669  1.0000
  H   H45       1.0  0.08396  0.51989  0.19132  1.0000
  H   H46       1.0  0.22066  0.69261  0.64107  1.0000
  H   H47       1.0  0.19758  0.54091  0.83877  1.0000
  N   N5        1.0  0.21419  0.56576  0.81825  1.0000
  S   S26       1.0  0.02110  0.58332  0.51225  1.0000
  Fe  Fe15      1.0  0.14896  0.52868  0.82496  1.0000
  S   S27       1.0  0.14514  0.55069  0.85292  1.0000
  C   C37       1.0  0.17852  0.51527  0.66615  1.0000
  H   H48       1.0  0.04557  0.62375  0.30207  1.0000
  H   H49       1.0  0.10571  0.53315  0.69523  1.0000
  H   H50       1.0  0.06329  0.56653  0.23245  1.0000
  H   H51       1.0  0.05072  0.50863  0.51986  1.0000
  H   H52       1.0  0.09621  0.53664  0.62610  1.0000
  Fe  Fe16      1.0  0.07821  0.61470  0.56173  1.0000
  S   S28       1.0  0.09586  0.60454  0.52625  1.0000
  S   S29       1.0  0.08519  0.63127  0.61322  1.0000
  Fe  Fe17      1.0  0.04779  0.59218  0.52584  1.0000
  S   S30       1.0  0.06325  0.57970  0.49022  1.0000
  Fe  Fe18      1.0  0.07579  0.57976  0.54729  1.0000
  S   S31       1.0  0.08130  0.55843  0.57994  1.0000
  Fe  Fe19      1.0  0.08149  0.60567  0.47210  1.0000
  S   S32       1.0  0.09334  0.61484  0.40466  1.0000
  S   S33       1.0  0.05857  0.58961  0.58492  1.0000
  S   S34       1.0  0.06561  0.61839  0.50565  1.0000
  Fe  Fe20      1.0  0.08280  0.61265  0.10201  1.0000
  S   S35       1.0  0.08547  0.59593  0.15653  1.0000
  S   S36       1.0  0.10478  0.63480  0.06866  1.0000
  Fe  Fe21      1.0  0.04581  0.59270  0.10330  1.0000
  S   S37       1.0  0.04542  0.57433  0.15683  1.0000
  Fe  Fe22      1.0  0.06072  0.59650  0.18558  1.0000
  S   S38       1.0  0.05194  0.59439  0.25513  1.0000
  Fe  Fe23      1.0  0.07010  0.57510  0.12464  1.0000
  S   S39       1.0  0.07718  0.55238  0.11620  1.0000
  S   S40       1.0  0.05915  0.61519  0.13396  1.0000
  S   S41       1.0  0.06932  0.59155  0.06830  1.0000
  C   C38       1.0  0.08272  0.60674  0.36292  1.0000
  C   C39       1.0  0.06630  0.59556  0.37006  1.0000
  C   C40       1.0  0.05738  0.59110  0.33635  1.0000
  C   C41       1.0  0.06475  0.59779  0.29520  1.0000
  C   C42       1.0  0.08147  0.60819  0.28777  1.0000
  C   C43       1.0  0.09041  0.61266  0.32158  1.0000
  H   H53       1.0  0.06022  0.59087  0.40164  1.0000
  H   H54       1.0  0.04447  0.58296  0.34238  1.0000
  H   H55       1.0  0.08731  0.61340  0.25621  1.0000
  H   H56       1.0  0.10316  0.62124  0.31575  1.0000
  H   H57       1.0  0.17865  0.54996  0.88700  1.0000
  C   C44       1.0  0.04390  0.62178  0.33591  1.0000
  C   C45       1.0  0.05963  0.51975  0.11203  1.0000
  C   C46       1.0  0.06016  0.53395  0.13116  1.0000
  C   C47       1.0  0.04750  0.53308  0.16307  1.0000
  N   N6        1.0  0.10441  0.50810  0.01434  1.0000
  H   H58       1.0  0.16531  0.70978  0.72088  1.0000
  H   H59       1.0  0.06927  0.52051  0.08694  1.0000
  H   H60       1.0  0.04816  0.54380  0.17902  1.0000
  H   H61       1.0  0.00850  0.57196  0.14478  1.0000
  C   C48       1.0  0.09087  0.52485  0.64636  1.0000
  H   H62       1.0  0.01782  0.58911  0.59923  1.0000
  C   C49       1.0  0.06382  0.53106  0.54522  1.0000
  C   C50       1.0  0.06447  0.54007  0.57944  1.0000
  C   C51       1.0  0.05218  0.53383  0.61429  1.0000
  C   C52       1.0  0.03939  0.51843  0.61518  1.0000
  H   H63       1.0  0.00388  0.51008  0.54120  1.0000
  H   H64       1.0  0.07328  0.53590  0.51816  1.0000
  H   H65       1.0  0.05269  0.54081  0.64077  1.0000
  N   N7        1.0  0.00756  0.53064  0.57675  1.0000
  H   H66       1.0  0.11745  0.53758  0.92973  1.0000
  C   C53       1.0  0.21787  0.71139  0.67895  1.0000
  C   C54       1.0  0.10502  0.52152  0.98720  1.0000
  H   H67       1.0  0.02939  0.53390  0.53378  1.0000
  H   H68       1.0  0.01899  0.54886  0.52441  1.0000
  H   H69       1.0  0.08910  0.54976  0.19823  1.0000
  H   H70       1.0  0.22804  0.59179  0.80099  1.0000
  C   C55       1.0  0.12800  0.50536  0.97244  1.0000
  C   C56       1.0  0.05445  0.62716  0.40001  1.0000
  C   C57       1.0  0.03909  0.50913  0.58156  1.0000
  C   C58       1.0  0.05306  0.51582  0.27022  1.0000
  H   H71       1.0  0.08290  0.64184  0.35088  1.0000
  H   H72       1.0  0.09338  0.59888  0.61751  1.0000
  C   C59       1.0  0.04655  0.50465  0.12497  1.0000
  C   C60       1.0  0.09605  0.52294  0.68522  1.0000
  S   S42       1.0  0.16190  0.51345  0.85803  1.0000
  H   H73       1.0  0.07527  0.51270  0.60267  1.0000
  C   C61       1.0  0.21211  0.69822  0.65538  1.0000
  C   C62       1.0  0.99980  0.56883  0.12238  1.0000
  H   H74       1.0  0.06449  0.63349  0.41702  1.0000
  H   H75       1.0  0.09414  0.64645  0.89230  1.0000
  C   C63       1.0  0.11255  0.63550  0.01545  1.0000
  C   C64       1.0  0.10376  0.62407  0.99039  1.0000
  C   C65       1.0  0.10912  0.62603  0.94730  1.0000
  C   C66       1.0  0.12350  0.63925  0.92872  1.0000
  C   C67       1.0  0.13267  0.65039  0.95389  1.0000
  C   C68       1.0  0.12712  0.64858  0.99704  1.0000
  H   H76       1.0  0.09248  0.61407  0.00381  1.0000
  H   H77       1.0  0.10185  0.61746  0.92805  1.0000
  H   H78       1.0  0.14361  0.66079  0.93989  1.0000
  H   H79       1.0  0.13399  0.65753  0.01609  1.0000
  C   C69       1.0  0.13703  0.65046  0.65645  1.0000
  C   C70       1.0  0.13547  0.64560  0.61633  1.0000
  C   C71       1.0  0.11967  0.63933  0.60300  1.0000
  C   C72       1.0  0.10528  0.63831  0.62931  1.0000
  C   C73       1.0  0.10684  0.64325  0.66937  1.0000
  C   C74       1.0  0.12261  0.64911  0.68311  1.0000
  H   H80       1.0  0.14655  0.64670  0.59537  1.0000
  H   H81       1.0  0.11868  0.63574  0.57196  1.0000
  H   H82       1.0  0.09578  0.64261  0.68983  1.0000
  H   H83       1.0  0.12362  0.65290  0.71396  1.0000
  C   C75       1.0  0.17886  0.60427  0.80396  1.0000
  C   C76       1.0  0.16538  0.60118  0.83532  1.0000
  C   C77       1.0  0.15479  0.58470  0.84908  1.0000
  C   C78       1.0  0.15746  0.57122  0.83120  1.0000
  C   C79       1.0  0.17049  0.57434  0.79847  1.0000
  C   C80       1.0  0.18126  0.59084  0.78511  1.0000
  H   H84       1.0  0.16345  0.61146  0.85009  1.0000
  H   H85       1.0  0.14471  0.58239  0.87432  1.0000
  H   H86       1.0  0.17263  0.56403  0.78445  1.0000
  H   H87       1.0  0.19164  0.59320  0.76069  1.0000
  H   H88       1.0  0.08755  0.58049  0.65525  1.0000
  N   N8        1.0  0.06929  0.54480  0.24845  1.0000
  C   C81       1.0  0.07921  0.54028  0.21934  1.0000
  C   C82       1.0  0.02692  0.60708  0.40055  1.0000
  H   H89       1.0  0.20951  0.60121  0.84886  1.0000
  H   H90       1.0  0.23093  0.71614  0.68325  1.0000
  S   S43       1.0  0.02503  0.59061  0.06390  1.0000
  C   C83       1.0  0.08906  0.50766  0.71071  1.0000
  C   C84       1.0  0.00609  0.58043  0.59319  1.0000
  C   C85       1.0  0.21729  0.50418  0.82374  1.0000
  C   C86       1.0  0.19330  0.57613  0.87252  1.0000
  N   N9        1.0  0.10811  0.60097  0.66688  1.0000
  C   C87       1.0  0.10855  0.60523  0.70655  1.0000
  C   C88       1.0  0.12254  0.60231  0.64213  1.0000
  C   C89       1.0  0.12377  0.61136  0.72207  1.0000
  C   C90       1.0  0.13799  0.60848  0.65658  1.0000
  C   C91       1.0  0.13857  0.61306  0.69678  1.0000
  C   C92       1.0  0.09208  0.59439  0.65114  1.0000
  H   H91       1.0  0.09713  0.60429  0.72607  1.0000
  H   H92       1.0  0.12215  0.59896  0.61065  1.0000
  H   H93       1.0  0.12413  0.61514  0.75314  1.0000
  H   H94       1.0  0.14946  0.61008  0.63647  1.0000
  H   H95       1.0  0.15051  0.61827  0.70797  1.0000
  S   S44       1.0  0.20160  0.70955  0.79934  1.0000
  H   H96       1.0  0.23255  0.70110  0.79547  1.0000
  H   H97       1.0  0.07461  0.63895  0.30284  1.0000
  C   C93       1.0  0.05118  0.51553  0.54641  1.0000
  C   C94       1.0  0.20658  0.71821  0.69787  1.0000
  C   C95       1.0  0.20045  0.55413  0.84172  1.0000
  H   H98       1.0  0.08489  0.57063  0.23873  1.0000
  N   N10       1.0  0.05650  0.62989  0.35740  1.0000
  H   H99       1.0  0.04818  0.53646  0.29591  1.0000
  H   H100      1.0  0.22775  0.54946  0.80475  1.0000
  C   C96       1.0  0.18982  0.55913  0.86927  1.0000
  C   C97       1.0  0.05894  0.62951  0.02328  1.0000
  C   C98       1.0  0.22331  0.72171  0.79604  1.0000
  C   C99       1.0  0.23588  0.71453  0.79459  1.0000
  H   H101      1.0  0.05026  0.62300  0.05090  1.0000
  H   H102      1.0  0.06935  0.56489  0.28374  1.0000
  C   C100      1.0  0.00441  0.57562  0.55334  1.0000
  C   C101      1.0  0.05627  0.53285  0.27349  1.0000
  C   C102      1.0  0.02899  0.61014  0.35711  1.0000
  C   C103      1.0  0.00211  0.50282  0.09081  1.0000
  C   C104      1.0  0.00151  0.53678  0.61008  1.0000
  H   H103      1.0  0.08765  0.66438  0.89937  1.0000
  H   H104      1.0  0.10530  0.66195  0.92193  1.0000
  H   H105      1.0  0.17856  0.73039  0.69632  1.0000
  S   S45       1.0  0.12608  0.50701  0.81944  1.0000
  C   C105      1.0  0.20719  0.58792  0.84797  1.0000
  C   C106      1.0  0.09257  0.65520  0.91466  1.0000
  C   C107      1.0  0.23450  0.52165  0.76235  1.0000
  S   S46       1.0  0.20116  0.51846  0.76860  1.0000
  C   C108      1.0  0.11703  0.52705  0.95164  1.0000
  H   H106      1.0  0.17108  0.69412  0.66743  1.0000
  H   H107      1.0  0.18627  0.51889  0.63505  1.0000
  H   H108      1.0  0.06536  0.62820  0.91914  1.0000
  H   H109      1.0  0.09509  0.66193  0.99321  1.0000
  N   N11       1.0  0.08124  0.64606  0.95239  1.0000
  H   H110      1.0  0.02480  0.51720  0.20139  1.0000
  C   C109      1.0  0.03964  0.61575  0.42216  1.0000
  H   H111      1.0  0.11826  0.50935  0.61711  1.0000
  H   H112      1.0  0.04541  0.61315  0.98236  1.0000
  C   C110      1.0  0.08401  0.65150  0.99032  1.0000
  C   C111      1.0  0.06753  0.63254  0.94916  1.0000
  H   H113      1.0  0.19050  0.68178  0.63294  1.0000
  C   C112      1.0  0.18424  0.69912  0.67065  1.0000
  C   C113      1.0  0.17829  0.71887  0.71545  1.0000
  H   H114      1.0  0.13764  0.52278  0.91642  1.0000
  H   H115      1.0  0.07129  0.65481  0.33299  1.0000
  C   C114      1.0  0.12849  0.51881  0.94421  1.0000
  C   C115      1.0  0.02256  0.54138  0.54903  1.0000
  C   C116      1.0  0.07185  0.56255  0.25095  1.0000
  H   H116      1.0  0.01558  0.59790  0.41763  1.0000
  C   C117      1.0  0.03443  0.51795  0.17618  1.0000
  C   C118      1.0  0.22804  0.73925  0.79484  1.0000
  C   C119      1.0  0.19522  0.69215  0.65079  1.0000
  N   N12       1.0  0.18994  0.71175  0.69454  1.0000
  H   H117      1.0  0.18482  0.58023  0.89260  1.0000
  H   H118      1.0  0.03807  0.61342  0.45590  1.0000
  H   H119      1.0  0.03138  0.55015  0.56644  1.0000
  H   H120      1.0  0.21839  0.55583  0.76211  1.0000
  C   C120      1.0  0.05621  0.62402  0.98458  1.0000
  C   C121      1.0  0.07295  0.64326  0.02632  1.0000
  H   H121      1.0  0.07551  0.64724  0.05654  1.0000
  Fe  Fe24      1.0  0.13986  0.50504  0.75828  1.0000
  C   C122      1.0  0.00473  0.57620  0.08092  1.0000
  C   C123      1.0  0.22489  0.56012  0.78914  1.0000
  H   H122      1.0  0.01932  0.60328  0.33981  1.0000
  C   C124      1.0  0.21751  0.58249  0.82063  1.0000
  H   H123      1.0  0.04267  0.50636  0.28993  1.0000
  C   C125      1.0  0.03415  0.50367  0.15764  1.0000
  H   H124      1.0  0.02998  0.51354  0.64231  1.0000
  C   C126      1.0  0.24499  0.74946  0.79246  1.0000
  S   S47       1.0  0.13028  0.50647  0.69535  1.0000
  C   C127      1.0  0.21865  0.51432  0.78648  1.0000
  H   H125      1.0  0.23578  0.52952  0.73345  1.0000
  H   H126      1.0  0.09340  0.50594  0.74043  1.0000
  C   C128      1.0  0.07205  0.64204  0.33487  1.0000
  H   H127      1.0  0.16848  0.52091  0.66675  1.0000
  H   H128      1.0  0.01024  0.54361  0.07439  1.0000
  C   C129      1.0  0.06317  0.51109  0.24080  1.0000
  H   H129      1.0  0.23700  0.57017  0.77745  1.0000
  H   H130      1.0  0.00819  0.54920  0.61727  1.0000
  C   C130      1.0  0.09170  0.50260  0.05132  1.0000
  H   H131      1.0  0.09612  0.52796  0.99283  1.0000
  H   H132      1.0  0.21113  0.72836  0.71642  1.0000
  C   C131      1.0  0.01009  0.53293  0.09676  1.0000
  H   H133      1.0  0.02306  0.53266  0.09424  1.0000
  H   H134      1.0  0.07926  0.50177  0.04255  1.0000
  C   C132      1.0  0.99901  0.51502  0.56741  1.0000
  C   C133      1.0  0.07634  0.52338  0.21518  1.0000
  H   H135      1.0  0.21850  0.74502  0.79582  1.0000
  C   C134      1.0  0.07895  0.51129  0.63328  1.0000
  H   H136      1.0  0.00650  0.53532  0.12886  1.0000
  H   H137      1.0  0.09497  0.51152  0.07469  1.0000
  H   H138      1.0  0.18643  0.52069  0.69006  1.0000
  H   H139      1.0  0.01415  0.50305  0.09861  1.0000
  N   N13       1.0  0.99819  0.51716  0.08783  1.0000
  C   C135      1.0  0.23155  0.50133  0.83637  1.0000
  H   H140      1.0  0.23648  0.76314  0.87896  1.0000
  Fe  Fe25      1.0  0.45393  0.05908  0.89787  1.0000
  S   S48       1.0  0.43227  0.05864  0.94417  1.0000
  S   S49       1.0  0.46087  0.07221  0.83134  1.0000
  C   C136      1.0  0.47326  0.19602  0.30269  1.0000
  S   S50       1.0  0.44716  0.03981  0.01413  1.0000
  Fe  Fe26      1.0  0.43054  0.03221  0.96514  1.0000
  H   H141      1.0  0.48661  0.09686  0.30414  1.0000
  Fe  Fe27      1.0  0.45089  0.06640  0.98961  1.0000
  S   S51       1.0  0.44852  0.08486  0.03514  1.0000
  S   S52       1.0  0.45082  0.03211  0.91556  1.0000
  S   S53       1.0  0.43047  0.01226  0.48143  1.0000
  S   S54       1.0  0.46355  0.12521  0.32214  1.0000
  Fe  Fe28      1.0  0.47356  0.03997  0.56746  1.0000
  S   S55       1.0  0.46911  0.06208  0.59211  1.0000
  Fe  Fe29      1.0  0.44212  0.03035  0.52623  1.0000
  S   S56       1.0  0.43480  0.05182  0.54791  1.0000
  C   C137      1.0  0.47067  0.11665  0.11605  1.0000
  Fe  Fe30      1.0  0.46205  0.06727  0.52866  1.0000
  S   S57       1.0  0.40619  0.01062  0.98115  1.0000
  Fe  Fe31      1.0  0.44271  0.04492  0.60949  1.0000
  S   S58       1.0  0.42900  0.04030  0.67557  1.0000
  S   S59       1.0  0.46876  0.04631  0.50312  1.0000
  S   S60       1.0  0.44769  0.02227  0.58862  1.0000
  H   H142      1.0  0.46660  0.18956  0.22555  1.0000
  H   H143      1.0  0.44451  0.09491  0.37600  1.0000
  C   C138      1.0  0.48036  0.12501  0.39030  1.0000
  C   C139      1.0  0.45519  0.10136  0.39070  1.0000
  C   C140      1.0  0.45754  0.09418  0.42923  1.0000
  H   H144      1.0  0.48287  0.06473  0.67533  1.0000
  H   H145      1.0  0.44876  0.08225  0.44393  1.0000
  H   H146      1.0  0.48348  0.18079  0.39218  1.0000
  H   H147      1.0  0.46862  0.08297  0.74328  1.0000
  H   H148      1.0  0.48825  0.20783  0.34834  1.0000
  C   C141      1.0  0.46119  0.16638  0.31418  1.0000
  C   C142      1.0  0.46805  0.16600  0.35135  1.0000
  H   H149      1.0  0.48959  0.01257  0.07809  1.0000
  N   N14       1.0  0.48671  0.04164  0.69180  1.0000
  Fe  Fe32      1.0  0.48553  0.14306  0.27771  1.0000
  S   S61       1.0  0.47537  0.09378  0.49590  1.0000
  C   C143      1.0  0.48110  0.10293  0.04701  1.0000
  C   C144      1.0  0.45229  0.06273  0.78836  1.0000
  C   C145      1.0  0.43914  0.04742  0.79377  1.0000
  C   C146      1.0  0.43219  0.04066  0.75894  1.0000
  C   C147      1.0  0.43846  0.04898  0.71838  1.0000
  C   C148      1.0  0.45173  0.06419  0.71296  1.0000
  C   C149      1.0  0.45858  0.07104  0.74778  1.0000
  H   H150      1.0  0.43411  0.04092  0.82481  1.0000
  H   H151      1.0  0.42183  0.02896  0.76347  1.0000
  H   H152      1.0  0.45634  0.07093  0.68202  1.0000
  C   C150      1.0  0.47019  0.03117  0.68378  1.0000
  C   C151      1.0  0.46401  0.09828  0.06119  1.0000
  C   C152      1.0  0.45890  0.10522  0.09579  1.0000
  H   H153      1.0  0.46649  0.12190  0.14247  1.0000
  C   C153      1.0  0.48772  0.12162  0.10127  1.0000
  H   H154      1.0  0.47549  0.20783  0.28362  1.0000
  H   H155      1.0  0.41505  0.08629  0.86732  1.0000
  H   H156      1.0  0.49302  0.12463  0.44425  1.0000
  S   S62       1.0  0.48278  0.15730  0.21888  1.0000
  S   S63       1.0  0.47271  0.06901  0.94154  1.0000
  C   C154      1.0  0.46670  0.11668  0.37085  1.0000
  Fe  Fe33      1.0  0.46755  0.04185  0.96298  1.0000
  N   N15       1.0  0.46401  0.18128  0.29015  1.0000
  C   C155      1.0  0.47122  0.10252  0.44865  1.0000
  C   C156      1.0  0.45683  0.18166  0.25119  1.0000
  H   H157      1.0  0.40427  0.08716  0.94104  1.0000
  H   H158      1.0  0.47268  0.07202  0.35724  1.0000
  N   N16       1.0  0.45176  0.10389  0.90331  1.0000
  C   C157      1.0  0.44085  0.09768  0.87586  1.0000
  C   C158      1.0  0.44593  0.10484  0.94350  1.0000
  C   C159      1.0  0.42361  0.09166  0.88890  1.0000
  C   C160      1.0  0.42879  0.09885  0.95767  1.0000
  C   C161      1.0  0.41757  0.09218  0.93017  1.0000
  C   C162      1.0  0.46979  0.11023  0.88932  1.0000
  H   H159      1.0  0.44545  0.09703  0.84385  1.0000
  H   H160      1.0  0.45455  0.10988  0.96527  1.0000
  H   H161      1.0  0.48923  0.13687  0.37553  1.0000
  H   H162      1.0  0.46220  0.02484  0.71362  1.0000
  H   H163      1.0  0.45187  0.16898  0.24130  1.0000
  H   H164      1.0  0.47307  0.10403  0.86255  1.0000
  H   H165      1.0  0.47404  0.12394  0.87972  1.0000
  H   H166      1.0  0.47670  0.10758  0.91465  1.0000
  H   H167      1.0  0.47613  0.00841  0.53028  1.0000
  C   C163      1.0  0.48050  0.19609  0.33937  1.0000
  H   H168      1.0  0.46593  0.15411  0.36995  1.0000
  C   C164      1.0  0.49119  0.05872  0.68675  1.0000
  H   H169      1.0  0.44573  0.10178  0.10698  1.0000
  C   C165      1.0  0.47786  0.18095  0.36380  1.0000
  H   H170      1.0  0.42434  0.09898  0.99015  1.0000
  C   C166      1.0  0.49283  0.11467  0.06665  1.0000
  H   H171      1.0  0.39144  0.00388  0.44150  1.0000
  C   C167      1.0  0.48247  0.11806  0.42927  1.0000
  H   H172      1.0  0.44657  0.18691  0.25503  1.0000
  C   C168      1.0  0.48396  0.08167  0.36263  1.0000
  H   H173      1.0  0.45377  0.15465  0.30453  1.0000
  H   H174      1.0  0.46506  0.02033  0.06301  1.0000
  H   H175      1.0  0.49399  0.02061  0.70859  1.0000
  S   S64       1.0  0.49454  0.03119  0.58171  1.0000
  S   S65       1.0  0.48744  0.03128  0.97624  1.0000
  H   H176      1.0  0.46363  0.03863  0.66777  1.0000
  H   H177      1.0  0.48407  0.07005  0.42403  1.0000
  H   H178      1.0  0.48525  0.09779  0.02037  1.0000
  C   C169      1.0  0.46360  0.00734  0.07226  1.0000
  H   H179      1.0  0.47137  0.02169  0.66326  1.0000
  H   H180      1.0  0.48473  0.05952  0.01597  1.0000
  C   C170      1.0  0.49038  0.08053  0.40007  1.0000
  C   C171      1.0  0.49177  0.09559  0.33286  1.0000
  H   H181      1.0  0.49650  0.23511  0.19615  1.0000
  C   C172      1.0  0.49557  0.05685  0.02423  1.0000
  C   C173      1.0  0.47740  0.00298  0.08047  1.0000
  C   C174      1.0  0.48696  0.36296  0.09952  1.0000
  C   C175      1.0  0.45982  0.33398  0.04792  1.0000
  Fe  Fe34      1.0  0.45099  0.38072  0.97774  1.0000
  S   S66       1.0  0.46439  0.36424  0.95074  1.0000
  S   S67       1.0  0.42597  0.37357  0.01744  1.0000
  Fe  Fe35      1.0  0.48489  0.37762  0.98652  1.0000
  H   H182      1.0  0.30073  0.45700  0.91400  1.0000
  Fe  Fe36      1.0  0.47606  0.38588  0.89948  1.0000
  C   C176      1.0  0.31822  0.46024  0.46224  1.0000
  S   S68       1.0  0.47068  0.39230  0.01698  1.0000
  S   S69       1.0  0.46067  0.40102  0.92328  1.0000
  Fe  Fe37      1.0  0.38467  0.44303  0.04707  1.0000
  S   S70       1.0  0.35980  0.44444  0.07409  1.0000
  S   S71       1.0  0.39018  0.42774  0.99747  1.0000
  Fe  Fe38      1.0  0.40438  0.47321  0.08550  1.0000
  S   S72       1.0  0.38160  0.47762  0.11478  1.0000
  Fe  Fe39      1.0  0.37175  0.44989  0.13276  1.0000
  S   S73       1.0  0.36191  0.43867  0.20005  1.0000
  Fe  Fe40      1.0  0.37164  0.47220  0.05413  1.0000
  C   C177      1.0  0.49261  0.34623  0.15721  1.0000
  S   S74       1.0  0.39538  0.44582  0.10710  1.0000
  S   S75       1.0  0.39552  0.47043  0.02343  1.0000
  S   S76       1.0  0.30536  0.49703  0.77422  1.0000
  C   C178      1.0  0.40191  0.48562  0.27451  1.0000
  Fe  Fe41      1.0  0.46760  0.42492  0.53944  1.0000
  S   S77       1.0  0.45012  0.39843  0.55459  1.0000
  S   S78       1.0  0.46092  0.44849  0.53284  1.0000
  Fe  Fe42      1.0  0.46561  0.39636  0.60536  1.0000
  S   S79       1.0  0.45130  0.38505  0.66953  1.0000
  Fe  Fe43      1.0  0.46913  0.39178  0.51280  1.0000
  S   S80       1.0  0.46208  0.37435  0.46373  1.0000
  S   S81       1.0  0.48192  0.42330  0.59267  1.0000
  H   H183      1.0  0.31183  0.46127  0.52732  1.0000
  H   H184      1.0  0.43318  0.44244  0.09268  1.0000
  C   C179      1.0  0.34248  0.48601  0.59008  1.0000
  Fe  Fe44      1.0  0.38796  0.46737  0.44574  1.0000
  S   S82       1.0  0.36013  0.45992  0.44749  1.0000
  S   S83       1.0  0.39939  0.44725  0.43843  1.0000
  Fe  Fe45      1.0  0.36629  0.48265  0.40046  1.0000
  H   H185      1.0  0.42473  0.45914  0.03869  1.0000
  H   H186      1.0  0.47754  0.34201  0.61454  1.0000
  H   H187      1.0  0.41322  0.45359  0.57530  1.0000
  H   H188      1.0  0.46087  0.31658  0.14512  1.0000
  H   H189      1.0  0.47073  0.42871  0.68566  1.0000
  H   H190      1.0  0.35664  0.46488  0.97068  1.0000
  H   H191      1.0  0.32556  0.46323  0.39568  1.0000
  C   C180      1.0  0.32154  0.49386  0.45225  1.0000
  S   S84       1.0  0.35551  0.48485  0.34045  1.0000
  N   N17       1.0  0.44172  0.34099  0.09919  1.0000
  S   S85       1.0  0.39400  0.48906  0.39576  1.0000
  C   C181      1.0  0.44847  0.34212  0.05859  1.0000
  C   C182      1.0  0.33132  0.49292  0.65595  1.0000
  C   C183      1.0  0.41035  0.49143  0.59256  1.0000
  H   H192      1.0  0.46145  0.44003  0.92431  1.0000
  C   C184      1.0  0.44387  0.44802  0.50633  1.0000
  C   C185      1.0  0.43520  0.43382  0.48880  1.0000
  C   C186      1.0  0.42160  0.43376  0.46795  1.0000
  C   C187      1.0  0.41648  0.44781  0.46492  1.0000
  C   C188      1.0  0.42515  0.46203  0.48250  1.0000
  C   C189      1.0  0.43889  0.46215  0.50293  1.0000
  H   H193      1.0  0.43902  0.42291  0.49106  1.0000
  H   H194      1.0  0.41498  0.42276  0.45428  1.0000
  H   H195      1.0  0.42141  0.47298  0.47990  1.0000
  H   H196      1.0  0.44569  0.47321  0.51609  1.0000
  C   C190      1.0  0.36010  0.45167  0.23871  1.0000
  C   C191      1.0  0.35943  0.44586  0.28083  1.0000
  C   C192      1.0  0.35858  0.45612  0.31220  1.0000
  C   C193      1.0  0.35773  0.47204  0.30176  1.0000
  C   C194      1.0  0.35815  0.47776  0.25975  1.0000
  C   C195      1.0  0.35960  0.46774  0.22827  1.0000
  H   H197      1.0  0.35974  0.43342  0.28919  1.0000
  H   H198      1.0  0.35816  0.45153  0.34449  1.0000
  H   H199      1.0  0.42493  0.34758  0.14269  1.0000
  H   H200      1.0  0.35984  0.47226  0.19608  1.0000
  H   H201      1.0  0.44096  0.33121  0.16242  1.0000
  S   S86       1.0  0.48663  0.38565  0.83247  1.0000
  H   H202      1.0  0.39666  0.42127  0.29031  1.0000
  C   C196      1.0  0.47629  0.38484  0.78794  1.0000
  C   C197      1.0  0.49427  0.44914  0.67179  1.0000
  C   C198      1.0  0.47806  0.38661  0.71195  1.0000
  C   C199      1.0  0.46124  0.38515  0.71459  1.0000
  C   C200      1.0  0.45195  0.38342  0.75401  1.0000
  C   C201      1.0  0.45948  0.38346  0.79058  1.0000
  C   C202      1.0  0.47375  0.35668  0.40844  1.0000
  Fe  Fe46      1.0  0.48118  0.41145  0.96098  1.0000
  H   H203      1.0  0.43888  0.38216  0.75630  1.0000
  H   H204      1.0  0.45226  0.38231  0.82074  1.0000
  H   H205      1.0  0.44072  0.42521  0.92446  1.0000
  H   H206      1.0  0.44529  0.34962  0.03438  1.0000
  C   C203      1.0  0.39940  0.45958  0.24441  1.0000
  H   H207      1.0  0.32809  0.46780  0.64199  1.0000
  H   H208      1.0  0.30954  0.46697  0.97996  1.0000
  C   C204      1.0  0.29610  0.46622  0.92704  1.0000
  H   H209      1.0  0.49626  0.42253  0.80524  1.0000
  C   C205      1.0  0.45173  0.34334  0.54254  1.0000
  H   H210      1.0  0.39585  0.43583  0.22122  1.0000
  C   C206      1.0  0.41659  0.38913  0.01262  1.0000
  C   C207      1.0  0.40958  0.39403  0.04823  1.0000
  C   C208      1.0  0.40178  0.40620  0.04431  1.0000
  C   C209      1.0  0.40053  0.41311  0.00469  1.0000
  C   C210      1.0  0.40748  0.40812  0.96926  1.0000
  C   C211      1.0  0.41571  0.39639  0.97318  1.0000
  H   H211      1.0  0.41011  0.38836  0.07885  1.0000
  H   H212      1.0  0.39631  0.40987  0.07179  1.0000
  H   H213      1.0  0.40636  0.41325  0.93857  1.0000
  H   H214      1.0  0.42080  0.39247  0.94558  1.0000
  H   H215      1.0  0.31312  0.48574  0.55715  1.0000
  N   N18       1.0  0.31706  0.48497  0.49119  1.0000
  H   H216      1.0  0.41607  0.34116  0.55354  1.0000
  C   C212      1.0  0.41776  0.47949  0.58351  1.0000
  H   H217      1.0  0.39551  0.48850  0.30296  1.0000
  C   C213      1.0  0.45629  0.35022  0.62322  1.0000
  H   H218      1.0  0.43124  0.48318  0.57617  1.0000
  C   C214      1.0  0.31374  0.49333  0.52708  1.0000
  C   C215      1.0  0.32290  0.46924  0.42247  1.0000
  C   C216      1.0  0.49021  0.49630  0.10631  1.0000
  C   C217      1.0  0.39034  0.45848  0.59187  1.0000
  C   C218      1.0  0.38336  0.47073  0.60103  1.0000
  C   C219      1.0  0.40157  0.46021  0.31657  1.0000
  H   H219      1.0  0.43728  0.36396  0.10194  1.0000
  S   S87       1.0  0.36050  0.49076  0.02617  1.0000
  H   H220      1.0  0.48531  0.38777  0.68183  1.0000
  H   H221      1.0  0.35736  0.49002  0.25149  1.0000
  C   C220      1.0  0.29585  0.48419  0.98048  1.0000
  C   C221      1.0  0.43041  0.35027  0.10930  1.0000
  C   C222      1.0  0.40016  0.44332  0.32133  1.0000
  H   H222      1.0  0.46572  0.33547  0.01593  1.0000
  C   C223      1.0  0.39786  0.44265  0.24808  1.0000
  C   C224      1.0  0.28156  0.46712  0.86637  1.0000
  H   H223      1.0  0.34457  0.46146  0.90429  1.0000
  N   N19       1.0  0.44129  0.34984  0.56450  1.0000
  S   S88       1.0  0.48296  0.38720  0.56497  1.0000
  H   H224      1.0  0.40042  0.43715  0.35178  1.0000
  H   H225      1.0  0.41520  0.49392  0.26899  1.0000
  C   C225      1.0  0.46415  0.32455  0.07910  1.0000
  H   H226      1.0  0.48144  0.49793  0.08593  1.0000
  C   C226      1.0  0.49166  0.49399  0.54423  1.0000
  H   H227      1.0  0.31725  0.44718  0.46669  1.0000
  C   C227      1.0  0.31521  0.46832  0.49643  1.0000
  H   H228      1.0  0.29260  0.46630  0.84650  1.0000
  C   C228      1.0  0.46722  0.34395  0.60071  1.0000
  H   H229      1.0  0.42454  0.36338  0.55735  1.0000
  H   H230      1.0  0.41998  0.34695  0.09024  1.0000
  C   C229      1.0  0.28056  0.48466  0.92226  1.0000
  H   H231      1.0  0.44488  0.44721  0.91101  1.0000
  C   C230      1.0  0.35169  0.47411  0.95785  1.0000
  S   S89       1.0  0.38875  0.48287  0.49835  1.0000
  H   H232      1.0  0.39873  0.46570  0.21432  1.0000
  C   C231      1.0  0.44329  0.35307  0.60455  1.0000
  C   C232      1.0  0.42736  0.35254  0.54587  1.0000
  S   S90       1.0  0.32942  0.48095  0.85652  1.0000
  C   C233      1.0  0.35206  0.48788  0.97879  1.0000
  H   H233      1.0  0.43045  0.35550  0.51137  1.0000
  S   S91       1.0  0.34420  0.47059  0.55822  1.0000
  H   H234      1.0  0.43078  0.45632  0.96449  1.0000
  H   H235      1.0  0.47484  0.35918  0.16300  1.0000
  C   C234      1.0  0.30112  0.47181  0.96442  1.0000
  S   S92       1.0  0.48525  0.41858  0.49315  1.0000
  H   H236      1.0  0.27691  0.47593  0.84828  1.0000
  C   C235      1.0  0.44588  0.33176  0.13001  1.0000
  H   H237      1.0  0.49516  0.46589  0.52074  1.0000
  C   C236      1.0  0.45706  0.32331  0.12040  1.0000
  C   C237      1.0  0.48409  0.35657  0.14203  1.0000
  C   C238      1.0  0.48284  0.43474  0.69530  1.0000
  H   H238      1.0  0.30003  0.48892  0.00888  1.0000
  S   S93       1.0  0.48637  0.33586  0.20861  1.0000
  H   H239      1.0  0.40304  0.46690  0.34363  1.0000
  C   C239      1.0  0.34487  0.47221  0.92019  1.0000
  H   H240      1.0  0.38236  0.44571  0.59065  1.0000
  H   H241      1.0  0.36987  0.46727  0.60675  1.0000
  H   H242      1.0  0.43497  0.35814  0.62215  1.0000
  C   C240      1.0  0.47621  0.36456  0.44468  1.0000
  N   N20       1.0  0.40080  0.46801  0.27866  1.0000
  C   C241      1.0  0.46494  0.34046  0.56010  1.0000
  H   H243      1.0  0.45015  0.34074  0.51078  1.0000
  N   N21       1.0  0.39338  0.48695  0.60138  1.0000
  N   N22       1.0  0.44370  0.43912  0.97589  1.0000
  C   C242      1.0  0.43509  0.44939  0.98757  1.0000
  C   C243      1.0  0.44831  0.42974  0.00538  1.0000
  C   C244      1.0  0.43143  0.45089  0.02966  1.0000
  C   C245      1.0  0.44464  0.43078  0.04781  1.0000
  C   C246      1.0  0.43621  0.44151  0.05993  1.0000
  C   C247      1.0  0.44787  0.43786  0.93167  1.0000
  C   C248      1.0  0.39814  0.43447  0.28687  1.0000
  H   H244      1.0  0.45480  0.42134  0.99614  1.0000
  C   C249      1.0  0.33350  0.48099  0.63042  1.0000
  H   H245      1.0  0.44819  0.42318  0.07101  1.0000
  H   H246      1.0  0.46368  0.35727  0.39152  1.0000
  Fe  Fe47      1.0  0.36142  0.47746  0.49649  1.0000
  H   H247      1.0  0.47999  0.37049  0.08791  1.0000
  C   C250      1.0  0.48548  0.38624  0.74855  1.0000
  N   N23       1.0  0.28625  0.47291  0.90603  1.0000
  H   H248      1.0  0.32429  0.48890  0.68686  1.0000
  C   C251      1.0  0.40766  0.46292  0.58308  1.0000
  H   H249      1.0  0.27163  0.45462  0.87218  1.0000
  C   C252      1.0  0.28540  0.49060  0.95949  1.0000
  H   H250      1.0  0.47348  0.33581  0.54193  1.0000
  C   C253      1.0  0.33853  0.48413  0.90295  1.0000
  C   C254      1.0  0.32452  0.48614  0.41734  1.0000
  H   H251      1.0  0.47928  0.42328  0.04906  1.0000
  C   C255      1.0  0.33885  0.49789  0.92395  1.0000
  H   H252      1.0  0.49364  0.42531  0.11186  1.0000
  C   C256      1.0  0.48926  0.36370  0.46635  1.0000
  H   H253      1.0  0.45803  0.35324  0.65465  1.0000
  C   C257      1.0  0.34551  0.49970  0.96182  1.0000
  H   H254      1.0  0.40800  0.49271  0.15385  1.0000
  S   S94       1.0  0.43120  0.48776  0.08870  1.0000
  H   H255      1.0  0.27264  0.48989  0.90579  1.0000
  C   C258      1.0  0.48422  0.34797  0.39393  1.0000
  H   H256      1.0  0.49105  0.45452  0.64383  1.0000
  H   H257      1.0  0.39551  0.48852  0.24833  1.0000
  S   S95       1.0  0.49096  0.43900  0.96410  1.0000
  C   C259      1.0  0.48719  0.42797  0.73124  1.0000
  C   C260      1.0  0.49184  0.43191  0.04738  1.0000
  S   S96       1.0  0.36465  0.49947  0.44955  1.0000
  S   S97       1.0  0.49599  0.30859  0.30206  1.0000
  C   C261      1.0  0.38587  0.49988  0.60797  1.0000
  H   H258      1.0  0.32849  0.49328  0.38654  1.0000
  C   C262      1.0  0.49696  0.34670  0.41626  1.0000
  H   H259      1.0  0.37354  0.49461  0.62800  1.0000
  H   H260      1.0  0.47346  0.31876  0.07145  1.0000
  H   H261      1.0  0.49130  0.36971  0.49425  1.0000
  H   H262      1.0  0.47964  0.48391  0.54247  1.0000
  H   H263      1.0  0.30170  0.49557  0.52654  1.0000
  H   H264      1.0  0.49606  0.47738  0.07375  1.0000
  H   H265      1.0  0.47822  0.41686  0.74944  1.0000
  H   H266      1.0  0.48217  0.34187  0.36607  1.0000
  H   H267      1.0  0.28130  0.50031  0.97148  1.0000
  S   S98       1.0  0.47528  0.58651  0.21292  1.0000
  H   H268      1.0  0.47109  0.63393  0.97062  1.0000
  Fe  Fe48      1.0  0.46600  0.56082  0.19308  1.0000
  S   S99       1.0  0.44013  0.54242  0.21139  1.0000
  C   C263      1.0  0.45986  0.74718  0.86509  1.0000
  S   S100      1.0  0.46300  0.52120  0.56247  1.0000
  S   S101      1.0  0.46967  0.56986  0.56325  1.0000
  H   H269      1.0  0.44128  0.74113  0.77535  1.0000
  S   S102      1.0  0.40889  0.52936  0.45449  1.0000
  C   C264      1.0  0.44308  0.72250  0.91346  1.0000
  Fe  Fe49      1.0  0.44073  0.63119  0.91516  1.0000
  S   S103      1.0  0.46236  0.65485  0.89207  1.0000
  S   S104      1.0  0.43620  0.61266  0.97339  1.0000
  Fe  Fe50      1.0  0.42250  0.63481  0.83988  1.0000
  S   S105      1.0  0.44242  0.65923  0.81298  1.0000
  S   S106      1.0  0.40440  0.62253  0.79617  1.0000
  Fe  Fe51      1.0  0.46012  0.64577  0.82845  1.0000
  S   S107      1.0  0.48037  0.64602  0.77664  1.0000
  Fe  Fe52      1.0  0.44268  0.66621  0.87832  1.0000
  S   S108      1.0  0.44033  0.68977  0.90487  1.0000
  S   S109      1.0  0.44019  0.62141  0.85332  1.0000
  S   S110      1.0  0.42100  0.64261  0.90415  1.0000
  C   C265      1.0  0.47560  0.65550  0.08412  1.0000
  S   S111      1.0  0.34184  0.52423  0.78720  1.0000
  C   C266      1.0  0.45991  0.67319  0.99423  1.0000
  Fe  Fe53      1.0  0.29305  0.51358  0.80541  1.0000
  S   S112      1.0  0.31063  0.53752  0.76788  1.0000
  H   H270      1.0  0.25060  0.74211  0.88009  1.0000
  Fe  Fe54      1.0  0.32394  0.52097  0.73983  1.0000
  S   S113      1.0  0.33477  0.52548  0.67095  1.0000
  Fe  Fe55      1.0  0.32736  0.53880  0.81774  1.0000
  S   S114      1.0  0.33924  0.55916  0.85708  1.0000
  C   C267      1.0  0.40819  0.57963  0.83774  1.0000
  S   S115      1.0  0.30891  0.51619  0.85737  1.0000
  H   H271      1.0  0.34558  0.51028  0.97811  1.0000
  H   H272      1.0  0.49119  0.63509  0.02131  1.0000
  S   S116      1.0  0.48760  0.55350  0.20895  1.0000
  Fe  Fe56      1.0  0.47820  0.54770  0.56876  1.0000
  C   C268      1.0  0.45494  0.62887  0.66541  1.0000
  C   C269      1.0  0.38621  0.60505  0.81354  1.0000
  C   C270      1.0  0.37793  0.59546  0.78410  1.0000
  C   C271      1.0  0.36355  0.58128  0.79691  1.0000
  C   C272      1.0  0.35718  0.57684  0.83923  1.0000
  C   C273      1.0  0.36539  0.58653  0.86858  1.0000
  C   C274      1.0  0.37995  0.60049  0.85586  1.0000
  H   H273      1.0  0.38261  0.59900  0.75126  1.0000
  H   H274      1.0  0.35724  0.57395  0.77406  1.0000
  H   H275      1.0  0.36046  0.58321  0.90134  1.0000
  H   H276      1.0  0.38619  0.60786  0.87873  1.0000
  S   S117      1.0  0.48966  0.59627  0.46224  1.0000
  H   H277      1.0  0.44197  0.54063  0.07146  1.0000
  N   N24       1.0  0.41836  0.54119  0.09847  1.0000
  C   C275      1.0  0.44854  0.71186  0.88904  1.0000
  C   C276      1.0  0.45989  0.71905  0.85281  1.0000
  C   C277      1.0  0.42407  0.72126  0.81988  1.0000
  H   H278      1.0  0.48738  0.51496  0.14462  1.0000
  H   H279      1.0  0.46431  0.71114  0.83375  1.0000
  C   C278      1.0  0.39789  0.56876  0.81411  1.0000
  H   H280      1.0  0.40057  0.57066  0.78038  1.0000
  C   C279      1.0  0.34701  0.51499  0.60081  1.0000
  H   H281      1.0  0.46800  0.55254  0.47387  1.0000
  C   C280      1.0  0.49579  0.59186  0.41200  1.0000
  H   H282      1.0  0.35218  0.52817  0.58907  1.0000
  C   C281      1.0  0.42564  0.55498  0.12247  1.0000
  H   H283      1.0  0.45424  0.64943  0.71928  1.0000
  H   H284      1.0  0.43174  0.64323  0.72364  1.0000
  H   H285      1.0  0.27629  0.73664  0.87682  1.0000
  H   H286      1.0  0.42677  0.50607  0.45484  1.0000
  H   H287      1.0  0.44104  0.59232  0.62378  1.0000
  H   H288      1.0  0.43895  0.55680  0.12506  1.0000
  H   H289      1.0  0.40694  0.70459  0.87064  1.0000
  H   H290      1.0  0.45372  0.58229  0.42688  1.0000
  C   C282      1.0  0.44705  0.52239  0.53443  1.0000
  C   C283      1.0  0.43944  0.53427  0.54194  1.0000
  C   C284      1.0  0.42777  0.53648  0.51711  1.0000
  C   C285      1.0  0.42337  0.52645  0.48543  1.0000
  C   C286      1.0  0.45470  0.61682  0.63852  1.0000
  H   H291      1.0  0.36888  0.53048  0.91537  1.0000
  H   H292      1.0  0.44232  0.54157  0.56745  1.0000
  H   H293      1.0  0.42201  0.54581  0.52271  1.0000
  C   C287      1.0  0.44861  0.74000  0.90152  1.0000
  H   H294      1.0  0.32310  0.50707  0.44806  1.0000
  C   C288      1.0  0.47429  0.60110  0.70234  1.0000
  H   H295      1.0  0.47074  0.64295  0.10296  1.0000
  H   H296      1.0  0.45299  0.58816  0.74858  1.0000
  C   C289      1.0  0.47823  0.62844  0.74906  1.0000
  H   H297      1.0  0.35740  0.54500  0.91904  1.0000
  C   C290      1.0  0.38374  0.55577  0.83422  1.0000
  C   C291      1.0  0.44944  0.56905  0.44135  1.0000
  C   C292      1.0  0.36512  0.54005  0.89763  1.0000
  H   H298      1.0  0.26232  0.71892  0.79228  1.0000
  C   C293      1.0  0.43791  0.52603  0.18095  1.0000
  C   C294      1.0  0.42215  0.51416  0.18067  1.0000
  C   C295      1.0  0.25280  0.72471  0.79276  1.0000
  H   H299      1.0  0.35693  0.53382  0.87506  1.0000
  C   C296      1.0  0.44961  0.51322  0.12750  1.0000
  C   C297      1.0  0.45169  0.52533  0.15495  1.0000
  H   H300      1.0  0.41148  0.51475  0.20059  1.0000
  C   C298      1.0  0.43031  0.51393  0.47920  1.0000
  H   H301      1.0  0.46021  0.51312  0.10643  1.0000
  H   H302      1.0  0.46396  0.53424  0.15547  1.0000
  C   C299      1.0  0.48925  0.59713  0.37758  1.0000
  C   C300      1.0  0.47442  0.61420  0.06385  1.0000
  C   C301      1.0  0.45859  0.60185  0.07094  1.0000
  C   C302      1.0  0.44720  0.60127  0.04229  1.0000
  C   C303      1.0  0.45155  0.61291  0.00617  1.0000
  C   C304      1.0  0.46756  0.62494  0.99840  1.0000
  H   H303      1.0  0.41902  0.55226  0.15495  1.0000
  H   H304      1.0  0.45495  0.59312  0.09920  1.0000
  H   H305      1.0  0.43483  0.59196  0.04851  1.0000
  C   C305      1.0  0.49342  0.50576  0.13948  1.0000
  H   H306      1.0  0.43588  0.56305  0.43993  1.0000
  S   S118      1.0  0.48804  0.61694  0.10225  1.0000
  N   N25       1.0  0.44186  0.62625  0.69621  1.0000
  H   H307      1.0  0.48558  0.53820  0.35944  1.0000
  C   C306      1.0  0.40432  0.57735  0.88108  1.0000
  H   H308      1.0  0.39878  0.72715  0.90007  1.0000
  H   H309      1.0  0.39878  0.50608  0.03210  1.0000
  H   H310      1.0  0.41894  0.59003  0.82242  1.0000
  C   C307      1.0  0.25753  0.74224  0.79178  1.0000
  H   H311      1.0  0.45185  0.56586  0.36069  1.0000
  C   C308      1.0  0.24877  0.51888  0.77511  1.0000
  Fe  Fe57      1.0  0.48403  0.57845  0.61591  1.0000
  C   C309      1.0  0.49364  0.59353  0.33733  1.0000
  C   C310      1.0  0.39005  0.56421  0.90016  1.0000
  H   H312      1.0  0.41213  0.58590  0.89970  1.0000
  H   H313      1.0  0.43620  0.66268  0.97239  1.0000
  N   N26       1.0  0.46476  0.65727  0.05320  1.0000
  H   H314      1.0  0.44517  0.63434  0.07710  1.0000
  C   C311      1.0  0.44930  0.64546  0.05442  1.0000
  H   H315      1.0  0.41698  0.58807  0.67870  1.0000
  C   C312      1.0  0.42826  0.61192  0.70081  1.0000
  N   N27       1.0  0.41484  0.74642  0.85350  1.0000
  H   H316      1.0  0.46535  0.61862  0.61511  1.0000
  H   H317      1.0  0.39393  0.51000  0.62367  1.0000
  C   C313      1.0  0.46554  0.73657  0.84108  1.0000
  C   C314      1.0  0.46840  0.55169  0.35530  1.0000
  Fe  Fe58      1.0  0.49376  0.58251  0.52075  1.0000
  H   H318      1.0  0.41789  0.60993  0.72523  1.0000
  H   H319      1.0  0.49600  0.61747  0.66150  1.0000
  H   H320      1.0  0.48239  0.68033  0.02254  1.0000
  H   H321      1.0  0.38696  0.56262  0.93381  1.0000
  C   C315      1.0  0.40137  0.53452  0.10069  1.0000
  C   C316      1.0  0.42849  0.53552  0.07283  1.0000
  C   C317      1.0  0.39409  0.52182  0.07681  1.0000
  C   C318      1.0  0.42163  0.52276  0.04871  1.0000
  C   C319      1.0  0.40432  0.51597  0.05059  1.0000
  H   H322      1.0  0.38060  0.51639  0.07869  1.0000
  H   H323      1.0  0.42967  0.51792  0.02941  1.0000
  C   C320      1.0  0.43883  0.64720  0.02533  1.0000
  H   H324      1.0  0.44149  0.63265  0.75765  1.0000
  S   S119      1.0  0.47633  0.56906  0.12569  1.0000
  C   C321      1.0  0.43142  0.73786  0.80165  1.0000
  C   C322      1.0  0.44417  0.66119  0.99523  1.0000
  C   C323      1.0  0.43378  0.50162  0.12637  1.0000
  C   C324      1.0  0.46520  0.61328  0.76166  1.0000
  H   H325      1.0  0.42489  0.56682  0.10737  1.0000
  C   C325      1.0  0.48751  0.61616  0.68964  1.0000
  C   C326      1.0  0.44104  0.60201  0.64348  1.0000
  H   H326      1.0  0.49111  0.56829  0.72045  1.0000
  Fe  Fe59      1.0  0.48754  0.59431  0.14577  1.0000
  H   H327      1.0  0.39335  0.53899  0.12111  1.0000
  H   H328      1.0  0.32393  0.50548  0.52661  1.0000
  C   C327      1.0  0.47739  0.54399  0.41956  1.0000
  C   C328      1.0  0.47891  0.62560  0.02723  1.0000
  H   H329      1.0  0.46890  0.55203  0.32169  1.0000
  H   H330      1.0  0.48077  0.60405  0.38203  1.0000
  N   N28       1.0  0.37994  0.55370  0.87671  1.0000
  H   H331      1.0  0.45661  0.61188  0.78935  1.0000
  C   C329      1.0  0.41218  0.71738  0.85532  1.0000
  H   H332      1.0  0.46414  0.68402  0.97051  1.0000
  C   C330      1.0  0.44239  0.63857  0.72535  1.0000
  H   H333      1.0  0.26082  0.52457  0.75609  1.0000
  S   S120      1.0  0.49039  0.55498  0.62488  1.0000
  H   H334      1.0  0.43437  0.71714  0.94165  1.0000
  C   C331      1.0  0.47012  0.67101  0.02364  1.0000
  C   C332      1.0  0.46324  0.59975  0.73849  1.0000
  H   H335      1.0  0.47675  0.66513  0.10571  1.0000
  C   C333      1.0  0.40772  0.73020  0.87192  1.0000
  H   H336      1.0  0.38409  0.50545  0.57739  1.0000
  N   N29       1.0  0.45890  0.55995  0.41947  1.0000
  C   C334      1.0  0.46786  0.55216  0.44065  1.0000
  C   C335      1.0  0.45889  0.55960  0.37747  1.0000
  H   H337      1.0  0.42808  0.71152  0.80767  1.0000
  H   H338      1.0  0.37555  0.54764  0.81555  1.0000
  S   S121      1.0  0.47018  0.58377  0.67365  1.0000
  C   C336      1.0  0.42765  0.59956  0.67460  1.0000
  H   H339      1.0  0.46589  0.64006  0.66234  1.0000
  C   C337      1.0  0.28115  0.74588  0.89875  1.0000
  C   C338      1.0  0.48949  0.62977  0.71307  1.0000
  H   H340      1.0  0.35631  0.50715  0.54450  1.0000
  H   H341      1.0  0.48822  0.65682  0.06840  1.0000
  H   H342      1.0  0.45135  0.56927  0.47463  1.0000
  C   C339      1.0  0.47777  0.54392  0.37653  1.0000
  H   H343      1.0  0.42683  0.63751  0.02540  1.0000
  H   H344      1.0  0.48475  0.53817  0.43640  1.0000
  H   H345      1.0  0.27918  0.73919  0.93065  1.0000
  H   H346      1.0  0.48859  0.59767  0.31102  1.0000
  H   H347      1.0  0.47427  0.74194  0.81290  1.0000
  C   C340      1.0  0.44228  0.51198  0.50355  1.0000
  C   C341      1.0  0.42014  0.50184  0.15372  1.0000
  H   H348      1.0  0.44814  0.50275  0.49770  1.0000
  H   H349      1.0  0.44415  0.74791  0.92047  1.0000
  C   C342      1.0  0.33794  0.51000  0.64111  1.0000
  H   H350      1.0  0.33370  0.50697  0.91139  1.0000
  Fe  Fe60      1.0  0.32236  0.50162  0.82375  1.0000
  S   S122      1.0  0.26488  0.50431  0.82976  1.0000
  C   C343      1.0  0.34938  0.50309  0.57551  1.0000
  H   H351      1.0  0.41828  0.50433  0.59204  1.0000
  Fe  Fe61      1.0  0.39188  0.50382  0.44841  1.0000
  H   H352      1.0  0.49567  0.50216  0.51392  1.0000
  C   C344      1.0  0.24741  0.50863  0.81221  1.0000
  H   H353      1.0  0.48906  0.50150  0.56880  1.0000
  Fe  Fe62      1.0  0.46004  0.79088  0.87232  1.0000
  S   S123      1.0  0.44453  0.78959  0.93340  1.0000
  Fe  Fe63      1.0  0.46323  0.82764  0.84641  1.0000
  S   S124      1.0  0.44742  0.82842  0.90568  1.0000
  S   S125      1.0  0.47030  0.85287  0.80655  1.0000
  Fe  Fe64      1.0  0.46237  0.81546  0.93815  1.0000
  S   S126      1.0  0.47148  0.82235  0.00016  1.0000
  Fe  Fe65      1.0  0.43100  0.80292  0.89570  1.0000
  S   S127      1.0  0.40282  0.79460  0.90840  1.0000
  S   S128      1.0  0.47925  0.81589  0.87961  1.0000
  S   S129      1.0  0.44542  0.80292  0.83413  1.0000
  Fe  Fe66      1.0  0.29721  0.78130  0.79086  1.0000
  S   S130      1.0  0.31632  0.79501  0.73461  1.0000
  Fe  Fe67      1.0  0.31419  0.80765  0.84746  1.0000
  S   S131      1.0  0.33389  0.82294  0.79591  1.0000
  S   S132      1.0  0.31566  0.81270  0.91496  1.0000
  Fe  Fe68      1.0  0.31338  0.81844  0.75580  1.0000
  S   S133      1.0  0.31566  0.84227  0.71505  1.0000
  Fe  Fe69      1.0  0.33552  0.79869  0.77846  1.0000
  S   S134      1.0  0.36174  0.79907  0.75889  1.0000
  S   S135      1.0  0.29296  0.80476  0.80953  1.0000
  S   S136      1.0  0.31712  0.78336  0.83279  1.0000
  C   C345      1.0  0.42407  0.98948  0.99214  1.0000
  C   C346      1.0  0.46264  0.96113  0.56718  1.0000
  H   H354      1.0  0.43345  0.86842  0.74296  1.0000
  Fe  Fe70      1.0  0.47137  0.90735  0.19848  1.0000
  S   S137      1.0  0.44511  0.89496  0.23016  1.0000
  H   H355      1.0  0.45886  0.94785  0.57788  1.0000
  H   H356      1.0  0.46982  0.85243  0.60102  1.0000
  H   H357      1.0  0.47645  0.91050  0.43882  1.0000
  H   H358      1.0  0.44890  0.94801  0.08870  1.0000
  H   H359      1.0  0.25101  0.79159  0.89772  1.0000
  C   C347      1.0  0.41174  0.96044  0.02371  1.0000
  N   N30       1.0  0.36645  0.93735  0.94653  1.0000
  C   C348      1.0  0.47230  0.88917  0.31304  1.0000
  S   S138      1.0  0.45475  0.91410  0.60579  1.0000
  C   C349      1.0  0.37962  0.93169  0.94818  1.0000
  Fe  Fe71      1.0  0.36427  0.88978  0.02692  1.0000
  S   S139      1.0  0.36032  0.87225  0.08546  1.0000
  S   S140      1.0  0.35250  0.88490  0.96742  1.0000
  Fe  Fe72      1.0  0.39229  0.91747  0.05646  1.0000
  S   S141      1.0  0.39065  0.90217  0.11725  1.0000
  S   S142      1.0  0.41448  0.94127  0.03825  1.0000
  Fe  Fe73      1.0  0.38817  0.88096  0.07939  1.0000
  S   S143      1.0  0.40149  0.86305  0.09428  1.0000
  Fe  Fe74      1.0  0.36300  0.89479  0.11960  1.0000
  S   S144      1.0  0.34689  0.88988  0.18248  1.0000
  S   S145      1.0  0.39217  0.89667  0.01831  1.0000
  S   S146      1.0  0.36454  0.91195  0.06110  1.0000
  Fe  Fe75      1.0  0.39228  0.89375  0.46333  1.0000
  S   S147      1.0  0.37628  0.89281  0.52313  1.0000
  S   S148      1.0  0.41505  0.88629  0.45968  1.0000
  Fe  Fe76      1.0  0.37155  0.90738  0.40953  1.0000
  S   S149      1.0  0.35350  0.90758  0.46532  1.0000
  S   S150      1.0  0.37545  0.92009  0.34312  1.0000
  Fe  Fe77      1.0  0.37647  0.91803  0.49631  1.0000
  Fe  Fe78      1.0  0.35493  0.88229  0.48798  1.0000
  S   S151      1.0  0.33509  0.85787  0.51759  1.0000
  S   S152      1.0  0.39429  0.91971  0.43955  1.0000
  S   S153      1.0  0.37108  0.88136  0.42933  1.0000
  C   C350      1.0  0.35516  0.89809  0.22700  1.0000
  C   C351      1.0  0.34631  0.89121  0.26690  1.0000
  C   C352      1.0  0.35254  0.89750  0.30294  1.0000
  C   C353      1.0  0.36751  0.91099  0.29922  1.0000
  C   C354      1.0  0.37629  0.91792  0.25932  1.0000
  C   C355      1.0  0.37028  0.91137  0.22340  1.0000
  H   H360      1.0  0.33453  0.88103  0.26993  1.0000
  H   H361      1.0  0.34554  0.89220  0.33344  1.0000
  H   H362      1.0  0.38780  0.92845  0.25613  1.0000
  H   H363      1.0  0.37712  0.91690  0.19290  1.0000
  C   C356      1.0  0.44358  0.90583  0.56595  1.0000
  C   C357      1.0  0.42915  0.90944  0.55997  1.0000
  C   C358      1.0  0.42065  0.90381  0.52660  1.0000
  C   C359      1.0  0.42600  0.89376  0.50059  1.0000
  C   C360      1.0  0.44026  0.88985  0.50708  1.0000
  C   C361      1.0  0.44917  0.89607  0.53946  1.0000
  H   H364      1.0  0.42475  0.91693  0.58050  1.0000
  H   H365      1.0  0.41008  0.90744  0.52089  1.0000
  H   H366      1.0  0.44442  0.88207  0.48701  1.0000
  H   H367      1.0  0.46012  0.89299  0.54432  1.0000
  C   C362      1.0  0.43301  0.88598  0.19261  1.0000
  C   C363      1.0  0.42374  0.86885  0.19836  1.0000
  C   C364      1.0  0.41439  0.86162  0.16753  1.0000
  C   C365      1.0  0.41392  0.87165  0.13170  1.0000
  C   C366      1.0  0.42298  0.88881  0.12641  1.0000
  C   C367      1.0  0.43275  0.89593  0.15648  1.0000
  H   H368      1.0  0.42398  0.86114  0.22633  1.0000
  H   H369      1.0  0.40730  0.84836  0.17178  1.0000
  H   H370      1.0  0.42262  0.89662  0.09875  1.0000
  H   H371      1.0  0.43983  0.90919  0.15212  1.0000
  H   H372      1.0  0.37330  0.85199  0.20094  1.0000
  C   C368      1.0  0.39567  0.95835  0.52334  1.0000
  H   H373      1.0  0.37071  0.95743  0.36786  1.0000
  S   S154      1.0  0.38038  0.93841  0.53858  1.0000
  H   H374      1.0  0.42678  0.95430  0.56189  1.0000
  C   C369      1.0  0.32138  0.84617  0.66021  1.0000
  C   C370      1.0  0.32818  0.86284  0.64118  1.0000
  C   C371      1.0  0.33271  0.86656  0.59766  1.0000
  C   C372      1.0  0.33000  0.85362  0.57256  1.0000
  C   C373      1.0  0.32311  0.83693  0.59151  1.0000
  C   C374      1.0  0.31907  0.83320  0.63522  1.0000
  H   H375      1.0  0.32991  0.87294  0.66024  1.0000
  H   H376      1.0  0.33789  0.87945  0.58346  1.0000
  H   H377      1.0  0.32085  0.82685  0.57232  1.0000
  H   H378      1.0  0.31371  0.82032  0.64947  1.0000
  C   C375      1.0  0.34175  0.86474  0.95404  1.0000
  C   C376      1.0  0.33752  0.85024  0.98246  1.0000
  C   C377      1.0  0.32945  0.83442  0.97012  1.0000
  C   C378      1.0  0.32570  0.83289  0.92919  1.0000
  C   C379      1.0  0.33002  0.84738  0.90073  1.0000
  C   C380      1.0  0.33785  0.86321  0.91323  1.0000
  H   H379      1.0  0.34037  0.85120  0.01402  1.0000
  H   H380      1.0  0.32611  0.82331  0.99244  1.0000
  H   H381      1.0  0.32709  0.84642  0.86922  1.0000
  H   H382      1.0  0.34100  0.87433  0.89100  1.0000
  C   C381      1.0  0.48430  0.86305  0.76070  1.0000
  C   C382      1.0  0.48178  0.84377  0.05852  1.0000
  N   N31       1.0  0.27286  0.75845  0.89843  1.0000
  H   H383      1.0  0.38538  0.95210  0.04572  1.0000
  H   H384      1.0  0.34730  0.91643  0.93135  1.0000
  S   S155      1.0  0.48635  0.89037  0.19258  1.0000
  H   H385      1.0  0.35881  0.95866  0.93574  1.0000
  H   H386      1.0  0.44224  0.84342  0.75169  1.0000
  C   C383      1.0  0.36240  0.95797  0.47022  1.0000
  H   H387      1.0  0.48156  0.89917  0.29034  1.0000
  C   C384      1.0  0.47690  0.84224  0.01858  1.0000
  H   H388      1.0  0.43332  0.96068  0.50666  1.0000
  N   N32       1.0  0.37067  0.96342  0.43058  1.0000
  H   H389      1.0  0.44571  0.89909  0.31778  1.0000
  C   C385      1.0  0.48722  0.85951  0.07337  1.0000
  C   C386      1.0  0.47733  0.85662  0.99374  1.0000
  H   H390      1.0  0.33981  0.93144  0.95527  1.0000
  H   H391      1.0  0.48157  0.83273  0.07791  1.0000
  C   C387      1.0  0.37436  0.98568  0.48980  1.0000
  H   H392      1.0  0.47367  0.85566  0.96291  1.0000
  C   C388      1.0  0.39170  0.79547  0.86603  1.0000
  C   C389      1.0  0.39993  0.80266  0.82602  1.0000
  C   C390      1.0  0.39066  0.80347  0.79309  1.0000
  C   C391      1.0  0.37314  0.79738  0.80018  1.0000
  C   C392      1.0  0.36495  0.79013  0.84015  1.0000
  C   C393      1.0  0.37420  0.78905  0.87286  1.0000
  H   H393      1.0  0.41340  0.80773  0.82045  1.0000
  H   H394      1.0  0.39705  0.80904  0.76219  1.0000
  H   H395      1.0  0.35147  0.78518  0.84578  1.0000
  H   H396      1.0  0.36775  0.78326  0.90358  1.0000
  H   H397      1.0  0.39734  0.89355  0.32935  1.0000
  H   H398      1.0  0.37365  0.87162  0.17480  1.0000
  N   N33       1.0  0.36278  0.83910  0.59497  1.0000
  C   C394      1.0  0.36384  0.85201  0.61819  1.0000
  C   C395      1.0  0.35890  0.82312  0.61411  1.0000
  C   C396      1.0  0.36088  0.84903  0.66177  1.0000
  C   C397      1.0  0.35603  0.81973  0.65763  1.0000
  C   C398      1.0  0.35702  0.83279  0.68149  1.0000
  C   C399      1.0  0.36571  0.84220  0.54930  1.0000
  H   H399      1.0  0.36649  0.86463  0.60313  1.0000
  H   H400      1.0  0.35786  0.81287  0.59572  1.0000
  H   H401      1.0  0.36104  0.85915  0.68010  1.0000
  H   H402      1.0  0.35291  0.80705  0.67295  1.0000
  H   H403      1.0  0.35460  0.83027  0.71519  1.0000
  H   H404      1.0  0.36805  0.85551  0.53767  1.0000
  H   H405      1.0  0.37670  0.83896  0.53699  1.0000
  H   H406      1.0  0.35448  0.83469  0.53631  1.0000
  C   C400      1.0  0.44202  0.86637  0.71874  1.0000
  H   H407      1.0  0.43419  0.96855  0.08953  1.0000
  C   C401      1.0  0.47462  0.89983  0.38069  1.0000
  N   N34       1.0  0.44933  0.87240  0.07603  1.0000
  C   C402      1.0  0.45464  0.87149  0.11415  1.0000
  C   C403      1.0  0.44211  0.85813  0.05869  1.0000
  C   C404      1.0  0.45248  0.85598  0.13634  1.0000
  C   C405      1.0  0.43993  0.84241  0.07977  1.0000
  C   C406      1.0  0.44509  0.84136  0.11892  1.0000
  C   C407      1.0  0.45190  0.88872  0.05263  1.0000
  H   H408      1.0  0.46066  0.88278  0.12756  1.0000
  H   H409      1.0  0.43812  0.85887  0.02823  1.0000
  H   H410      1.0  0.43451  0.83114  0.06553  1.0000
  C   C408      1.0  0.39616  0.96246  0.03067  1.0000
  H   H411      1.0  0.45526  0.89897  0.07260  1.0000
  H   H412      1.0  0.46224  0.89160  0.02658  1.0000
  H   H413      1.0  0.44029  0.88871  0.04014  1.0000
  H   H414      1.0  0.35579  0.85948  0.21041  1.0000
  N   N35       1.0  0.37069  0.83181  0.92002  1.0000
  C   C409      1.0  0.37693  0.82228  0.94505  1.0000
  C   C410      1.0  0.37178  0.84760  0.92816  1.0000
  C   C411      1.0  0.38389  0.82827  0.98022  1.0000
  C   C412      1.0  0.37847  0.85391  0.96332  1.0000
  C   C413      1.0  0.38447  0.84412  0.98964  1.0000
  C   C414      1.0  0.36310  0.82509  0.88395  1.0000
  H   H415      1.0  0.37649  0.80994  0.93802  1.0000
  H   H416      1.0  0.36715  0.85531  0.90794  1.0000
  H   H417      1.0  0.38870  0.82058  0.00009  1.0000
  H   H418      1.0  0.37870  0.86621  0.97035  1.0000
  H   H419      1.0  0.38953  0.84881  0.01729  1.0000
  H   H420      1.0  0.35631  0.83287  0.87016  1.0000
  H   H421      1.0  0.37286  0.82439  0.85954  1.0000
  H   H422      1.0  0.35370  0.81238  0.89351  1.0000
  C   C415      1.0  0.45817  0.95639  0.10594  1.0000
  C   C416      1.0  0.36401  0.96903  0.50030  1.0000
  C   C417      1.0  0.47782  0.97185  0.57638  1.0000
  H   H423      1.0  0.44483  0.88895  0.67882  1.0000
  H   H424      1.0  0.39720  0.75541  0.88654  1.0000
  S   S156      1.0  0.27906  0.75422  0.79230  1.0000
  S   S157      1.0  0.49366  0.90329  0.55552  1.0000
  C   C418      1.0  0.39454  0.97799  0.01805  1.0000
  C   C419      1.0  0.40849  0.99151  0.99864  1.0000
  H   H425      1.0  0.48596  0.87112  0.61078  1.0000
  C   C420      1.0  0.38548  0.96555  0.92752  1.0000
  C   C421      1.0  0.36920  0.95406  0.93651  1.0000
  C   C422      1.0  0.48410  0.87868  0.74384  1.0000
  N   N36       1.0  0.37720  0.87168  0.23883  1.0000
  C   C423      1.0  0.39243  0.88413  0.23078  1.0000
  C   C424      1.0  0.36929  0.86657  0.27888  1.0000
  C   C425      1.0  0.40002  0.89205  0.26318  1.0000
  C   C426      1.0  0.37648  0.87426  0.31202  1.0000
  C   C427      1.0  0.39189  0.88715  0.30403  1.0000
  C   C428      1.0  0.36963  0.86319  0.20468  1.0000
  H   H426      1.0  0.39871  0.88816  0.19912  1.0000
  H   H427      1.0  0.35715  0.85679  0.28525  1.0000
  H   H428      1.0  0.41203  0.90205  0.25650  1.0000
  H   H429      1.0  0.36990  0.87057  0.34353  1.0000
  C   C429      1.0  0.45534  0.91240  0.41045  1.0000
  C   C430      1.0  0.49422  0.88708  0.70639  1.0000
  C   C431      1.0  0.27301  0.78600  0.90983  1.0000
  C   C432      1.0  0.44640  0.97818  0.08699  1.0000
  S   S158      1.0  0.46646  0.76904  0.84680  1.0000
  H   H430      1.0  0.45393  0.95299  0.13997  1.0000
  C   C433      1.0  0.46948  0.90783  0.41263  1.0000
  H   H431      1.0  0.43773  0.97245  0.99873  1.0000
  H   H432      1.0  0.48622  0.98290  0.09795  1.0000
  C   C434      1.0  0.48279  0.98893  0.56275  1.0000
  H   H433      1.0  0.41846  0.76405  0.89695  1.0000
  H   H434      1.0  0.47018  0.95409  0.09871  1.0000
  H   H435      1.0  0.46480  0.88435  0.62491  1.0000
  H   H436      1.0  0.37742  0.91847  0.95648  1.0000
  C   C435      1.0  0.45982  0.87526  0.65251  1.0000
  C   C436      1.0  0.39605  0.94284  0.93960  1.0000
  C   C437      1.0  0.41052  0.75975  0.87237  1.0000
  C   C438      1.0  0.48314  0.87239  0.00820  1.0000
  N   N37       1.0  0.46477  0.86159  0.65784  1.0000
  C   C439      1.0  0.45826  0.85003  0.69247  1.0000
  C   C440      1.0  0.44846  0.87791  0.68294  1.0000
  H   H437      1.0  0.46228  0.83927  0.69700  1.0000
  H   H438      1.0  0.43772  0.94341  0.53098  1.0000
  N   N38       1.0  0.45275  0.96727  0.54482  1.0000
  C   C441      1.0  0.40368  0.96323  0.48228  1.0000
  C   C442      1.0  0.44685  0.85228  0.72350  1.0000
  H   H439      1.0  0.41236  0.77067  0.84883  1.0000
  C   C443      1.0  0.34940  0.92528  0.95521  1.0000
  H   H440      1.0  0.27950  0.79835  0.91802  1.0000
  N   N39       1.0  0.46010  0.97397  0.09393  1.0000
  H   H441      1.0  0.39295  0.96622  0.58424  1.0000
  C   C444      1.0  0.42566  0.97397  0.00444  1.0000
  C   C445      1.0  0.39896  0.95985  0.92890  1.0000
  H   H442      1.0  0.45670  0.85538  0.16657  1.0000
  S   S159      1.0  0.47941  0.91935  0.13255  1.0000
  H   H443      1.0  0.35497  0.94487  0.47934  1.0000
  C   C446      1.0  0.43685  0.95586  0.53577  1.0000
  H   H444      1.0  0.44362  0.82926  0.13540  1.0000
  Fe  Fe79      1.0  0.48207  0.91999  0.58669  1.0000
  C   C447      1.0  0.47658  0.85897  0.62541  1.0000
  H   H445      1.0  0.37992  0.94621  0.40176  1.0000
  H   H446      1.0  0.40108  0.95447  0.45961  1.0000
  H   H447      1.0  0.34742  0.91784  0.98625  1.0000
  N   N40       1.0  0.46608  0.89669  0.34726  1.0000
  C   C448      1.0  0.39915  0.96991  0.55243  1.0000
  C   C449      1.0  0.45236  0.90138  0.34454  1.0000
  C   C450      1.0  0.41464  0.97972  0.47014  1.0000
  C   C451      1.0  0.41778  0.99138  0.49898  1.0000
  H   H448      1.0  0.38248  0.97955  0.02329  1.0000
  C   C452      1.0  0.44665  0.90909  0.37635  1.0000
  H   H449      1.0  0.43547  0.91235  0.37489  1.0000
  C   C453      1.0  0.41028  0.98635  0.54040  1.0000
  H   H450      1.0  0.35758  0.94088  0.40625  1.0000
  C   C454      1.0  0.38089  0.97972  0.42004  1.0000
  H   H451      1.0  0.48403  0.88350  0.98805  1.0000
  H   H452      1.0  0.42048  0.98354  0.43807  1.0000
  C   C455      1.0  0.25703  0.78219  0.89851  1.0000
  H   H453      1.0  0.46201  0.88202  0.29651  1.0000
  C   C456      1.0  0.28078  0.77389  0.90972  1.0000
  H   H454      1.0  0.29328  0.77705  0.91822  1.0000
  C   C457      1.0  0.24888  0.76627  0.88802  1.0000
  H   H455      1.0  0.48555  0.89625  0.38266  1.0000
  C   C458      1.0  0.45733  0.98408  0.53227  1.0000
  H   H456      1.0  0.40646  0.93838  0.94232  1.0000
  H   H457      1.0  0.48384  0.85159  0.63870  1.0000
  C   C459      1.0  0.47247  0.99512  0.54066  1.0000
  H   H458      1.0  0.44931  0.98907  0.51552  1.0000
  H   H459      1.0  0.45100  0.91832  0.43539  1.0000
  H   H460      1.0  0.35795  0.96446  0.53210  1.0000
  H   H461      1.0  0.38795  0.98390  0.38910  1.0000
  H   H462      1.0  0.48780  0.85612  0.88282  1.0000
  C   C460      1.0  0.36967  0.95144  0.40021  1.0000
  H   H463      1.0  0.48573  0.96696  0.59384  1.0000
  H   H464      1.0  0.41163  0.96871  0.92309  1.0000
  H   H465      1.0  0.47586  0.88427  0.75955  1.0000
  C   C461      1.0  0.47542  0.98615  0.09152  1.0000
  H   H466      1.0  0.43317  0.76334  0.80611  1.0000
  C   C462      1.0  0.48808  0.87395  0.04810  1.0000
  H   H467      1.0  0.38768  0.97887  0.92071  1.0000
  H   H468      1.0  0.49376  0.89901  0.69390  1.0000
  C   C463      1.0  0.38285  0.99111  0.44941  1.0000
  S   S160      1.0  0.49030  0.92766  0.22405  1.0000
  C   C464      1.0  0.25697  0.75443  0.88859  1.0000
  H   H469      1.0  0.43488  0.99982  0.97716  1.0000
  H   H470      1.0  0.47858  0.88047  0.32453  1.0000
  C   C465      1.0  0.49503  0.85599  0.74006  1.0000
  H   H471      1.0  0.37629  0.99421  0.51331  1.0000
  S   S161      1.0  0.49627  0.89428  0.06343  1.0000
  H   H472      1.0  0.49118  0.86050  0.10390  1.0000
  H   H473      1.0  0.41260  0.99527  0.56285  1.0000
  H   H474      1.0  0.29475  0.75184  0.88790  1.0000
  C   C466      1.0  0.44795  0.99490  0.07584  1.0000
  H   H475      1.0  0.49459  0.99735  0.56958  1.0000
  H   H476      1.0  0.43711  0.99819  0.06961  1.0000
  H   H477      1.0  0.24833  0.76288  0.79157  1.0000
  Fe  Fe80      1.0  0.49606  0.90377  0.12766  1.0000
  H   H478      1.0  0.49533  0.84396  0.75269  1.0000
  S   S162      1.0  0.49641  0.94211  0.54107  1.0000
  C   C467      1.0  0.42677  0.75038  0.81924  1.0000
  Fe  Fe81      1.0  0.57520  0.05048  0.12271  1.0000
  S   S163      1.0  0.60109  0.06917  0.10248  1.0000
  H   H479      1.0  0.62710  0.10164  0.17794  1.0000
  Fe  Fe82      1.0  0.55881  0.07390  0.08653  1.0000
  S   S164      1.0  0.58308  0.09412  0.06187  1.0000
  S   S165      1.0  0.53495  0.07905  0.08189  1.0000
  Fe  Fe83      1.0  0.59147  0.07321  0.04151  1.0000
  S   S166      1.0  0.60360  0.06911  0.97942  1.0000
  Fe  Fe84      1.0  0.59048  0.08857  0.12485  1.0000
  S   S167      1.0  0.59758  0.11061  0.16331  1.0000
  S   S168      1.0  0.56647  0.05350  0.06112  1.0000
  S   S169      1.0  0.56545  0.06931  0.14992  1.0000
  Fe  Fe85      1.0  0.58746  0.07928  0.73865  1.0000
  S   S170      1.0  0.60401  0.06656  0.70772  1.0000
  S   S171      1.0  0.58697  0.09024  0.80042  1.0000
  Fe  Fe86      1.0  0.56986  0.07974  0.66204  1.0000
  S   S172      1.0  0.58424  0.06653  0.62571  1.0000
  S   S173      1.0  0.55247  0.09024  0.63219  1.0000
  Fe  Fe87      1.0  0.58044  0.05016  0.68618  1.0000
  H   H480      1.0  0.62452  0.12767  0.42998  1.0000
  Fe  Fe88      1.0  0.60629  0.08397  0.64931  1.0000
  S   S174      1.0  0.62964  0.09656  0.60255  1.0000
  S   S175      1.0  0.56378  0.06184  0.72075  1.0000
  S   S176      1.0  0.59204  0.09817  0.68193  1.0000
  C   C468      1.0  0.60194  0.03037  0.06150  1.0000
  H   H481      1.0  0.56762  0.11521  0.55835  1.0000
  H   H482      1.0  0.56163  0.06022  0.95423  1.0000
  H   H483      1.0  0.52899  0.13227  0.16214  1.0000
  S   S177      1.0  0.50257  0.13201  0.24368  1.0000
  C   C469      1.0  0.57366  0.00172  0.55380  1.0000
  C   C470      1.0  0.49743  0.03413  0.70541  1.0000
  Fe  Fe89      1.0  0.52309  0.15434  0.25767  1.0000
  S   S178      1.0  0.54265  0.14501  0.28263  1.0000
  H   H484      1.0  0.50594  0.10490  0.15741  1.0000
  H   H485      1.0  0.54238  0.02367  0.11120  1.0000
  S   S179      1.0  0.52358  0.16956  0.19720  1.0000
  S   S180      1.0  0.50311  0.13676  0.12392  1.0000
  Fe  Fe90      1.0  0.67085  0.19276  0.34312  1.0000
  S   S181      1.0  0.64774  0.19340  0.38196  1.0000
  S   S182      1.0  0.69285  0.21767  0.32449  1.0000
  Fe  Fe91      1.0  0.65151  0.15724  0.32229  1.0000
  S   S183      1.0  0.62755  0.15564  0.36029  1.0000
  S   S184      1.0  0.65214  0.13626  0.28392  1.0000
  Fe  Fe92      1.0  0.63344  0.18205  0.33138  1.0000
  S   S185      1.0  0.61529  0.19248  0.30297  1.0000
  Fe  Fe93      1.0  0.64380  0.16678  0.40799  1.0000
  S   S186      1.0  0.63280  0.15928  0.47661  1.0000
  S   S187      1.0  0.65656  0.18311  0.29051  1.0000
  S   S188      1.0  0.66780  0.16658  0.37216  1.0000
  C   C471      1.0  0.71282  0.22878  0.33836  1.0000
  C   C472      1.0  0.72007  0.22204  0.36874  1.0000
  H   H486      1.0  0.63600  0.18340  0.22226  1.0000
  H   H487      1.0  0.71368  0.20942  0.38397  1.0000
  H   H488      1.0  0.74117  0.22621  0.40278  1.0000
  C   C473      1.0  0.56274  0.15846  0.28795  1.0000
  C   C474      1.0  0.57441  0.15144  0.30085  1.0000
  C   C475      1.0  0.59050  0.16174  0.30606  1.0000
  C   C476      1.0  0.59499  0.17915  0.29852  1.0000
  C   C477      1.0  0.58338  0.18615  0.28501  1.0000
  C   C478      1.0  0.56728  0.17584  0.27972  1.0000
  H   H489      1.0  0.57102  0.13798  0.30691  1.0000
  H   H490      1.0  0.59943  0.15620  0.31565  1.0000
  H   H491      1.0  0.58683  0.19961  0.27880  1.0000
  H   H492      1.0  0.55837  0.18136  0.26970  1.0000
  N   N41       1.0  0.51182  0.10726  0.37843  1.0000
  H   H493      1.0  0.57903  0.09201  0.56187  1.0000
  H   H494      1.0  0.60995  0.10954  0.41297  1.0000
  H   H495      1.0  0.56222  0.09713  0.20117  1.0000
  H   H496      1.0  0.67741  0.24365  0.42561  1.0000
  H   H497      1.0  0.50597  0.11850  0.05467  1.0000
  C   C479      1.0  0.54055  0.09832  0.17399  1.0000
  H   H498      1.0  0.62311  0.10729  0.45170  1.0000
  C   C480      1.0  0.50348  0.23741  0.22225  1.0000
  C   C481      1.0  0.55144  0.01619  0.63626  1.0000
  C   C482      1.0  0.53757  0.07412  0.61334  1.0000
  C   C483      1.0  0.53719  0.05764  0.62166  1.0000
  C   C484      1.0  0.52416  0.04449  0.61066  1.0000
  C   C485      1.0  0.51166  0.04784  0.59095  1.0000
  H   H499      1.0  0.52175  0.03780  0.72427  1.0000
  C   C486      1.0  0.52540  0.07755  0.59232  1.0000
  H   H500      1.0  0.54648  0.05495  0.63828  1.0000
  H   H501      1.0  0.52341  0.03169  0.61891  1.0000
  H   H502      1.0  0.64897  0.12208  0.64712  1.0000
  H   H503      1.0  0.52573  0.09033  0.58569  1.0000
  C   C487      1.0  0.63049  0.11394  0.56737  1.0000
  C   C488      1.0  0.61992  0.12313  0.57564  1.0000
  C   C489      1.0  0.62116  0.13721  0.54799  1.0000
  C   C490      1.0  0.63261  0.14199  0.51116  1.0000
  C   C491      1.0  0.64317  0.13279  0.50272  1.0000
  C   C492      1.0  0.64220  0.11890  0.53098  1.0000
  H   H504      1.0  0.61086  0.11949  0.60348  1.0000
  H   H505      1.0  0.61297  0.14428  0.55480  1.0000
  H   H506      1.0  0.65216  0.13644  0.47466  1.0000
  H   H507      1.0  0.65052  0.11193  0.52448  1.0000
  C   C493      1.0  0.52033  0.06419  0.05858  1.0000
  H   H508      1.0  0.68781  0.22923  0.41029  1.0000
  H   H509      1.0  0.51952  0.06319  0.86102  1.0000
  Fe  Fe94      1.0  0.50478  0.17847  0.23398  1.0000
  C   C494      1.0  0.51301  0.03953  0.02251  1.0000
  C   C495      1.0  0.52337  0.04989  0.04713  1.0000
  C   C496      1.0  0.51643  0.10126  0.14323  1.0000
  C   C497      1.0  0.51247  0.06439  0.58085  1.0000
  H   H510      1.0  0.51575  0.02881  0.01243  1.0000
  H   H511      1.0  0.53383  0.04694  0.05652  1.0000
  C   C498      1.0  0.59848  0.07474  0.93005  1.0000
  C   C499      1.0  0.60154  0.06644  0.89606  1.0000
  C   C500      1.0  0.59782  0.07075  0.85626  1.0000
  C   C501      1.0  0.59118  0.08360  0.85002  1.0000
  C   C502      1.0  0.58815  0.09190  0.88401  1.0000
  C   C503      1.0  0.59175  0.08750  0.92380  1.0000
  H   H512      1.0  0.60689  0.05665  0.90046  1.0000
  H   H513      1.0  0.60027  0.06429  0.83039  1.0000
  H   H514      1.0  0.58314  0.10193  0.87945  1.0000
  H   H515      1.0  0.58964  0.09421  0.94944  1.0000
  C   C504      1.0  0.61152  0.11522  0.20102  1.0000
  C   C505      1.0  0.60960  0.12613  0.22980  1.0000
  C   C506      1.0  0.62170  0.13227  0.25612  1.0000
  C   C507      1.0  0.63584  0.12744  0.25427  1.0000
  C   C508      1.0  0.63748  0.11603  0.22664  1.0000
  C   C509      1.0  0.62539  0.10995  0.20005  1.0000
  H   H516      1.0  0.59899  0.13036  0.23088  1.0000
  H   H517      1.0  0.62026  0.14105  0.27715  1.0000
  H   H518      1.0  0.64837  0.11220  0.22504  1.0000
  H   H519      1.0  0.52138  0.21817  0.28929  1.0000
  H   H520      1.0  0.53660  0.09470  0.98540  1.0000
  C   C510      1.0  0.53771  0.08474  0.96782  1.0000
  C   C511      1.0  0.55485  0.10484  0.19306  1.0000
  N   N42       1.0  0.58624  0.01818  0.05371  1.0000
  S   S189      1.0  0.50254  0.20468  0.22118  1.0000
  H   H521      1.0  0.51932  0.10617  0.10957  1.0000
  C   C512      1.0  0.72142  0.24524  0.31891  1.0000
  C   C513      1.0  0.55162  0.06520  0.95086  1.0000
  C   C514      1.0  0.53991  0.00578  0.61377  1.0000
  H   H522      1.0  0.55677  0.01310  0.98935  1.0000
  S   S190      1.0  0.50592  0.16461  0.29550  1.0000
  C   C515      1.0  0.51770  0.06118  0.70970  1.0000
  H   H523      1.0  0.62742  0.14617  0.13924  1.0000
  H   H524      1.0  0.60855  0.18600  0.21537  1.0000
  C   C516      1.0  0.55179  0.00834  0.15068  1.0000
  H   H525      1.0  0.55384  0.02952  0.63275  1.0000
  N   N43       1.0  0.60255  0.11494  0.47305  1.0000
  C   C517      1.0  0.59614  0.12769  0.47054  1.0000
  C   C518      1.0  0.59644  0.10214  0.50515  1.0000
  C   C519      1.0  0.58355  0.12804  0.50117  1.0000
  C   C520      1.0  0.58374  0.10203  0.53611  1.0000
  C   C521      1.0  0.57731  0.11509  0.53412  1.0000
  C   C522      1.0  0.61561  0.11477  0.44027  1.0000
  H   H526      1.0  0.60116  0.13797  0.44543  1.0000
  H   H527      1.0  0.60161  0.09211  0.50752  1.0000
  H   H528      1.0  0.57886  0.13842  0.49965  1.0000
  H   H529      1.0  0.52774  0.12050  0.42014  1.0000
  C   C523      1.0  0.50616  0.06742  0.04810  1.0000
  C   C524      1.0  0.57834  0.02166  0.02141  1.0000
  H   H530      1.0  0.50257  0.05944  0.90299  1.0000
  H   H531      1.0  0.60130  0.03218  0.09509  1.0000
  H   H532      1.0  0.50311  0.06706  0.56450  1.0000
  H   H533      1.0  0.65225  0.16368  0.21807  1.0000
  H   H534      1.0  0.65070  0.15138  0.17620  1.0000
  H   H535      1.0  0.53697  0.08545  0.16736  1.0000
  H   H536      1.0  0.62328  0.10234  0.76968  1.0000
  H   H537      1.0  0.61019  0.12414  0.76865  1.0000
  C   C525      1.0  0.64984  0.16342  0.18513  1.0000
  C   C526      1.0  0.74420  0.24813  0.36019  1.0000
  C   C527      1.0  0.53968  0.05851  0.92493  1.0000
  H   H538      1.0  0.61249  0.02592  0.05270  1.0000
  C   C528      1.0  0.61888  0.12396  0.74201  1.0000
  H   H539      1.0  0.65792  0.10340  0.71349  1.0000
  N   N44       1.0  0.63335  0.16463  0.18121  1.0000
  C   C529      1.0  0.62344  0.15509  0.15566  1.0000
  C   C530      1.0  0.62816  0.17570  0.20222  1.0000
  C   C531      1.0  0.62630  0.11157  0.74232  1.0000
  C   C532      1.0  0.60759  0.15597  0.15210  1.0000
  C   C533      1.0  0.61255  0.17717  0.19863  1.0000
  C   C534      1.0  0.60212  0.16709  0.17385  1.0000
  H   H540      1.0  0.59954  0.14781  0.13322  1.0000
  H   H541      1.0  0.65971  0.17398  0.16531  1.0000
  H   H542      1.0  0.58984  0.16789  0.17169  1.0000
  N   N45       1.0  0.63683  0.11089  0.70834  1.0000
  C   C535      1.0  0.62229  0.13567  0.70670  1.0000
  C   C536      1.0  0.64463  0.09793  0.70889  1.0000
  H   H543      1.0  0.61629  0.14508  0.70572  1.0000
  H   H544      1.0  0.63815  0.08744  0.73409  1.0000
  H   H545      1.0  0.55961  0.08355  0.99314  1.0000
  H   H546      1.0  0.56490  0.02121  0.53018  1.0000
  H   H547      1.0  0.52488  0.13329  0.37701  1.0000
  C   C537      1.0  0.55060  0.07840  0.97239  1.0000
  H   H548      1.0  0.63584  0.14391  0.64455  1.0000
  C   C538      1.0  0.64057  0.12258  0.67402  1.0000
  C   C539      1.0  0.63324  0.13503  0.67247  1.0000
  H   H549      1.0  0.64399  0.09244  0.67892  1.0000
  H   H550      1.0  0.58359  0.03351  0.00138  1.0000
  S   S191      1.0  0.57053  0.02452  0.15544  1.0000
  N   N46       1.0  0.52685  0.06455  0.92136  1.0000
  N   N47       1.0  0.53129  0.10807  0.16364  1.0000
  Fe  Fe95      1.0  0.50156  0.14764  0.18599  1.0000
  H   H551      1.0  0.51561  0.08231  0.93958  1.0000
  C   C540      1.0  0.54033  0.01120  0.12594  1.0000
  S   S192      1.0  0.57484  0.02209  0.69093  1.0000
  C   C541      1.0  0.50588  0.10825  0.34118  1.0000
  C   C542      1.0  0.55973  0.12146  0.20111  1.0000
  C   C543      1.0  0.52584  0.07760  0.94208  1.0000
  H   H552      1.0  0.53785  0.12069  0.36808  1.0000
  C   C544      1.0  0.57974  0.00315  0.07857  1.0000
  C   C545      1.0  0.55040  0.13139  0.18971  1.0000
  H   H553      1.0  0.57073  0.12662  0.21607  1.0000
  C   C546      1.0  0.49931  0.04322  0.01037  1.0000
  C   C547      1.0  0.51457  0.05742  0.89370  1.0000
  H   H554      1.0  0.53000  0.06887  0.71533  1.0000
  C   C548      1.0  0.53615  0.12446  0.17085  1.0000
  C   C549      1.0  0.55997  0.00933  0.66291  1.0000
  C   C550      1.0  0.50847  0.22458  0.24076  1.0000
  H   H555      1.0  0.51179  0.11915  0.31829  1.0000
  H   H556      1.0  0.54066  0.04838  0.90791  1.0000
  C   C551      1.0  0.51745  0.22783  0.27457  1.0000
  C   C552      1.0  0.73570  0.23162  0.37931  1.0000
  H   H557      1.0  0.55401  0.14431  0.19596  1.0000
  C   C553      1.0  0.52631  0.12104  0.38651  1.0000
  C   C554      1.0  0.51308  0.04376  0.71459  1.0000
  H   H558      1.0  0.60457  0.04285  0.04345  1.0000
  H   H559      1.0  0.50877  0.09282  0.43760  1.0000
  H   H560      1.0  0.50360  0.07835  0.05738  1.0000
  H   H561      1.0  0.51150  0.04362  0.89572  1.0000
  H   H562      1.0  0.53353  0.01119  0.59273  1.0000
  H   H563      1.0  0.51211  0.08737  0.14585  1.0000
  C   C555      1.0  0.52149  0.24369  0.28920  1.0000
  C   C556      1.0  0.56321  0.01014  0.01430  1.0000
  H   H564      1.0  0.68425  0.24301  0.37127  1.0000
  C   C557      1.0  0.50439  0.09352  0.40757  1.0000
  H   H565      1.0  0.58120  0.00930  0.57463  1.0000
  H   H566      1.0  0.54647  0.00326  0.48605  1.0000
  H   H567      1.0  0.51046  0.08227  0.69035  1.0000
  C   C558      1.0  0.50674  0.06873  0.69554  1.0000
  H   H568      1.0  0.71011  0.23911  0.45137  1.0000
  C   C559      1.0  0.68745  0.24212  0.40353  1.0000
  C   C560      1.0  0.56452  0.00841  0.52881  1.0000
  H   H569      1.0  0.52853  0.24602  0.31518  1.0000
  H   H570      1.0  0.58579  0.00055  0.10478  1.0000
  S   S193      1.0  0.52660  0.44553  0.12479  1.0000
  H   H571      1.0  0.61750  0.44052  0.58314  1.0000
  C   C561      1.0  0.61204  0.46586  0.18039  1.0000
  S   S194      1.0  0.52570  0.42419  0.54097  1.0000
  C   C562      1.0  0.62328  0.45581  0.23925  1.0000
  Fe  Fe96      1.0  0.54055  0.34000  0.26146  1.0000
  S   S195      1.0  0.53501  0.32104  0.31758  1.0000
  S   S196      1.0  0.56558  0.36009  0.23762  1.0000
  H   H572      1.0  0.50924  0.35364  0.46995  1.0000
  C   C563      1.0  0.54609  0.42476  0.82704  1.0000
  N   N48       1.0  0.54532  0.43941  0.88690  1.0000
  C   C564      1.0  0.57257  0.32216  0.20337  1.0000
  H   H573      1.0  0.51696  0.45396  0.53553  1.0000
  Fe  Fe97      1.0  0.51899  0.30233  0.28026  1.0000
  S   S197      1.0  0.52240  0.27644  0.29025  1.0000
  S   S198      1.0  0.51924  0.34861  0.28091  1.0000
  S   S199      1.0  0.52647  0.32110  0.22186  1.0000
  C   C565      1.0  0.61640  0.45105  0.56413  1.0000
  Fe  Fe98      1.0  0.55894  0.49212  0.69894  1.0000
  H   H574      1.0  0.69229  0.49767  0.27949  1.0000
  Fe  Fe99      1.0  0.66759  0.44155  0.36138  1.0000
  S   S200      1.0  0.65034  0.42170  0.41122  1.0000
  S   S201      1.0  0.69483  0.44604  0.33382  1.0000
  Fe  Fe100     1.0  0.63942  0.45428  0.34127  1.0000
  S   S202      1.0  0.62015  0.43586  0.38978  1.0000
  H   H575      1.0  0.58222  0.31827  0.18585  1.0000
  Fe  Fe101     1.0  0.64016  0.44160  0.43108  1.0000
  S   S203      1.0  0.63329  0.44125  0.50072  1.0000
  Fe  Fe102     1.0  0.63117  0.41714  0.36696  1.0000
  S   S204      1.0  0.61337  0.39052  0.36922  1.0000
  S   S205      1.0  0.65880  0.46185  0.38461  1.0000
  S   S206      1.0  0.64909  0.43519  0.31494  1.0000
  H   H576      1.0  0.55466  0.28666  0.32655  1.0000
  S   S207      1.0  0.55921  0.47495  0.75501  1.0000
  H   H577      1.0  0.68467  0.45875  0.25804  1.0000
  C   C566      1.0  0.72826  0.45148  0.41814  1.0000
  C   C567      1.0  0.71336  0.44948  0.40067  1.0000
  C   C568      1.0  0.71346  0.44984  0.35752  1.0000
  C   C569      1.0  0.72872  0.45249  0.33217  1.0000
  H   H578      1.0  0.62769  0.48084  0.73076  1.0000
  H   H579      1.0  0.72796  0.45104  0.45159  1.0000
  H   H580      1.0  0.70179  0.44745  0.42070  1.0000
  H   H581      1.0  0.72901  0.45285  0.29875  1.0000
  H   H582      1.0  0.51614  0.47419  0.12031  1.0000
  C   C570      1.0  0.57778  0.36986  0.27512  1.0000
  C   C571      1.0  0.57376  0.36327  0.31721  1.0000
  C   C572      1.0  0.58461  0.37003  0.34583  1.0000
  C   C573      1.0  0.59929  0.38379  0.33295  1.0000
  C   C574      1.0  0.60296  0.39089  0.29117  1.0000
  C   C575      1.0  0.59233  0.38379  0.26224  1.0000
  H   H583      1.0  0.56253  0.35265  0.32761  1.0000
  H   H584      1.0  0.58170  0.36446  0.37806  1.0000
  H   H585      1.0  0.61431  0.40141  0.28090  1.0000
  H   H586      1.0  0.59557  0.38894  0.22970  1.0000
  H   H587      1.0  0.52231  0.46142  0.97964  1.0000
  H   H588      1.0  0.57126  0.30830  0.36697  1.0000
  H   H589      1.0  0.58825  0.43101  0.51435  1.0000
  Fe  Fe103     1.0  0.56150  0.45752  0.70921  1.0000
  H   H590      1.0  0.52492  0.41882  0.87424  1.0000
  H   H591      1.0  0.58283  0.45628  0.82622  1.0000
  C   C576      1.0  0.56134  0.44989  0.87362  1.0000
  C   C577      1.0  0.71365  0.25139  0.43358  1.0000
  C   C578      1.0  0.60782  0.47554  0.55840  1.0000
  C   C579      1.0  0.61829  0.48217  0.23818  1.0000
  H   H592      1.0  0.53685  0.41267  0.45723  1.0000
  S   S208      1.0  0.54507  0.43080  0.72084  1.0000
  C   C580      1.0  0.51964  0.41589  0.62552  1.0000
  C   C581      1.0  0.54029  0.42642  0.67120  1.0000
  C   C582      1.0  0.55228  0.43421  0.63648  1.0000
  C   C583      1.0  0.54790  0.43311  0.59628  1.0000
  C   C584      1.0  0.53151  0.42417  0.59086  1.0000
  H   H593      1.0  0.53228  0.39551  0.49795  1.0000
  C   C585      1.0  0.52406  0.41698  0.66577  1.0000
  H   H594      1.0  0.56490  0.44145  0.64061  1.0000
  H   H595      1.0  0.55709  0.43964  0.56965  1.0000
  H   H596      1.0  0.62603  0.47016  0.46420  1.0000
  C   C586      1.0  0.57187  0.31101  0.33351  1.0000
  C   C587      1.0  0.51629  0.44412  0.08074  1.0000
  C   C588      1.0  0.52433  0.45423  0.04336  1.0000
  C   C589      1.0  0.50988  0.45646  0.68427  1.0000
  H   H597      1.0  0.51090  0.41669  0.77130  1.0000
  C   C590      1.0  0.74348  0.45397  0.39287  1.0000
  C   C591      1.0  0.49943  0.35461  0.45250  1.0000
  H   H598      1.0  0.53710  0.46236  0.04080  1.0000
  H   H599      1.0  0.51906  0.37950  0.15922  1.0000
  C   C592      1.0  0.53604  0.44155  0.92531  1.0000
  C   C593      1.0  0.52955  0.47394  0.56967  1.0000
  C   C594      1.0  0.62278  0.45414  0.52152  1.0000
  C   C595      1.0  0.70815  0.27025  0.38390  1.0000
  C   C596      1.0  0.57014  0.44797  0.83671  1.0000
  C   C597      1.0  0.56243  0.43535  0.81329  1.0000
  N   N49       1.0  0.55957  0.41342  0.17895  1.0000
  C   C598      1.0  0.54888  0.41779  0.15559  1.0000
  C   C599      1.0  0.55617  0.39705  0.19462  1.0000
  C   C600      1.0  0.53412  0.40571  0.14833  1.0000
  C   C601      1.0  0.54156  0.38463  0.18781  1.0000
  C   C602      1.0  0.53045  0.38902  0.16463  1.0000
  C   C603      1.0  0.57520  0.42619  0.18511  1.0000
  H   H600      1.0  0.55171  0.43071  0.14248  1.0000
  H   H601      1.0  0.56475  0.39348  0.21255  1.0000
  H   H602      1.0  0.52560  0.40931  0.13016  1.0000
  H   H603      1.0  0.53892  0.37168  0.20041  1.0000
  H   H604      1.0  0.60793  0.48930  0.18472  1.0000
  H   H605      1.0  0.57366  0.43861  0.18669  1.0000
  H   H606      1.0  0.57953  0.42294  0.21472  1.0000
  H   H607      1.0  0.58509  0.42753  0.15871  1.0000
  C   C604      1.0  0.50466  0.34304  0.13005  1.0000
  H   H608      1.0  0.61294  0.48501  0.87276  1.0000
  N   N50       1.0  0.55749  0.40516  0.46904  1.0000
  C   C605      1.0  0.56516  0.41734  0.49244  1.0000
  C   C606      1.0  0.56634  0.39663  0.44874  1.0000
  C   C607      1.0  0.58214  0.42127  0.49599  1.0000
  C   C608      1.0  0.58333  0.40024  0.45167  1.0000
  C   C609      1.0  0.59123  0.41260  0.47557  1.0000
  C   C610      1.0  0.53959  0.40111  0.46679  1.0000
  H   H609      1.0  0.56035  0.38698  0.43005  1.0000
  H   H610      1.0  0.59038  0.39355  0.43536  1.0000
  H   H611      1.0  0.60442  0.41553  0.47803  1.0000
  H   H612      1.0  0.53512  0.39215  0.44403  1.0000
  H   H613      1.0  0.57525  0.33577  0.19442  1.0000
  S   S209      1.0  0.63347  0.47452  0.30335  1.0000
  H   H614      1.0  0.56742  0.45983  0.89142  1.0000
  C   C611      1.0  0.61212  0.47990  0.19984  1.0000
  H   H615      1.0  0.55815  0.42409  0.50847  1.0000
  Fe  Fe104     1.0  0.51259  0.32851  0.33498  1.0000
  N   N51       1.0  0.50253  0.43520  0.74319  1.0000
  S   S210      1.0  0.60619  0.46361  0.13013  1.0000
  C   C612      1.0  0.51705  0.49545  0.57502  1.0000
  H   H616      1.0  0.58884  0.33637  0.33017  1.0000
  C   C613      1.0  0.56308  0.30275  0.26802  1.0000
  H   H617      1.0  0.55566  0.29330  0.25081  1.0000
  H   H618      1.0  0.64720  0.47228  0.61068  1.0000
  C   C614      1.0  0.51659  0.25656  0.27053  1.0000
  H   H619      1.0  0.51125  0.33506  0.14137  1.0000
  H   H620      1.0  0.53946  0.49580  0.60078  1.0000
  C   C615      1.0  0.56261  0.29887  0.31091  1.0000
  H   H621      1.0  0.50701  0.40882  0.62142  1.0000
  H   H622      1.0  0.52617  0.45476  0.72893  1.0000
  C   C616      1.0  0.53765  0.42703  0.86404  1.0000
  C   C617      1.0  0.63141  0.48463  0.69744  1.0000
  Fe  Fe105     1.0  0.58844  0.47633  0.10898  1.0000
  S   S211      1.0  0.60104  0.49064  0.58165  1.0000
  C   C618      1.0  0.74363  0.45457  0.34964  1.0000
  C   C619      1.0  0.51702  0.46557  0.54709  1.0000
  H   H623      1.0  0.66382  0.49740  0.23978  1.0000
  H   H624      1.0  0.71271  0.41576  0.40789  1.0000
  Fe  Fe106     1.0  0.50452  0.32848  0.24583  1.0000
  C   C620      1.0  0.73391  0.27909  0.41354  1.0000
  H   H625      1.0  0.73681  0.41225  0.43587  1.0000
  H   H626      1.0  0.53630  0.48955  0.16629  1.0000
  C   C621      1.0  0.67139  0.45799  0.20523  1.0000
  C   C622      1.0  0.66238  0.46566  0.18230  1.0000
  C   C623      1.0  0.58185  0.33019  0.26999  1.0000
  S   S212      1.0  0.56736  0.47671  0.15551  1.0000
  C   C624      1.0  0.62119  0.46768  0.49709  1.0000
  C   C625      1.0  0.51388  0.44918  0.72001  1.0000
  S   S213      1.0  0.57204  0.46339  0.06309  1.0000
  H   H627      1.0  0.60045  0.48781  0.94330  1.0000
  H   H628      1.0  0.58933  0.34254  0.25434  1.0000
  H   H629      1.0  0.60420  0.45925  0.61542  1.0000
  S   S214      1.0  0.50941  0.33461  0.40142  1.0000
  C   C626      1.0  0.58168  0.32675  0.31292  1.0000
  H   H630      1.0  0.53927  0.46881  0.57582  1.0000
  C   C627      1.0  0.60880  0.46160  0.58246  1.0000
  C   C628      1.0  0.73694  0.25490  0.32985  1.0000
  Fe  Fe107     1.0  0.49785  0.41443  0.54778  1.0000
  H   H631      1.0  0.51477  0.41106  0.69257  1.0000
  N   N52       1.0  0.70356  0.25481  0.40671  1.0000
  H   H632      1.0  0.73732  0.26044  0.45714  1.0000
  C   C629      1.0  0.62951  0.49914  0.67904  1.0000
  S   S215      1.0  0.60373  0.48960  0.79076  1.0000
  H   H633      1.0  0.61755  0.44289  0.18539  1.0000
  C   C630      1.0  0.62400  0.47022  0.25788  1.0000
  Fe  Fe108     1.0  0.58685  0.48456  0.64696  1.0000
  H   H634      1.0  0.62769  0.44655  0.25412  1.0000
  Fe  Fe109     1.0  0.55149  0.46564  0.10777  1.0000
  C   C631      1.0  0.61384  0.47841  0.51557  1.0000
  H   H635      1.0  0.53109  0.42961  0.94671  1.0000
  H   H636      1.0  0.52535  0.44543  0.91787  1.0000
  H   H637      1.0  0.54399  0.45122  0.94246  1.0000
  S   S216      1.0  0.58934  0.46668  0.69842  1.0000
  C   C632      1.0  0.61756  0.45378  0.20030  1.0000
  C   C633      1.0  0.50749  0.25325  0.23695  1.0000
  H   H638      1.0  0.53996  0.41496  0.80886  1.0000
  C   C634      1.0  0.60179  0.48839  0.87620  1.0000
  N   N53       1.0  0.57233  0.31837  0.24832  1.0000
  C   C635      1.0  0.59459  0.49138  0.84071  1.0000
  H   H639      1.0  0.56019  0.31558  0.19397  1.0000
  H   H640      1.0  0.67321  0.44664  0.19649  1.0000
  H   H641      1.0  0.65696  0.46026  0.15577  1.0000
  C   C636      1.0  0.72898  0.26343  0.43727  1.0000
  S   S217      1.0  0.57194  0.49842  0.96918  1.0000
  C   C637      1.0  0.71579  0.41018  0.37974  1.0000
  C   C638      1.0  0.65997  0.48013  0.19427  1.0000
  C   C639      1.0  0.50984  0.48313  0.12577  1.0000
  H   H642      1.0  0.70883  0.39651  0.38463  1.0000
  C   C640      1.0  0.59471  0.48991  0.91620  1.0000
  C   C641      1.0  0.72341  0.28259  0.38682  1.0000
  S   S218      1.0  0.50064  0.36461  0.01748  1.0000
  H   H643      1.0  0.72721  0.29472  0.36810  1.0000
  C   C642      1.0  0.52964  0.48903  0.58364  1.0000
  N   N54       1.0  0.51313  0.49265  0.15778  1.0000
  H   H644      1.0  0.56901  0.43385  0.78428  1.0000
  H   H645      1.0  0.68580  0.47709  0.30839  1.0000
  C   C643      1.0  0.51603  0.45349  0.00835  1.0000
  N   N55       1.0  0.64046  0.49423  0.61200  1.0000
  S   S219      1.0  0.55899  0.47365  0.65425  1.0000
  C   C644      1.0  0.74270  0.41336  0.40406  1.0000
  H   H646      1.0  0.61313  0.48918  0.49674  1.0000
  C   C645      1.0  0.50747  0.34936  0.08753  1.0000
  Fe  Fe110     1.0  0.58705  0.48582  0.74025  1.0000
  C   C646      1.0  0.67779  0.46488  0.24014  1.0000
  H   H647      1.0  0.51754  0.43635  0.79230  1.0000
  C   C647      1.0  0.52508  0.49046  0.18502  1.0000
  C   C648      1.0  0.68155  0.48591  0.28909  1.0000
  C   C649      1.0  0.58018  0.49572  0.84548  1.0000
  C   C650      1.0  0.50703  0.42737  0.77988  1.0000
  C   C651      1.0  0.63775  0.47487  0.67269  1.0000
  S   S220      1.0  0.49742  0.39807  0.93389  1.0000
  H   H648      1.0  0.51890  0.46769  0.66651  1.0000
  H   H649      1.0  0.70012  0.27299  0.36274  1.0000
  N   N56       1.0  0.73379  0.41329  0.37143  1.0000
  S   S221      1.0  0.55291  0.49025  0.07606  1.0000
  H   H650      1.0  0.50359  0.26292  0.22213  1.0000
  C   C652      1.0  0.64233  0.47995  0.62979  1.0000
  C   C653      1.0  0.50000  0.44193  0.00993  1.0000
  C   C654      1.0  0.57333  0.49757  0.88522  1.0000
  H   H651      1.0  0.63902  0.46342  0.68661  1.0000
  H   H652      1.0  0.71136  0.41602  0.35352  1.0000
  H   H653      1.0  0.51636  0.34631  0.06636  1.0000
  C   C655      1.0  0.66640  0.48658  0.22956  1.0000
  N   N57       1.0  0.50460  0.48695  0.55362  1.0000
  Fe  Fe111     1.0  0.57508  0.48931  0.03441  1.0000
  N   N58       1.0  0.67502  0.47885  0.25221  1.0000
  C   C656      1.0  0.74140  0.41522  0.33126  1.0000
  C   C657      1.0  0.50466  0.47236  0.53900  1.0000
  H   H654      1.0  0.74321  0.26759  0.31497  1.0000
  H   H655      1.0  0.65253  0.48590  0.17745  1.0000
  C   C658      1.0  0.49842  0.48485  0.09941  1.0000
  H   H656      1.0  0.73438  0.41529  0.30538  1.0000
  H   H657      1.0  0.51921  0.47886  0.20726  1.0000
  H   H658      1.0  0.64567  0.48911  0.54969  1.0000
  H   H659      1.0  0.49845  0.38714  0.74632  1.0000
  H   H660      1.0  0.61880  0.49333  0.25243  1.0000
  H   H661      1.0  0.71593  0.25062  0.29542  1.0000
  H   H662      1.0  0.67162  0.48859  0.30920  1.0000
  C   C659      1.0  0.49994  0.43310  0.08294  1.0000
  C   C660      1.0  0.58058  0.49476  0.92068  1.0000
  C   C661      1.0  0.49834  0.35897  0.07191  1.0000
  H   H663      1.0  0.57459  0.49817  0.81841  1.0000
  H   H664      1.0  0.74599  0.28837  0.41531  1.0000
  C   C662      1.0  0.64615  0.49985  0.56742  1.0000
  C   C663      1.0  0.50493  0.50371  0.16520  1.0000
  C   C664      1.0  0.51166  0.57993  0.36545  1.0000
  H   H665      1.0  0.65914  0.50880  0.56273  1.0000
  C   C665      1.0  0.54457  0.53962  0.16443  1.0000
  N   N59       1.0  0.53807  0.57701  0.68534  1.0000
  H   H666      1.0  0.50840  0.59493  0.67757  1.0000
  C   C666      1.0  0.51405  0.58575  0.68683  1.0000
  S   S222      1.0  0.56682  0.52285  0.15172  1.0000
  S   S223      1.0  0.51151  0.58071  0.28111  1.0000
  H   H667      1.0  0.52755  0.55345  0.17326  1.0000
  C   C667      1.0  0.51159  0.55881  0.72182  1.0000
  C   C668      1.0  0.55055  0.52987  0.13845  1.0000
  C   C669      1.0  0.54395  0.52647  0.10132  1.0000
  C   C670      1.0  0.53155  0.53267  0.09011  1.0000
  H   H668      1.0  0.53412  0.55278  0.71707  1.0000
  H   H669      1.0  0.55944  0.56929  0.67573  1.0000
  S   S224      1.0  0.50781  0.59297  0.57337  1.0000
  S   S225      1.0  0.51135  0.58998  0.15874  1.0000
  C   C671      1.0  0.58411  0.54604  0.05342  1.0000
  C   C672      1.0  0.50497  0.58500  0.33109  1.0000
  H   H670      1.0  0.52055  0.57348  0.36079  1.0000
  H   H671      1.0  0.50406  0.54693  0.73976  1.0000
  S   S226      1.0  0.51012  0.54991  0.09995  1.0000
  H   H672      1.0  0.56316  0.58950  0.69399  1.0000
  S   S227      1.0  0.50126  0.55965  0.52267  1.0000
  C   C673      1.0  0.52562  0.54244  0.11584  1.0000
  S   S228      1.0  0.58687  0.50479  0.68769  1.0000
  C   C674      1.0  0.52861  0.56220  0.70885  1.0000
  H   H673      1.0  0.63231  0.51493  0.62174  1.0000
  C   C675      1.0  0.50434  0.57075  0.71100  1.0000
  C   C676      1.0  0.53208  0.54588  0.15321  1.0000
  H   H674      1.0  0.54890  0.51976  0.08001  1.0000
  C   C677      1.0  0.56528  0.55977  0.03505  1.0000
  H   H675      1.0  0.56709  0.53148  0.96819  1.0000
  H   H676      1.0  0.54968  0.54245  0.19314  1.0000
  H   H677      1.0  0.58270  0.55976  0.12228  1.0000
  Fe  Fe112     1.0  0.51312  0.56860  0.57876  1.0000
  S   S229      1.0  0.53802  0.56606  0.58855  1.0000
  H   H678      1.0  0.52664  0.53004  0.06109  1.0000
  H   H679      1.0  0.53842  0.60030  0.65487  1.0000
  H   H680      1.0  0.58718  0.52764  0.01418  1.0000
  H   H681      1.0  0.55288  0.55222  0.98166  1.0000
  C   C678      1.0  0.58106  0.53673  0.01979  1.0000
  H   H682      1.0  0.58985  0.57890  0.08630  1.0000
  C   C679      1.0  0.56185  0.55056  0.00133  1.0000
  C   C680      1.0  0.57943  0.56692  0.09628  1.0000
  C   C681      1.0  0.55605  0.58082  0.67351  1.0000
  C   C682      1.0  0.53100  0.58870  0.67414  1.0000
  H   H683      1.0  0.55878  0.56851  0.04126  1.0000
  C   C683      1.0  0.56977  0.53894  0.99381  1.0000
  C   C684      1.0  0.53757  0.51852  0.66636  1.0000
  C   C685      1.0  0.55262  0.52989  0.64525  1.0000
  C   C686      1.0  0.55265  0.54427  0.62049  1.0000
  C   C687      1.0  0.53764  0.54719  0.61627  1.0000
  C   C688      1.0  0.52262  0.53543  0.63622  1.0000
  C   C689      1.0  0.52260  0.52132  0.66164  1.0000
  H   H684      1.0  0.56424  0.52777  0.64859  1.0000
  H   H685      1.0  0.56434  0.55323  0.60485  1.0000
  H   H686      1.0  0.51099  0.53724  0.63266  1.0000
  H   H687      1.0  0.51090  0.51250  0.67767  1.0000
  H   H688      1.0  0.51221  0.57920  0.43190  1.0000
  H   H689      1.0  0.56814  0.56958  0.10926  1.0000
  N   N60       1.0  0.57609  0.55724  0.06095  1.0000
  H   H690      1.0  0.59255  0.54389  0.07420  1.0000
  H   H691      1.0  0.55991  0.58664  0.64047  1.0000
  H   H692      1.0  0.51736  0.50732  0.58535  1.0000
  H   H693      1.0  0.63791  0.50602  0.55381  1.0000
  C   C690      1.0  0.50694  0.58316  0.40579  1.0000
  H   H694      1.0  0.50757  0.51136  0.19041  1.0000
  H   H695      1.0  0.62430  0.50661  0.69807  1.0000
  C   C691      1.0  0.63412  0.50379  0.63600  1.0000
  H   H696      1.0  0.49964  0.64144  0.70301  1.0000
  Fe  Fe113     1.0  0.49903  0.56402  0.14331  1.0000
  S   S230      1.0  0.59330  0.50240  0.07653  1.0000
  Fe  Fe114     1.0  0.49803  0.57985  0.22420  1.0000
  Fe  Fe115     1.0  0.57057  0.50153  0.11958  1.0000
  H   H697      1.0  0.52964  0.50132  0.20274  1.0000
  H   H698      1.0  0.56243  0.50139  0.88841  1.0000
  S   S231      1.0  0.53674  0.50078  0.69937  1.0000
  S   S232      1.0  0.51770  0.90409  0.27056  1.0000
  Fe  Fe116     1.0  0.50995  0.92629  0.51272  1.0000
  H   H699      1.0  0.51378  0.85913  0.68704  1.0000
  C   C692      1.0  0.51126  0.93342  0.35952  1.0000
  H   H700      1.0  0.50547  0.87267  0.85401  1.0000
  S   S233      1.0  0.51766  0.92340  0.14923  1.0000
  C   C693      1.0  0.51570  0.85062  0.97636  1.0000
  H   H701      1.0  0.51522  0.83954  0.99623  1.0000
  S   S234      1.0  0.52976  0.93325  0.55519  1.0000
  C   C694      1.0  0.50164  0.86075  0.87533  1.0000
  C   C695      1.0  0.52139  0.88040  0.96468  1.0000
  Fe  Fe117     1.0  0.51209  0.91141  0.60093  1.0000
  H   H702      1.0  0.52337  0.89369  0.35296  1.0000
  H   H703      1.0  0.50984  0.93333  0.29362  1.0000
  C   C696      1.0  0.54533  0.98154  0.64422  1.0000
  C   C697      1.0  0.56206  0.97521  0.52777  1.0000
  S   S235      1.0  0.52315  0.97634  0.58599  1.0000
  H   H704      1.0  0.56342  0.98658  0.68744  1.0000
  H   H705      1.0  0.54310  0.96822  0.64725  1.0000
  H   H706      1.0  0.52865  0.96727  0.49487  1.0000
  H   H707      1.0  0.56098  0.96216  0.52818  1.0000
  C   C698      1.0  0.52617  0.99786  0.12004  1.0000
  H   H708      1.0  0.55756  0.98974  0.18935  1.0000
  C   C699      1.0  0.55686  0.99197  0.66685  1.0000
  C   C700      1.0  0.52328  0.98154  0.13893  1.0000
  C   C701      1.0  0.53459  0.97869  0.16420  1.0000
  Fe  Fe118     1.0  0.50035  0.93821  0.15712  1.0000
  H   H709      1.0  0.50417  0.83665  0.92914  1.0000
  N   N61       1.0  0.50922  0.86286  0.91389  1.0000
  C   C702      1.0  0.50545  0.86460  0.70282  1.0000
  H   H710      1.0  0.53245  0.96619  0.17908  1.0000
  H   H711      1.0  0.54207  0.97812  0.44735  1.0000
  C   C703      1.0  0.50941  0.84906  0.93828  1.0000
  C   C704      1.0  0.51869  0.91108  0.39340  1.0000
  N   N62       1.0  0.55314  0.98188  0.50331  1.0000
  C   C705      1.0  0.57244  0.98501  0.55335  1.0000
  S   S236      1.0  0.51759  0.89033  0.63767  1.0000
  C   C706      1.0  0.56477  0.99124  0.07193  1.0000
  H   H712      1.0  0.52597  0.86770  0.01987  1.0000
  S   S237      1.0  0.50565  0.96509  0.12925  1.0000
  H   H713      1.0  0.51442  0.88928  0.90807  1.0000
  H   H714      1.0  0.52132  0.90494  0.42100  1.0000
  C   C707      1.0  0.52167  0.86639  0.98965  1.0000
  C   C708      1.0  0.54161  0.97128  0.47832  1.0000
  C   C709      1.0  0.51442  0.92552  0.39586  1.0000
  C   C710      1.0  0.51502  0.87839  0.92671  1.0000
  Fe  Fe119     1.0  0.51539  0.94825  0.58496  1.0000
  H   H715      1.0  0.52548  0.89263  0.97553  1.0000
  H   H716      1.0  0.54444  0.98594  0.03557  1.0000
  C   C711      1.0  0.53686  0.98846  0.61748  1.0000
  H   H717      1.0  0.55940  0.97954  0.09254  1.0000
  C   C712      1.0  0.51986  0.90474  0.35476  1.0000
  C   C713      1.0  0.51650  0.91258  0.31849  1.0000
  H   H718      1.0  0.50543  0.85163  0.85777  1.0000
  C   C714      1.0  0.54879  0.99206  0.17006  1.0000
  H   H719      1.0  0.57912  0.97957  0.57360  1.0000
  C   C715      1.0  0.51214  0.92694  0.32122  1.0000
  C   C716      1.0  0.55412  0.99820  0.50394  1.0000
  S   S238      1.0  0.49955  0.92723  0.63369  1.0000
  H   H720      1.0  0.51748  0.00022  0.10057  1.0000
  S   S239      1.0  0.51297  0.93451  0.44287  1.0000
  Fe  Fe120     1.0  0.50606  0.91141  0.21528  1.0000
  H   H721      1.0  0.54464  0.95985  0.47252  1.0000
  C   C717      1.0  0.55636  0.99487  0.03994  1.0000
  C   C718      1.0  0.50499  0.88013  0.68560  1.0000
  H   H722      1.0  0.50810  0.94468  0.36094  1.0000
  H   H723      1.0  0.78445  0.24293  0.32092  1.0000
  Fe  Fe121     1.0  0.91087  0.38391  0.57258  1.0000
  S   S240      1.0  0.90324  0.35659  0.59710  1.0000
  S   S241      1.0  0.93187  0.39977  0.52330  1.0000
  Fe  Fe122     1.0  0.88411  0.38947  0.63179  1.0000
  S   S242      1.0  0.87430  0.36293  0.66200  1.0000
  S   S243      1.0  0.87500  0.40953  0.65325  1.0000
  Fe  Fe123     1.0  0.90121  0.36530  0.66071  1.0000
  S   S244      1.0  0.91429  0.35907  0.71380  1.0000
  Fe  Fe124     1.0  0.87687  0.35665  0.59596  1.0000
  S   S245      1.0  0.85370  0.33696  0.58015  1.0000
  S   S246      1.0  0.91074  0.39240  0.63563  1.0000
  S   S247      1.0  0.88474  0.38327  0.56636  1.0000
  Fe  Fe125     1.0  0.88997  0.38664  0.01038  1.0000
  S   S248      1.0  0.90525  0.38140  0.05812  1.0000
  S   S249      1.0  0.87895  0.40688  0.01526  1.0000
  Fe  Fe126     1.0  0.89336  0.35960  0.95886  1.0000
  S   S250      1.0  0.90899  0.35171  0.00271  1.0000
  S   S251      1.0  0.88248  0.34704  0.90406  1.0000
  Fe  Fe127     1.0  0.89067  0.35442  0.05474  1.0000
  S   S252      1.0  0.88127  0.33597  0.11407  1.0000
  Fe  Fe128     1.0  0.92222  0.37940  0.00296  1.0000
  S   S253      1.0  0.95003  0.39387  0.99335  1.0000
  S   S254      1.0  0.87402  0.35994  0.01115  1.0000
  S   S255      1.0  0.90792  0.38691  0.95508  1.0000
  C   C719      1.0  0.98571  0.40771  0.54561  1.0000
  S   S256      1.0  0.93665  0.47641  0.62358  1.0000
  S   S257      1.0  0.79988  0.44145  0.42615  1.0000
  C   C720      1.0  0.84765  0.49612  0.24427  1.0000
  H   H724      1.0  0.94635  0.37901  0.57072  1.0000
  S   S258      1.0  0.93675  0.47490  0.02116  1.0000
  Fe  Fe129     1.0  0.82243  0.46399  0.43080  1.0000
  S   S259      1.0  0.83583  0.46199  0.36920  1.0000
  S   S260      1.0  0.83408  0.46371  0.49148  1.0000
  S   S261      1.0  0.80047  0.45735  0.32975  1.0000
  Fe  Fe130     1.0  0.81247  0.44099  0.36264  1.0000
  S   S262      1.0  0.81539  0.41897  0.33234  1.0000
  Fe  Fe131     1.0  0.82302  0.47846  0.34081  1.0000
  C   C721      1.0  0.94941  0.39765  0.66946  1.0000
  S   S263      1.0  0.81092  0.48202  0.40312  1.0000
  Fe  Fe132     1.0  0.81569  0.31093  0.37456  1.0000
  S   S264      1.0  0.81360  0.33254  0.33399  1.0000
  S   S265      1.0  0.84040  0.31618  0.39986  1.0000
  Fe  Fe133     1.0  0.78126  0.28704  0.35932  1.0000
  S   S266      1.0  0.77665  0.30729  0.31886  1.0000
  H   H725      1.0  0.90720  0.32121  0.68916  1.0000
  Fe  Fe134     1.0  0.80358  0.31401  0.28995  1.0000
  S   S267      1.0  0.80974  0.32018  0.21944  1.0000
  Fe  Fe135     1.0  0.78730  0.32415  0.36631  1.0000
  S   S268      1.0  0.77642  0.34209  0.39570  1.0000
  S   S269      1.0  0.80766  0.29280  0.32773  1.0000
  S   S270      1.0  0.78986  0.30343  0.40965  1.0000
  C   C722      1.0  0.80417  0.39779  0.35093  1.0000
  C   C723      1.0  0.79313  0.39290  0.38828  1.0000
  C   C724      1.0  0.78440  0.37579  0.40155  1.0000
  C   C725      1.0  0.78679  0.36353  0.37773  1.0000
  C   C726      1.0  0.79779  0.36847  0.34044  1.0000
  C   C727      1.0  0.80645  0.38551  0.32719  1.0000
  H   H726      1.0  0.79144  0.40228  0.40704  1.0000
  H   H727      1.0  0.77594  0.37204  0.43052  1.0000
  C   C728      1.0  0.75842  0.41744  0.32298  1.0000
  H   H728      1.0  0.85240  0.48608  0.68230  1.0000
  H   H729      1.0  0.98159  0.37249  0.01792  1.0000
  C   C729      1.0  0.84620  0.47979  0.23701  1.0000
  C   C730      1.0  0.77941  0.28160  0.22031  1.0000
  C   C731      1.0  0.85574  0.31019  0.05969  1.0000
  H   H730      1.0  0.83854  0.46934  0.25962  1.0000
  H   H731      1.0  0.88501  0.49074  0.86721  1.0000
  C   C732      1.0  0.80788  0.25724  0.28286  1.0000
  H   H732      1.0  0.81489  0.38921  0.29815  1.0000
  C   C733      1.0  0.84893  0.47972  0.51308  1.0000
  C   C734      1.0  0.85699  0.49580  0.49178  1.0000
  C   C735      1.0  0.83974  0.32008  0.01344  1.0000
  C   C736      1.0  0.85327  0.47586  0.55238  1.0000
  C   C737      1.0  0.88757  0.31660  0.65031  1.0000
  C   C738      1.0  0.85175  0.32104  0.97999  1.0000
  C   C739      1.0  0.89524  0.42589  0.01300  1.0000
  C   C740      1.0  0.91189  0.42655  0.00907  1.0000
  C   C741      1.0  0.92471  0.44169  0.01085  1.0000
  C   C742      1.0  0.92083  0.45608  0.01730  1.0000
  C   C743      1.0  0.90418  0.45533  0.02105  1.0000
  C   C744      1.0  0.89144  0.44037  0.01817  1.0000
  H   H733      1.0  0.91494  0.41538  0.00520  1.0000
  H   H734      1.0  0.93756  0.44213  0.00794  1.0000
  H   H735      1.0  0.90093  0.46604  0.02748  1.0000
  H   H736      1.0  0.87858  0.43988  0.02145  1.0000
  C   C745      1.0  0.86201  0.33327  0.14494  1.0000
  C   C746      1.0  0.85009  0.33924  0.12958  1.0000
  C   C747      1.0  0.83423  0.33539  0.15309  1.0000
  C   C748      1.0  0.83033  0.32603  0.19276  1.0000
  C   C749      1.0  0.84242  0.32047  0.20870  1.0000
  C   C750      1.0  0.85811  0.32389  0.18462  1.0000
  H   H737      1.0  0.85294  0.34653  0.09919  1.0000
  H   H738      1.0  0.82496  0.33976  0.14053  1.0000
  H   H739      1.0  0.83960  0.31326  0.23921  1.0000
  H   H740      1.0  0.86729  0.31927  0.19682  1.0000
  C   C751      1.0  0.96049  0.39849  0.03717  1.0000
  C   C752      1.0  0.96096  0.44245  0.62345  1.0000
  C   C753      1.0  0.97431  0.41326  0.03430  1.0000
  H   H741      1.0  0.94605  0.37528  0.07500  1.0000
  H   H742      1.0  0.84857  0.35116  0.37481  1.0000
  C   C754      1.0  0.89252  0.42773  0.64642  1.0000
  C   C755      1.0  0.90540  0.43022  0.61365  1.0000
  C   C756      1.0  0.91929  0.44497  0.60748  1.0000
  C   C757      1.0  0.92028  0.45724  0.63407  1.0000
  C   C758      1.0  0.90758  0.45462  0.66732  1.0000
  C   C759      1.0  0.89362  0.43992  0.67328  1.0000
  H   H743      1.0  0.90443  0.42099  0.59222  1.0000
  H   H744      1.0  0.92894  0.44704  0.58131  1.0000
  H   H745      1.0  0.90855  0.46385  0.68866  1.0000
  H   H746      1.0  0.88374  0.43794  0.69887  1.0000
  C   C760      1.0  0.90580  0.35825  0.76640  1.0000
  C   C761      1.0  0.91592  0.35869  0.79796  1.0000
  C   C762      1.0  0.90915  0.35644  0.84035  1.0000
  C   C763      1.0  0.89206  0.35322  0.85152  1.0000
  C   C764      1.0  0.88197  0.35293  0.81991  1.0000
  C   C765      1.0  0.88886  0.35578  0.77755  1.0000
  H   H747      1.0  0.92902  0.36051  0.78967  1.0000
  H   H748      1.0  0.91702  0.35647  0.86436  1.0000
  H   H749      1.0  0.86874  0.35041  0.82828  1.0000
  H   H750      1.0  0.88094  0.35553  0.75360  1.0000
  C   C766      1.0  0.85025  0.33196  0.52930  1.0000
  C   C767      1.0  0.86338  0.33582  0.49658  1.0000
  C   C768      1.0  0.86015  0.33095  0.45704  1.0000
  C   C769      1.0  0.84376  0.32263  0.44956  1.0000
  C   C770      1.0  0.83058  0.31922  0.48197  1.0000
  C   C771      1.0  0.83386  0.32362  0.52184  1.0000
  H   H751      1.0  0.87606  0.34216  0.50196  1.0000
  H   H752      1.0  0.87043  0.33355  0.43217  1.0000
  H   H753      1.0  0.81793  0.31275  0.47665  1.0000
  H   H754      1.0  0.82362  0.32057  0.54699  1.0000
  C   C772      1.0  0.95240  0.40281  0.53333  1.0000
  H   H755      1.0  0.89535  0.31554  0.62286  1.0000
  H   H756      1.0  0.89297  0.31320  0.00847  1.0000
  H   H757      1.0  0.88980  0.47903  0.47549  1.0000
  C   C773      1.0  0.86497  0.49039  0.17117  1.0000
  C   C774      1.0  0.83701  0.36299  0.49529  1.0000
  C   C775      1.0  0.97283  0.39289  0.56313  1.0000
  H   H758      1.0  0.98807  0.39439  0.95747  1.0000
  H   H759      1.0  0.86894  0.48446  0.59984  1.0000
  H   H760      1.0  0.86536  0.45476  0.46660  1.0000
  C   C776      1.0  0.87100  0.31550  0.64833  1.0000
  C   C777      1.0  0.81965  0.35839  0.49949  1.0000
  N   N63       1.0  0.87800  0.43726  0.11698  1.0000
  C   C778      1.0  0.87700  0.42103  0.11413  1.0000
  C   C779      1.0  0.89282  0.44905  0.12171  1.0000
  C   C780      1.0  0.89118  0.41634  0.11506  1.0000
  C   C781      1.0  0.90728  0.44483  0.12235  1.0000
  C   C782      1.0  0.90643  0.42837  0.11876  1.0000
  C   C783      1.0  0.86330  0.44231  0.11435  1.0000
  H   H761      1.0  0.86540  0.41171  0.10928  1.0000
  H   H762      1.0  0.89361  0.46195  0.12346  1.0000
  H   H763      1.0  0.89045  0.40362  0.11097  1.0000
  H   H764      1.0  0.91917  0.45439  0.12406  1.0000
  H   H765      1.0  0.91764  0.42501  0.11773  1.0000
  H   H766      1.0  0.85257  0.43211  0.10615  1.0000
  H   H767      1.0  0.85942  0.44607  0.14460  1.0000
  H   H768      1.0  0.86628  0.45320  0.08989  1.0000
  N   N64       1.0  0.95930  0.41465  0.64984  1.0000
  C   C784      1.0  0.88248  0.30730  0.03420  1.0000
  C   C785      1.0  0.98464  0.41594  0.06584  1.0000
  H   H769      1.0  0.95695  0.39198  0.68758  1.0000
  H   H770      1.0  0.91222  0.49160  0.51224  1.0000
  H   H771      1.0  0.78078  0.41924  0.35005  1.0000
  C   C786      1.0  0.81571  0.27001  0.25007  1.0000
  H   H772      1.0  0.84706  0.46349  0.56925  1.0000
  C   C787      1.0  0.76756  0.41746  0.35608  1.0000
  H   H773      1.0  0.76817  0.25686  0.28299  1.0000
  C   C788      1.0  0.98184  0.42013  0.52224  1.0000
  C   C789      1.0  0.90835  0.46363  0.86216  1.0000
  S   S271      1.0  0.87580  0.48596  0.12660  1.0000
  H   H774      1.0  0.87515  0.31780  0.96114  1.0000
  H   H775      1.0  0.88712  0.31195  0.06320  1.0000
  C   C790      1.0  0.78149  0.26044  0.27307  1.0000
  H   H776      1.0  0.96605  0.47543  0.06776  1.0000
  H   H777      1.0  0.86607  0.31343  0.61904  1.0000
  C   C791      1.0  0.91699  0.47738  0.83248  1.0000
  H   H778      1.0  0.99156  0.43163  0.50893  1.0000
  C   C792      1.0  0.88418  0.32147  0.72217  1.0000
  C   C793      1.0  0.81155  0.35557  0.46429  1.0000
  H   H779      1.0  0.79804  0.35186  0.46695  1.0000
  H   H780      1.0  0.99555  0.42708  0.06267  1.0000
  H   H781      1.0  0.85057  0.32562  0.94868  1.0000
  N   N65       1.0  0.78923  0.27287  0.24083  1.0000
  N   N66       1.0  0.92920  0.49292  0.88644  1.0000
  Fe  Fe136     1.0  0.92671  0.49549  0.03424  1.0000
  H   H782      1.0  0.81458  0.35505  0.39827  1.0000
  C   C794      1.0  0.89473  0.49818  0.23547  1.0000
  H   H783      1.0  0.89056  0.45664  0.59679  1.0000
  H   H784      1.0  0.86649  0.43191  0.58882  1.0000
  H   H785      1.0  0.95490  0.45166  0.61824  1.0000
  H   H786      1.0  0.91522  0.47694  0.79993  1.0000
  H   H787      1.0  0.99382  0.47625  0.08675  1.0000
  H   H788      1.0  0.90196  0.49104  0.56370  1.0000
  C   C795      1.0  0.92756  0.49197  0.84519  1.0000
  H   H789      1.0  0.77735  0.29107  0.23971  1.0000
  S   S272      1.0  0.89954  0.49216  0.66207  1.0000
  S   S273      1.0  0.76357  0.25980  0.37614  1.0000
  H   H790      1.0  0.76675  0.41583  0.42284  1.0000
  S   S274      1.0  0.76157  0.45532  0.41729  1.0000
  C   C796      1.0  0.90625  0.48343  0.54198  1.0000
  H   H791      1.0  0.81240  0.28807  0.20489  1.0000
  H   H792      1.0  0.90379  0.45394  0.92743  1.0000
  C   C797      1.0  0.95619  0.39053  0.55746  1.0000
  H   H793      1.0  0.96238  0.42710  0.49696  1.0000
  C   C798      1.0  0.95663  0.38673  0.07261  1.0000
  H   H794      1.0  0.82916  0.27423  0.24156  1.0000
  C   C799      1.0  0.96527  0.41758  0.51567  1.0000
  Fe  Fe137     1.0  0.78915  0.45934  0.39400  1.0000
  H   H795      1.0  0.79949  0.35919  0.32142  1.0000
  H   H796      1.0  0.82912  0.32391  0.00831  1.0000
  C   C800      1.0  0.85474  0.47696  0.20055  1.0000
  C   C801      1.0  0.86572  0.48773  0.56977  1.0000
  C   C802      1.0  0.88539  0.45604  0.56773  1.0000
  C   C803      1.0  0.87167  0.44209  0.56346  1.0000
  N   N67       1.0  0.86129  0.31738  0.68251  1.0000
  H   H797      1.0  0.76713  0.27267  0.21564  1.0000
  C   C804      1.0  0.98134  0.40370  0.10011  1.0000
  H   H798      1.0  0.85347  0.46427  0.19538  1.0000
  H   H799      1.0  0.83250  0.31390  0.07993  1.0000
  H   H800      1.0  0.97574  0.38322  0.58119  1.0000
  C   C805      1.0  0.86573  0.31671  0.98729  1.0000
  C   C806      1.0  0.84164  0.31448  0.05355  1.0000
  C   C807      1.0  0.86456  0.44152  0.52663  1.0000
  C   C808      1.0  0.89419  0.31969  0.68747  1.0000
  H   H801      1.0  0.90004  0.45227  0.85276  1.0000
  C   C809      1.0  0.95168  0.42627  0.64284  1.0000
  H   H802      1.0  0.78600  0.28835  0.18932  1.0000
  H   H803      1.0  0.85358  0.43106  0.52331  1.0000
  H   H804      1.0  0.84415  0.33000  0.67311  1.0000
  H   H805      1.0  0.93836  0.42310  0.65215  1.0000
  C   C810      1.0  0.97804  0.44660  0.61055  1.0000
  C   C811      1.0  0.91037  0.46459  0.90404  1.0000
  H   H806      1.0  0.85732  0.30619  0.09110  1.0000
  N   N68       1.0  0.89207  0.46888  0.53599  1.0000
  N   N69       1.0  0.86774  0.31171  0.02689  1.0000
  H   H807      1.0  0.81519  0.25140  0.29995  1.0000
  C   C812      1.0  0.80614  0.27780  0.22943  1.0000
  C   C813      1.0  0.96712  0.38927  0.10380  1.0000
  C   C814      1.0  0.87129  0.45478  0.49459  1.0000
  H   H808      1.0  0.91594  0.47934  0.55533  1.0000
  H   H809      1.0  0.76456  0.41924  0.29116  1.0000
  H   H810      1.0  0.97733  0.42239  0.00691  1.0000
  H   H811      1.0  0.96449  0.37976  0.13025  1.0000
  C   C815      1.0  0.88508  0.46850  0.49989  1.0000
  H   H812      1.0  0.83575  0.31079  0.70882  1.0000
  H   H813      1.0  0.87934  0.29351  0.03712  1.0000
  H   H814      1.0  0.84341  0.36474  0.52262  1.0000
  H   H815      1.0  0.83905  0.31008  0.65364  1.0000
  H   H816      1.0  0.88938  0.32424  0.75089  1.0000
  H   H817      1.0  0.81249  0.35679  0.53004  1.0000
  H   H818      1.0  0.85947  0.36771  0.45297  1.0000
  H   H819      1.0  0.84145  0.36769  0.35506  1.0000
  H   H820      1.0  0.86037  0.37279  0.37796  1.0000
  C   C816      1.0  0.86775  0.32054  0.71897  1.0000
  C   C817      1.0  0.84604  0.36466  0.45577  1.0000
  C   C818      1.0  0.84758  0.36352  0.38029  1.0000
  C   C819      1.0  0.84420  0.31700  0.67953  1.0000
  N   N70       1.0  0.83801  0.36212  0.42135  1.0000
  H   H821      1.0  0.86031  0.32267  0.74564  1.0000
  C   C820      1.0  0.82098  0.35743  0.42531  1.0000
  H   H822      1.0  0.98196  0.40919  0.64061  1.0000
  S   S275      1.0  0.90273  0.49745  0.01693  1.0000
  Fe  Fe138     1.0  0.92676  0.49621  0.64425  1.0000
  C   C821      1.0  0.97600  0.41856  0.63677  1.0000
  S   S276      1.0  0.99573  0.40494  0.13595  1.0000
  H   H823      1.0  0.93855  0.39757  0.69159  1.0000
  H   H824      1.0  0.94468  0.38957  0.64521  1.0000
  C   C822      1.0  0.97507  0.48711  0.07360  1.0000
  H   H825      1.0  0.89826  0.49031  0.21436  1.0000
  H   H826      1.0  0.92228  0.48022  0.94824  1.0000
  C   C823      1.0  0.98560  0.43457  0.61709  1.0000
  C   C824      1.0  0.99280  0.38344  0.01488  1.0000
  H   H827      1.0  0.86123  0.49222  0.75164  1.0000
  C   C825      1.0  0.92088  0.47945  0.91567  1.0000
  H   H828      1.0  0.75521  0.45652  0.32972  1.0000
  C   C826      1.0  0.99064  0.48759  0.08386  1.0000
  H   H829      1.0  0.98541  0.45903  0.59511  1.0000
  C   C827      1.0  0.75968  0.41542  0.39689  1.0000
  C   C828      1.0  0.79066  0.25243  0.29454  1.0000
  H   H830      1.0  0.97703  0.49286  0.58397  1.0000
  H   H831      1.0  0.87851  0.47712  0.27889  1.0000
  C   C829      1.0  0.85784  0.49893  0.68847  1.0000
  C   C830      1.0  0.88361  0.49065  0.27189  1.0000
  H   H832      1.0  0.86898  0.49493  0.32516  1.0000
  H   H833      1.0  0.85376  0.49902  0.46166  1.0000
  C   C831      1.0  0.99647  0.39577  0.98086  1.0000
  S   S277      1.0  0.92155  0.49968  0.10008  1.0000
  S   S278      1.0  0.83817  0.50018  0.29141  1.0000
  S   S279      1.0  0.89496  0.49997  0.77899  1.0000
  C   C832      1.0  0.91358  0.52682  0.81651  1.0000
  H   H834      1.0  0.90448  0.52037  0.15976  1.0000
  S   S280      1.0  0.91135  0.53224  0.67180  1.0000
  H   H835      1.0  0.92176  0.51713  0.18242  1.0000
  C   C833      1.0  0.99326  0.57211  0.05225  1.0000
  Fe  Fe139     1.0  0.93775  0.53299  0.65386  1.0000
  S   S281      1.0  0.96045  0.55526  0.65882  1.0000
  C   C834      1.0  0.97753  0.51146  0.62522  1.0000
  C   C835      1.0  0.86633  0.50673  0.17818  1.0000
  C   C836      1.0  0.89524  0.52510  0.25078  1.0000
  Fe  Fe140     1.0  0.93461  0.52693  0.07792  1.0000
  S   S282      1.0  0.91098  0.53133  0.06414  1.0000
  S   S283      1.0  0.95168  0.53914  0.12358  1.0000
  C   C837      1.0  0.85762  0.50956  0.21451  1.0000
  C   C838      1.0  0.91843  0.53500  0.85149  1.0000
  N   N71       1.0  0.90055  0.51521  0.22563  1.0000
  S   S284      1.0  0.91824  0.53787  0.93534  1.0000
  C   C839      1.0  0.91155  0.52717  0.89223  1.0000
  S   S285      1.0  0.93169  0.51904  0.59881  1.0000
  H   H836      1.0  0.98771  0.56079  0.51489  1.0000
  H   H837      1.0  0.87519  0.52027  0.49300  1.0000
  C   C840      1.0  0.86039  0.51219  0.65724  1.0000
  H   H838      1.0  0.96567  0.50409  0.64369  1.0000
  Fe  Fe141     1.0  0.90485  0.51599  0.61997  1.0000
  C   C841      1.0  0.97113  0.50176  0.07095  1.0000
  C   C842      1.0  0.98343  0.55766  0.13512  1.0000
  C   C843      1.0  0.97195  0.55362  0.10647  1.0000
  C   C844      1.0  0.97696  0.56075  0.06486  1.0000
  H   H839      1.0  0.86726  0.55245  0.64189  1.0000
  H   H840      1.0  0.85870  0.52222  0.21979  1.0000
  H   H841      1.0  0.97965  0.55215  0.16735  1.0000
  H   H842      1.0  0.96821  0.55774  0.04252  1.0000
  C   C845      1.0  0.86920  0.50781  0.50960  1.0000
  Fe  Fe142     1.0  0.91745  0.52461  0.99969  1.0000
  C   C846      1.0  0.89441  0.50308  0.86264  1.0000
  H   H843      1.0  0.91799  0.53639  0.18551  1.0000
  S   S286      1.0  0.88892  0.51955  0.57001  1.0000
  H   H844      1.0  0.98142  0.53246  0.66045  1.0000
  N   N72       1.0  0.86764  0.52841  0.66451  1.0000
  C   C847      1.0  0.86272  0.50237  0.72734  1.0000
  H   H845      1.0  0.85681  0.50941  0.62689  1.0000
  H   H846      1.0  0.92765  0.54746  0.84697  1.0000
  H   H847      1.0  0.95197  0.50637  0.90713  1.0000
  C   C848      1.0  0.87240  0.53189  0.70261  1.0000
  C   C849      1.0  0.97711  0.56306  0.61758  1.0000
  C   C850      1.0  0.97552  0.55808  0.57786  1.0000
  C   C851      1.0  0.98909  0.56449  0.54573  1.0000
  H   H848      1.0  0.87388  0.51717  0.15544  1.0000
  C   C852      1.0  0.87376  0.50382  0.54846  1.0000
  C   C853      1.0  0.89959  0.51108  0.89761  1.0000
  H   H849      1.0  0.96378  0.54950  0.57173  1.0000
  H   H850      1.0  0.87420  0.52167  0.76447  1.0000
  S   S287      1.0  0.94198  0.52229  0.01309  1.0000
  H   H851      1.0  0.91911  0.53297  0.78540  1.0000
  Fe  Fe143     1.0  0.90830  0.50844  0.71246  1.0000
  C   C854      1.0  0.86998  0.51894  0.73460  1.0000
  H   H852      1.0  0.93396  0.50271  0.82196  1.0000
  H   H853      1.0  0.94340  0.51917  0.87541  1.0000
  C   C855      1.0  0.98286  0.51674  0.07840  1.0000
  C   C856      1.0  0.87126  0.54220  0.63085  1.0000
  H   H854      1.0  0.97963  0.52801  0.07652  1.0000
  C   C857      1.0  0.90144  0.51085  0.82194  1.0000
  S   S288      1.0  0.93499  0.51018  0.69775  1.0000
  H   H855      1.0  0.88489  0.54711  0.61950  1.0000
  H   H856      1.0  0.86476  0.53802  0.60370  1.0000
  C   C858      1.0  0.99241  0.57428  0.62510  1.0000
  H   H857      1.0  0.87928  0.52570  0.30642  1.0000
  C   C859      1.0  0.98389  0.50519  0.59154  1.0000
  H   H858      1.0  0.89930  0.53854  0.24217  1.0000
  C   C860      1.0  0.91170  0.52266  0.18648  1.0000
  C   C861      1.0  0.88405  0.51797  0.28732  1.0000
  Fe  Fe144     1.0  0.89835  0.50348  0.08252  1.0000
  H   H859      1.0  0.87855  0.54471  0.70809  1.0000
  C   C862      1.0  0.94028  0.50821  0.89970  1.0000
  H   H860      1.0  0.99697  0.57780  0.02014  1.0000
  H   H861      1.0  0.99368  0.57821  0.65578  1.0000
  H   H862      1.0  0.89406  0.50496  0.92870  1.0000
  C   C863      1.0  0.98641  0.52732  0.63476  1.0000
  H   H863      1.0  0.93403  0.51144  0.92785  1.0000
  H   H864      1.0  0.95903  0.50151  0.06329  1.0000
  C   C864      1.0  0.87828  0.50064  0.29795  1.0000
