data_image0
_chemical_formula_structural       FeS2CSFeSFeS3FeS2FeSCFeSFeS2FeS2FeS2FeSFeCS2HFeS2FeS2FeSFeS3C2SHC2HC4H5C2H3CNC3H3C6H4C2H2C5HC7H4C6H5CH3CH3C2H2CH2C3NSH2NC2HCH4NCH2C2HCNC2HCH3NHC4HNC6H10FeC3HC2HCH2CSCSHCNHCHCH4CH2CH4CH2C2H2FeSCFeS2FeCFeS3FeS2FeS2FeSFeCS2FeS2FeS2FeSFeS3FeS2FeS2FeSFeS3C2H4NCH2C6H9C3H5C3H4C6H5C3HC4HC7H5CNC6H8CH2CHC2NC5H3C2HCH4CH2C8HC2HCHC6H5CH3N2H2C2H2C4H5FeSHFeS2FeSFeCS2FeS2FeS2FeSFeS2CFeS2FeS2FeSFeS3HFeS2FeS2FeSFeS3H2CHC3HCHCHC6H5C7H4C7H3C6H6C6H4C3H4CHC3H4C5HC2H2NH2C3H2C3H2CHCHC2H4NC5H4NH2C7HCH2NHCHCHCH2N2C5H2CHCHCH5C2NH3CHCH2NH4CH5C3HC2H2CFeS2FeSHFeSFeS3FeS2FeSFeSFeS3HFeS2FeS2FeSFeS3FeS2FeS2FeSFeS3C4HC3H2C7H4CHC5H3C7H5NCNCH2C6H4C5H2CH2C6H6C3H2CH2NC6H2SH2C2HCNH3CHCH5C2NC5HC2HC2H4CH2C3HCHC2NH2NHC8H6CHC2H6CH2C2H6CH3C2HC2HSH2NH2C3H2FeS2FeS2FeSFeS3FeS2FeS2Fe2S3FeS2FeS2FeSFeS3FeS2FeS2FeSFeCS2CHC2H5NH3CH3C2HC6H4C4HC4NHCH5C6H5CH2C6H4CH3C3NC6H9NC6H8C4HC2HCNH2C3H2CHC3H3C3HCH3CH5CNHCHC3HC3HCHC2HCHC2HC2H3CH3FeSHFeS2FeSFeS3FeS2FeS2FeSFeS3FeS2FeS2FeSFeS3HFeS2FeS2FeSFeS3H2C5H2C2H2C2HNH2C6H5C4HCHCHC6H4C4H3C5HSC6H4C2H4CH2C6H2CHNC2SC3H4CH5CH3CHNHCH2C7HCHCHC3HCHC2H2CH3NHC2H4NC6H8NC6H8CHC5H3C2HCNH5C2HNH8C2N2H2C2H2CHSH2CH2C2FeS2FeS2FeSFeS3NFeS2FeS2FeSFeS3FeS2FeS2FeSFeCS2CFeS2FeSFeSFeS3C3HCH3C6H4C2H2C2HCH2C6H4C6H6C7H4C6H4C2H2C5HC2NH2C5H5NSH4CH2NHCHNCH3C2H2CH2C3HCHCHSCHSCNHCH2CNHCH3C2HC2HC2H2SH2C2HCHCHNC3H3CH2C3H2CH2CHCHCH4C4HCNH2CH2CH4C3HCHC2HCHSC2H4FeS2FeS2FeSFeS3FeS2FeS2FeSFeCS2FeSHFeS2FeSFeS3FeS2FeSHFeSFeS3CHC2H4NC8H4C6H3C2H2SCHC2H2C4HC6H5CH2NC2HC6H4NC6H8SHCH2C5HCH2NHCH2C2H2CNC6H8C3NC6H8CH3CHCH2CNHC2H2NC2HCH4CHNHCH3CH3CHCHCH4FeS2FeS2FeSFeS3FeS2FeSFeSFeS3CFeS2FeS2FeSFeS3HFeSFeS2FeSFeS3HC4SH3C3HNH2C3HC2H4C6H4CHC6H2CH3CHNH2C6H4C6H4C6H4CH3CH2CH7NC6H2CHCH7C3NSNC6H8C2H2C2HCH2CHCH2C4HC2HNC6H2SH2CH2CH2CNC2H3C2HCHCH3C3H3CHCH4C3H3C2HFeS2FeSCFeSFeS3FeS2FeSNFeSFeS3FeS2FeS2FeHFeS3FeSHFeS2FeSFeS3H2CHNHNHC6H4CNH2C5HC3HC6H4C6H5CH3C6H4C4HNC6H10C2H3CHNH3SC3H2CH2C6HC2H5NH2C3H3NC3H3CSCH3C2HCHCH2C4HCH3C2HCSH2SH5CH3CHNCHFeS2FeS2FeHFeS3FeS2FeS2FeSFeHS2FeSFeS2FeSFeS3FeS2FeSCFeSFeS3CH3C2HNHNC6H5C6HCH3CHCH6CH2C4H3C6H4C2H3C6H4C4H2CH2C3SH2CSH3C4H3CHCH2C2SHC2H4C2H4NHC4H3CH4C2HCHCNCHC3H2NCNC2HCHSNCH2C4HCHCH2SCHC2FeS2FeS2FeSFeS3HFeS2FeS2FeSFeS3FeS2FeS2FeSFeS3FeS2FeS2FeSFeS2HC4H7CHCH2C5H3C4HCH2C8H4C6H4C2H8C7H3C6H4C5HC4H3NHCH3C2H2CH2NCH3SHCNC5H6NC2H2C3H3C2NC6H9CH2C2H2C3H2SH3NC6H8NC5NH5NCHC4HCHC2HCH4C2H2C2HCH2C2H4C2HCSFeS2FeS2FeSFeS3CFeS2FeS2FeSFeS3CFeS2FeSFeSFeS3FeSNFeS2FeSFeCS2NHCHC4HSHCHC6H4CNH2C6HC2HC2HC3H5C6H4C6H4C5HC3NH3CH2CHCH2C2HCH2C2H2CH2SNC2H2NC6H9C2HC2HNHCNC3H4CHC2H6CH2C2H2CH2CHC3HCNHSCH2CH2C3HC3SH6CHCHCHC2H4C2H4C2HCFeS2FeS2FeSFeS3FeS2FeS2FeSFeS3FeS2FeS2FeSFeS2FeS2FeSHFeHFeS3HCNSHC3NC7H5C4HC5HCH2C3NC2H4C5H5C6H4C6H4C3H2C5HNC6H8NHC4HCSCHCHCHCH3CH4CNHCH3CH2NCHC3HNC2HCH3C2H2CHCNHC3HCHCNHCHCH6C3HCH2CHCHCHC3HC2HCHCH2SH2SH3CHCH4FeS2FeS2FeSFeS3FeS2FeS2FeSFeS3FeSFeS2FeSFeS3FeS2FeSCFeSFeS2C2H4NH4C6H4C2H3NCH2C2H2C2NC2HC2HC7H5CH2C7H4CHC5H2NC6H12CHCH2C2HCH3CH4CHSC2HC3H2CHCHCHNC4HC3HNC2H3C3SC4H3C2H6CH2CHCH5C3HCH3C2H3NFeS2FeS2FeSFeS3FeS2FeS2FeSFeS3FeS2FeSCFeSFeS3FeSHFeS2FeHFeS3CHCH3C3H3C6H4C3NHC2H2CH2C2H2C3HC6H5C2H2C6H4C3H2NC2H4C2HNC2HCHCHNC2H6C5HCH2SH2C4NHNH2C3HNC6H12C4H2C4HC2H3CH2C2H3C3SHC
_chemical_formula_sum              "Fe256 S512 C1536 H1536 N128"
_cell_length_a       65.6455
_cell_length_b       66.0736
_cell_length_c       79.7325
_cell_angle_alpha    81.3914
_cell_angle_beta     81.5902
_cell_angle_gamma    80.5481

_space_group_name_H-M_alt    "P 1"
_space_group_IT_number       1

loop_
  _space_group_symop_operation_xyz
  'x, y, z'

loop_
  _atom_site_type_symbol
  _atom_site_label
  _atom_site_symmetry_multiplicity
  _atom_site_fract_x
  _atom_site_fract_y
  _atom_site_fract_z
  _atom_site_occupancy
  Fe  Fe1       1.0  0.41207  0.22342  0.05153  1.0000
  S   S1        1.0  0.41988  0.19815  0.03449  1.0000
  S   S2        1.0  0.37829  0.23876  0.04992  1.0000
  C   C1        1.0  0.14423  0.39298  0.19435  1.0000
  S   S3        1.0  0.46648  0.18861  0.04610  1.0000
  Fe  Fe2       1.0  0.45012  0.21026  0.02627  1.0000
  S   S4        1.0  0.46480  0.21821  0.99911  1.0000
  Fe  Fe3       1.0  0.43535  0.17866  0.05609  1.0000
  S   S5        1.0  0.43216  0.14445  0.06195  1.0000
  S   S6        1.0  0.44173  0.23674  0.04189  1.0000
  S   S7        1.0  0.42553  0.20282  0.07382  1.0000
  Fe  Fe4       1.0  0.43299  0.05638  0.14196  1.0000
  S   S8        1.0  0.45252  0.05086  0.16364  1.0000
  S   S9        1.0  0.42104  0.09063  0.13492  1.0000
  Fe  Fe5       1.0  0.43306  0.00964  0.14232  1.0000
  S   S10       1.0  0.45258  0.00118  0.16370  1.0000
  C   C2        1.0  0.01384  0.35056  0.19941  1.0000
  Fe  Fe6       1.0  0.43251  0.02712  0.17581  1.0000
  S   S11       1.0  0.41988  0.02065  0.20368  1.0000
  Fe  Fe7       1.0  0.47101  0.02547  0.14961  1.0000
  S   S12       1.0  0.41129  0.03422  0.15540  1.0000
  S   S13       1.0  0.45306  0.03236  0.12696  1.0000
  Fe  Fe8       1.0  0.29686  0.34451  0.05998  1.0000
  S   S14       1.0  0.27500  0.33750  0.04300  1.0000
  S   S15       1.0  0.32916  0.32767  0.06511  1.0000
  Fe  Fe9       1.0  0.27103  0.38719  0.06512  1.0000
  S   S16       1.0  0.24802  0.38347  0.04813  1.0000
  S   S17       1.0  0.26417  0.41516  0.07939  1.0000
  Fe  Fe10      1.0  0.24922  0.35125  0.06213  1.0000
  S   S18       1.0  0.21741  0.34091  0.06996  1.0000
  Fe  Fe11      1.0  0.27547  0.37039  0.03080  1.0000
  C   C3        1.0  0.10600  0.45815  0.13472  1.0000
  S   S19       1.0  0.27104  0.35555  0.08011  1.0000
  S   S20       1.0  0.29854  0.37686  0.04673  1.0000
  H   H1        1.0  0.37317  0.18429  0.10878  1.0000
  Fe  Fe12      1.0  0.12741  0.35836  0.14621  1.0000
  S   S21       1.0  0.11649  0.38830  0.15698  1.0000
  S   S22       1.0  0.16281  0.35172  0.14205  1.0000
  Fe  Fe13      1.0  0.08248  0.35129  0.14580  1.0000
  S   S23       1.0  0.06856  0.38097  0.15585  1.0000
  S   S24       1.0  0.06287  0.32828  0.14061  1.0000
  Fe  Fe14      1.0  0.09390  0.39428  0.13781  1.0000
  S   S25       1.0  0.09184  0.42628  0.12364  1.0000
  Fe  Fe15      1.0  0.09236  0.37237  0.17427  1.0000
  S   S26       1.0  0.07963  0.38048  0.20078  1.0000
  S   S27       1.0  0.10611  0.36539  0.12583  1.0000
  S   S28       1.0  0.10496  0.34150  0.16545  1.0000
  C   C4        1.0  0.09483  0.44142  0.13907  1.0000
  C   C5        1.0  0.08681  0.43601  0.15609  1.0000
  S   S29       1.0  0.28288  0.38203  0.00276  1.0000
  H   H2        1.0  0.07800  0.42322  0.15950  1.0000
  C   C6        1.0  0.37684  0.18319  0.06600  1.0000
  C   C7        1.0  0.99198  0.32869  0.14963  1.0000
  H   H3        1.0  0.36786  0.12154  0.08006  1.0000
  C   C8        1.0  0.02154  0.34771  0.14706  1.0000
  C   C9        1.0  0.03541  0.32976  0.14362  1.0000
  C   C10       1.0  0.02737  0.31159  0.14299  1.0000
  C   C11       1.0  0.00594  0.31100  0.14618  1.0000
  H   H4        1.0  0.38269  0.15544  0.05400  1.0000
  H   H5        1.0  0.02760  0.36187  0.14753  1.0000
  H   H6        1.0  0.03788  0.29768  0.14034  1.0000
  H   H7        1.0  0.00018  0.29660  0.14601  1.0000
  H   H8        1.0  0.28784  0.42671  0.10517  1.0000
  C   C12       1.0  0.09287  0.37187  0.21883  1.0000
  C   C13       1.0  0.11168  0.35840  0.21793  1.0000
  H   H9        1.0  0.39443  0.12165  0.06992  1.0000
  H   H10       1.0  0.42404  0.23881  0.00711  1.0000
  H   H11       1.0  0.11810  0.35236  0.20607  1.0000
  C   C14       1.0  0.37424  0.19139  0.08143  1.0000
  N   N1        1.0  0.11913  0.41241  0.21318  1.0000
  C   C15       1.0  0.27451  0.43792  0.07023  1.0000
  C   C16       1.0  0.29105  0.43745  0.05702  1.0000
  C   C17       1.0  0.30086  0.45508  0.05147  1.0000
  H   H12       1.0  0.00113  0.36120  0.20490  1.0000
  H   H13       1.0  0.29671  0.42332  0.05144  1.0000
  H   H14       1.0  0.37657  0.19348  0.05405  1.0000
  C   C18       1.0  0.20255  0.34351  0.09019  1.0000
  C   C19       1.0  0.21162  0.34652  0.10429  1.0000
  C   C20       1.0  0.19926  0.34883  0.12009  1.0000
  C   C21       1.0  0.17769  0.34841  0.12194  1.0000
  C   C22       1.0  0.16861  0.34542  0.10786  1.0000
  C   C23       1.0  0.18103  0.34277  0.09212  1.0000
  H   H15       1.0  0.22819  0.34680  0.10307  1.0000
  H   H16       1.0  0.20645  0.35092  0.13096  1.0000
  H   H17       1.0  0.15207  0.34485  0.10914  1.0000
  H   H18       1.0  0.17390  0.34026  0.08135  1.0000
  C   C24       1.0  0.30461  0.42807  0.10139  1.0000
  C   C25       1.0  0.30946  0.39215  0.09537  1.0000
  H   H19       1.0  0.37201  0.20806  0.08144  1.0000
  H   H20       1.0  0.25850  0.34840  0.00410  1.0000
  C   C26       1.0  0.46582  0.98795  0.21183  1.0000
  C   C27       1.0  0.42755  0.03197  0.21993  1.0000
  C   C28       1.0  0.44049  0.04731  0.21629  1.0000
  C   C29       1.0  0.08465  0.37951  0.23430  1.0000
  C   C30       1.0  0.41851  0.09878  0.19692  1.0000
  H   H21       1.0  0.44671  0.05200  0.20322  1.0000
  C   C31       1.0  0.15568  0.38495  0.20789  1.0000
  C   C32       1.0  0.36519  0.26384  0.05375  1.0000
  C   C33       1.0  0.34432  0.26951  0.05055  1.0000
  C   C34       1.0  0.33312  0.28901  0.05374  1.0000
  C   C35       1.0  0.34263  0.30308  0.06030  1.0000
  C   C36       1.0  0.36355  0.29748  0.06334  1.0000
  C   C37       1.0  0.37479  0.27804  0.06005  1.0000
  H   H22       1.0  0.33667  0.25863  0.04579  1.0000
  H   H23       1.0  0.31699  0.29293  0.05153  1.0000
  H   H24       1.0  0.37109  0.30819  0.06843  1.0000
  H   H25       1.0  0.39079  0.27396  0.06261  1.0000
  C   C38       1.0  0.43246  0.12973  0.08247  1.0000
  C   C39       1.0  0.42759  0.13911  0.09745  1.0000
  C   C40       1.0  0.42465  0.12689  0.11346  1.0000
  C   C41       1.0  0.42715  0.10517  0.11472  1.0000
  C   C42       1.0  0.43288  0.09577  0.09980  1.0000
  C   C43       1.0  0.43530  0.10801  0.08376  1.0000
  H   H26       1.0  0.42537  0.15580  0.09665  1.0000
  H   H27       1.0  0.42028  0.13431  0.12493  1.0000
  H   H28       1.0  0.43475  0.07909  0.10056  1.0000
  H   H29       1.0  0.43900  0.10060  0.07225  1.0000
  H   H30       1.0  0.31543  0.36055  0.08958  1.0000
  C   C44       1.0  0.32650  0.33915  0.01609  1.0000
  H   H31       1.0  0.14924  0.38813  0.18179  1.0000
  H   H32       1.0  0.31228  0.42716  0.11304  1.0000
  H   H33       1.0  0.11240  0.46222  0.12157  1.0000
  C   C45       1.0  0.41504  0.09318  0.18150  1.0000
  H   H34       1.0  0.33444  0.43103  0.07488  1.0000
  H   H35       1.0  0.16957  0.37372  0.20596  1.0000
  H   H36       1.0  0.05926  0.31351  0.17910  1.0000
  C   C46       1.0  0.10159  0.46359  0.16457  1.0000
  C   C47       1.0  0.29393  0.47344  0.05880  1.0000
  H   H37       1.0  0.31398  0.45449  0.04153  1.0000
  H   H38       1.0  0.03753  0.36756  0.20422  1.0000
  C   C48       1.0  0.02596  0.32042  0.18585  1.0000
  H   H39       1.0  0.38933  0.11768  0.09264  1.0000
  H   H40       1.0  0.37851  0.14636  0.10830  1.0000
  C   C49       1.0  0.38306  0.12631  0.08095  1.0000
  C   C50       1.0  0.33035  0.41553  0.07827  1.0000
  C   C51       1.0  0.38011  0.16171  0.06607  1.0000
  N   N2        1.0  0.31864  0.33123  0.00244  1.0000
  S   S30       1.0  0.10515  0.47747  0.18067  1.0000
  H   H41       1.0  0.44385  0.18231  0.00071  1.0000
  H   H42       1.0  0.10189  0.44245  0.20940  1.0000
  N   N3        1.0  0.31482  0.41162  0.09124  1.0000
  C   C52       1.0  0.09013  0.44711  0.16881  1.0000
  C   C53       1.0  0.13041  0.40483  0.22649  1.0000
  H   H43       1.0  0.02292  0.30734  0.18034  1.0000
  C   C54       1.0  0.37723  0.05563  0.19670  1.0000
  H   H44       1.0  0.34353  0.36740  0.06606  1.0000
  H   H45       1.0  0.25456  0.45683  0.08764  1.0000
  H   H46       1.0  0.39653  0.23789  0.01225  1.0000
  H   H47       1.0  0.39421  0.21019  0.99690  1.0000
  N   N4        1.0  0.47326  0.99998  0.22309  1.0000
  C   C55       1.0  0.31977  0.37598  0.08642  1.0000
  H   H48       1.0  0.34378  0.33677  0.01429  1.0000
  H   H49       1.0  0.30520  0.44364  0.09389  1.0000
  C   C56       1.0  0.26734  0.45636  0.07738  1.0000
  C   C57       1.0  0.04659  0.32375  0.18519  1.0000
  H   H50       1.0  0.08361  0.44302  0.18189  1.0000
  C   C58       1.0  0.48631  0.01412  0.21631  1.0000
  N   N5        1.0  0.39168  0.07033  0.19679  1.0000
  C   C59       1.0  0.40135  0.07899  0.18166  1.0000
  C   C60       1.0  0.39474  0.07599  0.21196  1.0000
  H   H51       1.0  0.13717  0.34288  0.23156  1.0000
  C   C61       1.0  0.14883  0.39099  0.22406  1.0000
  H   H52       1.0  0.37668  0.04457  0.20869  1.0000
  H   H53       1.0  0.40540  0.26102  0.00116  1.0000
  H   H54       1.0  0.32067  0.35594  0.01601  1.0000
  N   N6        1.0  0.38062  0.14875  0.08114  1.0000
  H   H55       1.0  0.42300  0.09961  0.16945  1.0000
  C   C62       1.0  0.30798  0.31463  0.00608  1.0000
  C   C63       1.0  0.09968  0.42668  0.21581  1.0000
  C   C64       1.0  0.99976  0.34724  0.14987  1.0000
  C   C65       1.0  0.10953  0.46916  0.14752  1.0000
  H   H56       1.0  0.32138  0.33125  0.02896  1.0000
  N   N7        1.0  0.18958  0.39692  0.09577  1.0000
  C   C66       1.0  0.18073  0.40154  0.11164  1.0000
  C   C67       1.0  0.17741  0.39386  0.08410  1.0000
  C   C68       1.0  0.15917  0.40299  0.11622  1.0000
  C   C69       1.0  0.15579  0.39520  0.08826  1.0000
  C   C70       1.0  0.14666  0.39987  0.10442  1.0000
  C   C71       1.0  0.21211  0.39617  0.09096  1.0000
  H   H57       1.0  0.19035  0.40380  0.12096  1.0000
  H   H58       1.0  0.18446  0.38983  0.07162  1.0000
  H   H59       1.0  0.15219  0.40622  0.12892  1.0000
  H   H60       1.0  0.14622  0.39232  0.07913  1.0000
  H   H61       1.0  0.12992  0.40090  0.10787  1.0000
  H   H62       1.0  0.22070  0.39075  0.10220  1.0000
  H   H63       1.0  0.21808  0.38510  0.08154  1.0000
  H   H64       1.0  0.21585  0.41174  0.08526  1.0000
  H   H65       1.0  0.11866  0.48173  0.14422  1.0000
  H   H66       1.0  0.06665  0.34348  0.19154  1.0000
  Fe  Fe16      1.0  0.45603  0.21402  0.06246  1.0000
  C   C72       1.0  0.27692  0.47414  0.07161  1.0000
  C   C73       1.0  0.37488  0.17806  0.09673  1.0000
  C   C74       1.0  0.33558  0.37983  0.07317  1.0000
  H   H67       1.0  0.42933  0.10954  0.19699  1.0000
  C   C75       1.0  0.40870  0.24387  0.00240  1.0000
  C   C76       1.0  0.37791  0.15665  0.09637  1.0000
  H   H68       1.0  0.39870  0.07482  0.16957  1.0000
  C   C77       1.0  0.05074  0.34071  0.19193  1.0000
  H   H69       1.0  0.35294  0.40297  0.05853  1.0000
  H   H70       1.0  0.30495  0.30733  0.01914  1.0000
  C   C78       1.0  0.34086  0.39975  0.06897  1.0000
  S   S31       1.0  0.41977  0.98360  0.13419  1.0000
  C   C79       1.0  0.40816  0.09031  0.21226  1.0000
  S   S32       1.0  0.47982  0.21916  0.07873  1.0000
  H   H71       1.0  0.29691  0.38913  0.10544  1.0000
  C   C80       1.0  0.03431  0.35424  0.19908  1.0000
  N   N8        1.0  0.00990  0.33380  0.19286  1.0000
  H   H72       1.0  0.38250  0.04597  0.18616  1.0000
  C   C81       1.0  0.12592  0.40686  0.19722  1.0000
  H   H73       1.0  0.08716  0.42130  0.21036  1.0000
  C   C82       1.0  0.12244  0.35303  0.23237  1.0000
  H   H74       1.0  0.11686  0.41281  0.18674  1.0000
  H   H75       1.0  0.36140  0.06404  0.19519  1.0000
  H   H76       1.0  0.41103  0.09423  0.22438  1.0000
  H   H77       1.0  0.38728  0.06898  0.22398  1.0000
  C   C83       1.0  0.44470  0.05720  0.22960  1.0000
  H   H78       1.0  0.09425  0.42743  0.22960  1.0000
  H   H79       1.0  0.45425  0.06947  0.22672  1.0000
  C   C84       1.0  0.26327  0.35396  0.99087  1.0000
  H   H80       1.0  0.29167  0.29416  0.99598  1.0000
  H   H81       1.0  0.05189  0.46179  0.13086  1.0000
  H   H82       1.0  0.02417  0.46436  0.13243  1.0000
  H   H83       1.0  0.46415  0.99707  0.19909  1.0000
  C   C85       1.0  0.03737  0.47322  0.13160  1.0000
  H   H84       1.0  0.07002  0.38982  0.23511  1.0000
  H   H85       1.0  0.15714  0.38427  0.23486  1.0000
  C   C86       1.0  0.41966  0.02594  0.23693  1.0000
  C   C87       1.0  0.30055  0.30700  0.99303  1.0000
  H   H86       1.0  0.27989  0.42719  0.98852  1.0000
  H   H87       1.0  0.45006  0.98402  0.21707  1.0000
  Fe  Fe17      1.0  0.46912  0.04074  0.31823  1.0000
  S   S33       1.0  0.47544  0.03154  0.29193  1.0000
  C   C88       1.0  0.27457  0.02969  0.47970  1.0000
  Fe  Fe18      1.0  0.42535  0.02826  0.32490  1.0000
  S   S34       1.0  0.42814  0.01824  0.29878  1.0000
  S   S35       1.0  0.39928  0.01818  0.34511  1.0000
  Fe  Fe19      1.0  0.46049  0.00382  0.30333  1.0000
  C   C89       1.0  0.28658  0.04581  0.47657  1.0000
  Fe  Fe20      1.0  0.44285  0.04675  0.28896  1.0000
  S   S36       1.0  0.44036  0.06521  0.26286  1.0000
  S   S37       1.0  0.45701  0.01142  0.33013  1.0000
  S   S38       1.0  0.43727  0.05850  0.31472  1.0000
  Fe  Fe21      1.0  0.26909  0.03301  0.43492  1.0000
  S   S39       1.0  0.24460  0.02479  0.42103  1.0000
  S   S40       1.0  0.26442  0.02088  0.46322  1.0000
  Fe  Fe22      1.0  0.29382  0.04996  0.40150  1.0000
  S   S41       1.0  0.27096  0.04289  0.38571  1.0000
  S   S42       1.0  0.32082  0.06608  0.38744  1.0000
  Fe  Fe23      1.0  0.24605  0.05608  0.40548  1.0000
  S   S43       1.0  0.21837  0.07768  0.39513  1.0000
  Fe  Fe24      1.0  0.27156  0.01254  0.40280  1.0000
  C   C90       1.0  0.13476  0.29446  0.39690  1.0000
  S   S44       1.0  0.26892  0.06514  0.42041  1.0000
  S   S45       1.0  0.29600  0.01888  0.41750  1.0000
  Fe  Fe25      1.0  0.11913  0.39676  0.31570  1.0000
  S   S46       1.0  0.10705  0.40383  0.29025  1.0000
  S   S47       1.0  0.13975  0.41579  0.32522  1.0000
  Fe  Fe26      1.0  0.09786  0.35764  0.32679  1.0000
  S   S48       1.0  0.08387  0.36205  0.30211  1.0000
  S   S49       1.0  0.08666  0.33339  0.34837  1.0000
  Fe  Fe27      1.0  0.11485  0.36960  0.28916  1.0000
  S   S50       1.0  0.12966  0.35662  0.26479  1.0000
  Fe  Fe28      1.0  0.07725  0.39570  0.30528  1.0000
  S   S51       1.0  0.04624  0.41370  0.30037  1.0000
  S   S52       1.0  0.12970  0.36276  0.31361  1.0000
  S   S53       1.0  0.08857  0.39115  0.33090  1.0000
  Fe  Fe29      1.0  0.12945  0.17614  0.41652  1.0000
  S   S54       1.0  0.13071  0.20818  0.42257  1.0000
  S   S55       1.0  0.15562  0.15169  0.42644  1.0000
  Fe  Fe30      1.0  0.08594  0.19023  0.40475  1.0000
  S   S56       1.0  0.08438  0.22287  0.41012  1.0000
  S   S57       1.0  0.05902  0.18233  0.39321  1.0000
  Fe  Fe31      1.0  0.11750  0.22031  0.39783  1.0000
  S   S58       1.0  0.13166  0.24561  0.37925  1.0000
  Fe  Fe32      1.0  0.09755  0.20805  0.43425  1.0000
  S   S59       1.0  0.08245  0.21846  0.45951  1.0000
  S   S60       1.0  0.11867  0.18827  0.39076  1.0000
  S   S61       1.0  0.09667  0.17551  0.42982  1.0000
  C   C91       1.0  0.03130  0.18298  0.42291  1.0000
  C   C92       1.0  0.03403  0.18316  0.40516  1.0000
  H   H88       1.0  0.01397  0.11479  0.43052  1.0000
  H   H89       1.0  0.04458  0.18308  0.42949  1.0000
  H   H90       1.0  0.44064  0.01612  0.37528  1.0000
  H   H91       1.0  0.40686  0.02603  0.40157  1.0000
  N   N9        1.0  0.10831  0.47755  0.35280  1.0000
  C   C93       1.0  0.11959  0.21623  0.47246  1.0000
  H   H92       1.0  0.02822  0.28476  0.34988  1.0000
  H   H93       1.0  0.12724  0.21456  0.45969  1.0000
  C   C94       1.0  0.09923  0.30856  0.35601  1.0000
  C   C95       1.0  0.11977  0.30119  0.34996  1.0000
  C   C96       1.0  0.12925  0.28157  0.35683  1.0000
  C   C97       1.0  0.11827  0.26906  0.36969  1.0000
  C   C98       1.0  0.09755  0.27621  0.37543  1.0000
  C   C99       1.0  0.08814  0.29591  0.36867  1.0000
  H   H94       1.0  0.12848  0.31073  0.34019  1.0000
  H   H95       1.0  0.14532  0.27620  0.35234  1.0000
  H   H96       1.0  0.08895  0.26678  0.38535  1.0000
  H   H97       1.0  0.07218  0.30146  0.37336  1.0000
  H   H98       1.0  0.09653  0.43104  0.34768  1.0000
  H   H99       1.0  0.41758  0.03111  0.26323  1.0000
  H   H100      1.0  0.08926  0.38073  0.26039  1.0000
  H   H101      1.0  0.08323  0.31594  0.31030  1.0000
  H   H102      1.0  0.08244  0.25667  0.35008  1.0000
  C   C100      1.0  0.00962  0.39849  0.30170  1.0000
  C   C101      1.0  0.02836  0.39669  0.30855  1.0000
  C   C102      1.0  0.03290  0.38115  0.32198  1.0000
  H   H103      1.0  0.15558  0.16028  0.47613  1.0000
  H   H104      1.0  0.09166  0.28240  0.32794  1.0000
  H   H105      1.0  0.00727  0.43763  0.31038  1.0000
  H   H106      1.0  0.04723  0.37982  0.32750  1.0000
  H   H107      1.0  0.02244  0.35531  0.33887  1.0000
  C   C103      1.0  0.12614  0.45715  0.31300  1.0000
  C   C104      1.0  0.14189  0.44238  0.31968  1.0000
  C   C105      1.0  0.15943  0.44907  0.32387  1.0000
  H   H108      1.0  0.12420  0.44659  0.35662  1.0000
  H   H109      1.0  0.11247  0.45213  0.30980  1.0000
  H   H110      1.0  0.17166  0.43784  0.32902  1.0000
  H   H111      1.0  0.45587  0.07423  0.34893  1.0000
  C   C106      1.0  0.20081  0.09791  0.40425  1.0000
  C   C107      1.0  0.20164  0.10256  0.42067  1.0000
  C   C108      1.0  0.18773  0.11908  0.42715  1.0000
  C   C109      1.0  0.17281  0.13118  0.41737  1.0000
  C   C110      1.0  0.17205  0.12658  0.40092  1.0000
  C   C111      1.0  0.18594  0.11003  0.39444  1.0000
  H   H112      1.0  0.21286  0.09336  0.42843  1.0000
  H   H113      1.0  0.18844  0.12244  0.43990  1.0000
  H   H114      1.0  0.16064  0.13566  0.39326  1.0000
  H   H115      1.0  0.18504  0.10654  0.38176  1.0000
  H   H116      1.0  0.38588  0.03789  0.38942  1.0000
  C   C112      1.0  0.11458  0.36131  0.24766  1.0000
  C   C113      1.0  0.99557  0.38452  0.30815  1.0000
  C   C114      1.0  0.12398  0.16317  0.47073  1.0000
  H   H117      1.0  0.43922  0.98693  0.27884  1.0000
  C   C115      1.0  0.09450  0.44763  0.34811  1.0000
  C   C116      1.0  0.42486  0.07464  0.36255  1.0000
  C   C117      1.0  0.12769  0.47852  0.31136  1.0000
  C   C118      1.0  0.46783  0.99637  0.24039  1.0000
  H   H118      1.0  0.29024  0.05307  0.46362  1.0000
  C   C119      1.0  0.10298  0.16666  0.47745  1.0000
  C   C120      1.0  0.37637  0.03217  0.35504  1.0000
  C   C121      1.0  0.36213  0.02099  0.36601  1.0000
  C   C122      1.0  0.34475  0.03121  0.37557  1.0000
  C   C123      1.0  0.34156  0.05279  0.37449  1.0000
  C   C124      1.0  0.35564  0.06404  0.36335  1.0000
  C   C125      1.0  0.37285  0.05380  0.35352  1.0000
  H   H119      1.0  0.36467  0.00426  0.36730  1.0000
  H   H120      1.0  0.33406  0.02234  0.38406  1.0000
  H   H121      1.0  0.35325  0.08075  0.36235  1.0000
  H   H122      1.0  0.38362  0.06260  0.34506  1.0000
  H   H123      1.0  0.11172  0.24503  0.43942  1.0000
  C   C126      1.0  0.42420  0.03553  0.25023  1.0000
  N   N10       1.0  0.25346  0.11180  0.38156  1.0000
  C   C127      1.0  0.27297  0.10092  0.37855  1.0000
  C   C128      1.0  0.23961  0.11374  0.36994  1.0000
  C   C129      1.0  0.27908  0.09176  0.36354  1.0000
  C   C130      1.0  0.24512  0.10455  0.35490  1.0000
  C   C131      1.0  0.26499  0.09349  0.35171  1.0000
  C   C132      1.0  0.24717  0.12039  0.39777  1.0000
  H   H124      1.0  0.28384  0.09896  0.38791  1.0000
  H   H125      1.0  0.22388  0.12167  0.37261  1.0000
  H   H126      1.0  0.29448  0.08291  0.36133  1.0000
  H   H127      1.0  0.23382  0.10556  0.34604  1.0000
  H   H128      1.0  0.26938  0.08598  0.34025  1.0000
  H   H129      1.0  0.23224  0.13117  0.39764  1.0000
  H   H130      1.0  0.24483  0.10761  0.40829  1.0000
  H   H131      1.0  0.25924  0.12900  0.40047  1.0000
  C   C133      1.0  0.05061  0.31932  0.32003  1.0000
  H   H132      1.0  0.00674  0.13577  0.39328  1.0000
  H   H133      1.0  0.01864  0.18319  0.38306  1.0000
  C   C134      1.0  0.01665  0.18298  0.39680  1.0000
  H   H134      1.0  0.05882  0.26242  0.36389  1.0000
  C   C135      1.0  0.07566  0.29002  0.32879  1.0000
  C   C136      1.0  0.04035  0.29147  0.34114  1.0000
  N   N11       1.0  0.11829  0.28567  0.40883  1.0000
  C   C137      1.0  0.09843  0.29614  0.41022  1.0000
  C   C138      1.0  0.12313  0.26750  0.41913  1.0000
  C   C139      1.0  0.47489  0.00760  0.25135  1.0000
  C   C140      1.0  0.10786  0.25933  0.43116  1.0000
  C   C141      1.0  0.09549  0.37435  0.24865  1.0000
  H   H135      1.0  0.39541  0.07015  0.37718  1.0000
  H   H136      1.0  0.09459  0.31055  0.40205  1.0000
  H   H137      1.0  0.13883  0.25910  0.41795  1.0000
  C   C142      1.0  0.08269  0.28814  0.42187  1.0000
  C   C143      1.0  0.11017  0.45656  0.35314  1.0000
  H   H138      1.0  0.06687  0.29624  0.42270  1.0000
  C   C144      1.0  0.13926  0.16250  0.48133  1.0000
  H   H139      1.0  0.05876  0.24939  0.34548  1.0000
  H   H140      1.0  0.00614  0.41037  0.29119  1.0000
  H   H141      1.0  0.12840  0.16133  0.45731  1.0000
  H   H142      1.0  0.00964  0.18130  0.44602  1.0000
  C   C145      1.0  0.48766  0.02251  0.24452  1.0000
  H   H143      1.0  0.01923  0.31843  0.33237  1.0000
  H   H144      1.0  0.07552  0.26309  0.44153  1.0000
  C   C146      1.0  0.07099  0.30900  0.31871  1.0000
  C   C147      1.0  0.01885  0.36726  0.32843  1.0000
  C   C148      1.0  0.09789  0.21857  0.47578  1.0000
  C   C149      1.0  0.44485  0.06525  0.35703  1.0000
  C   C150      1.0  0.07465  0.48163  0.34319  1.0000
  C   C151      1.0  0.06536  0.26153  0.35031  1.0000
  C   C152      1.0  0.00032  0.36871  0.32135  1.0000
  C   C153      1.0  0.41092  0.06273  0.37291  1.0000
  H   H145      1.0  0.12828  0.30502  0.38612  1.0000
  C   C154      1.0  0.08750  0.26960  0.43241  1.0000
  C   C155      1.0  0.16132  0.47011  0.32163  1.0000
  H   H146      1.0  0.46615  0.03674  0.35751  1.0000
  C   C156      1.0  0.43617  0.03261  0.37190  1.0000
  H   H147      1.0  0.40969  0.01402  0.23983  1.0000
  C   C157      1.0  0.99993  0.47064  0.30769  1.0000
  C   C158      1.0  0.43641  0.05146  0.24659  1.0000
  C   C159      1.0  0.40213  0.02964  0.38852  1.0000
  C   C160      1.0  0.03514  0.31048  0.33125  1.0000
  C   C161      1.0  0.01146  0.18204  0.43225  1.0000
  C   C162      1.0  0.45062  0.04413  0.36180  1.0000
  H   H148      1.0  0.14338  0.30314  0.40369  1.0000
  H   H149      1.0  0.09118  0.16768  0.46903  1.0000
  H   H150      1.0  0.99092  0.41545  0.33439  1.0000
  H   H151      1.0  0.14584  0.28200  0.39110  1.0000
  H   H152      1.0  0.04685  0.33426  0.31252  1.0000
  C   C163      1.0  0.99672  0.18249  0.40609  1.0000
  H   H153      1.0  0.40189  0.01497  0.38332  1.0000
  H   H154      1.0  0.14832  0.21428  0.48313  1.0000
  H   H155      1.0  0.42018  0.09102  0.35876  1.0000
  N   N12       1.0  0.06043  0.28157  0.33992  1.0000
  N   N13       1.0  0.41662  0.04195  0.37732  1.0000
  H   H156      1.0  0.01820  0.14002  0.41950  1.0000
  H   H157      1.0  0.01307  0.47301  0.29800  1.0000
  C   C164      1.0  0.13153  0.21598  0.48576  1.0000
  C   C165      1.0  0.07669  0.46029  0.34301  1.0000
  H   H158      1.0  0.00115  0.13819  0.43906  1.0000
  H   H159      1.0  0.06458  0.45354  0.33884  1.0000
  C   C166      1.0  0.99176  0.13299  0.40024  1.0000
  C   C167      1.0  0.00642  0.13090  0.42716  1.0000
  C   C168      1.0  0.99657  0.45059  0.31475  1.0000
  C   C169      1.0  0.99413  0.18166  0.42389  1.0000
  H   H160      1.0  0.47030  0.00488  0.26504  1.0000
  H   H161      1.0  0.12485  0.40878  0.23926  1.0000
  H   H162      1.0  0.14020  0.47671  0.35608  1.0000
  H   H163      1.0  0.17508  0.47488  0.32494  1.0000
  H   H164      1.0  0.45772  0.98495  0.24580  1.0000
  Fe  Fe33      1.0  0.43073  0.00931  0.67979  1.0000
  S   S62       1.0  0.44526  0.00803  0.65266  1.0000
  H   H165      1.0  0.38951  0.08136  0.60857  1.0000
  Fe  Fe34      1.0  0.42518  0.05553  0.67603  1.0000
  S   S63       1.0  0.43882  0.05820  0.64842  1.0000
  S   S64       1.0  0.41527  0.08463  0.68813  1.0000
  Fe  Fe35      1.0  0.41946  0.03375  0.64620  1.0000
  S   S65       1.0  0.40440  0.03387  0.62204  1.0000
  Fe  Fe36      1.0  0.46320  0.03238  0.65733  1.0000
  C   C170      1.0  0.47665  0.07993  0.67659  1.0000
  S   S66       1.0  0.40370  0.03349  0.67320  1.0000
  S   S67       1.0  0.45077  0.03146  0.68507  1.0000
  Fe  Fe37      1.0  0.29215  0.03877  0.58943  1.0000
  S   S68       1.0  0.26460  0.02165  0.59814  1.0000
  S   S69       1.0  0.30880  0.04545  0.61099  1.0000
  Fe  Fe38      1.0  0.28586  0.04093  0.55162  1.0000
  S   S70       1.0  0.25851  0.02373  0.55783  1.0000
  S   S71       1.0  0.29695  0.05322  0.52424  1.0000
  Fe  Fe39      1.0  0.24820  0.04439  0.57854  1.0000
  S   S72       1.0  0.21377  0.05808  0.58084  1.0000
  Fe  Fe40      1.0  0.27724  0.00282  0.57667  1.0000
  S   S73       1.0  0.27469  0.06284  0.57130  1.0000
  S   S74       1.0  0.30569  0.01872  0.56900  1.0000
  C   C171      1.0  0.05575  0.30977  0.63362  1.0000
  Fe  Fe41      1.0  0.08459  0.36082  0.66053  1.0000
  S   S75       1.0  0.09262  0.32618  0.66280  1.0000
  S   S76       1.0  0.05314  0.37886  0.65662  1.0000
  Fe  Fe42      1.0  0.12839  0.36761  0.66288  1.0000
  S   S77       1.0  0.14059  0.33349  0.66493  1.0000
  S   S78       1.0  0.14800  0.39185  0.66547  1.0000
  Fe  Fe43      1.0  0.12080  0.33205  0.64435  1.0000
  S   S79       1.0  0.13095  0.31551  0.62062  1.0000
  Fe  Fe44      1.0  0.11143  0.33035  0.68316  1.0000
  S   S80       1.0  0.11134  0.30929  0.70812  1.0000
  S   S81       1.0  0.11148  0.36672  0.64058  1.0000
  S   S82       1.0  0.10070  0.36432  0.68257  1.0000
  H   H166      1.0  0.10786  0.17072  0.51814  1.0000
  Fe  Fe45      1.0  0.12572  0.20406  0.54612  1.0000
  S   S83       1.0  0.12550  0.16979  0.55227  1.0000
  S   S84       1.0  0.13750  0.21587  0.51896  1.0000
  Fe  Fe46      1.0  0.11458  0.21229  0.58348  1.0000
  S   S85       1.0  0.11407  0.17832  0.59217  1.0000
  S   S86       1.0  0.10476  0.23157  0.60571  1.0000
  Fe  Fe47      1.0  0.14322  0.17191  0.57389  1.0000
  S   S87       1.0  0.17460  0.15351  0.58006  1.0000
  Fe  Fe48      1.0  0.09640  0.17920  0.56984  1.0000
  S   S88       1.0  0.06711  0.16404  0.57494  1.0000
  S   S89       1.0  0.14502  0.20598  0.56681  1.0000
  S   S90       1.0  0.09525  0.21338  0.56207  1.0000
  H   H167      1.0  0.37983  0.09128  0.65376  1.0000
  H   H168      1.0  0.13310  0.38829  0.70201  1.0000
  C   C172      1.0  0.00818  0.17358  0.56246  1.0000
  H   H169      1.0  0.09266  0.22080  0.51880  1.0000
  C   C173      1.0  0.03766  0.46867  0.64954  1.0000
  C   C174      1.0  0.04520  0.17313  0.56394  1.0000
  C   C175      1.0  0.04648  0.18654  0.54860  1.0000
  H   H170      1.0  0.32545  0.99816  0.63582  1.0000
  C   C176      1.0  0.02599  0.16671  0.57082  1.0000
  H   H171      1.0  0.06117  0.19167  0.54326  1.0000
  C   C177      1.0  0.43888  0.06671  0.73346  1.0000
  H   H172      1.0  0.02489  0.15631  0.58266  1.0000
  C   C178      1.0  0.12309  0.29241  0.61654  1.0000
  C   C179      1.0  0.12961  0.28542  0.60051  1.0000
  C   C180      1.0  0.12409  0.26692  0.59687  1.0000
  C   C181      1.0  0.11175  0.25532  0.60921  1.0000
  C   C182      1.0  0.10507  0.26242  0.62518  1.0000
  C   C183      1.0  0.11079  0.28077  0.62888  1.0000
  H   H173      1.0  0.13909  0.29434  0.59085  1.0000
  H   H174      1.0  0.12931  0.26168  0.58452  1.0000
  H   H175      1.0  0.09556  0.25353  0.63483  1.0000
  H   H176      1.0  0.10582  0.28581  0.64133  1.0000
  H   H177      1.0  0.17670  0.34620  0.72958  1.0000
  C   C184      1.0  0.11763  0.33427  0.73119  1.0000
  C   C185      1.0  0.13473  0.41747  0.66397  1.0000
  C   C186      1.0  0.14542  0.43405  0.66461  1.0000
  C   C187      1.0  0.13492  0.45452  0.66355  1.0000
  C   C188      1.0  0.11361  0.45844  0.66206  1.0000
  C   C189      1.0  0.10299  0.44184  0.66143  1.0000
  C   C190      1.0  0.11348  0.42146  0.66236  1.0000
  H   H178      1.0  0.16191  0.43107  0.66568  1.0000
  H   H179      1.0  0.23251  0.08082  0.55094  1.0000
  H   H180      1.0  0.08656  0.44470  0.66016  1.0000
  H   H181      1.0  0.10509  0.40885  0.66175  1.0000
  C   C191      1.0  0.00414  0.33613  0.66994  1.0000
  C   C192      1.0  0.01545  0.22105  0.57467  1.0000
  C   C193      1.0  0.01363  0.36989  0.65856  1.0000
  C   C194      1.0  0.03354  0.36341  0.66347  1.0000
  C   C195      1.0  0.03812  0.34391  0.67275  1.0000
  C   C196      1.0  0.02352  0.33017  0.67583  1.0000
  C   C197      1.0  0.17607  0.21683  0.60482  1.0000
  H   H182      1.0  0.00993  0.38513  0.65161  1.0000
  H   H183      1.0  0.05302  0.33928  0.67737  1.0000
  H   H184      1.0  0.02749  0.31473  0.68234  1.0000
  C   C198      1.0  0.20322  0.08476  0.58022  1.0000
  C   C199      1.0  0.18205  0.09100  0.57826  1.0000
  C   C200      1.0  0.17307  0.11200  0.57779  1.0000
  C   C201      1.0  0.18516  0.12698  0.57949  1.0000
  C   C202      1.0  0.20638  0.12073  0.58133  1.0000
  C   C203      1.0  0.21540  0.09980  0.58158  1.0000
  H   H185      1.0  0.17246  0.07951  0.57722  1.0000
  H   H186      1.0  0.15673  0.11651  0.57646  1.0000
  H   H187      1.0  0.21585  0.13216  0.58274  1.0000
  H   H188      1.0  0.23166  0.09526  0.58321  1.0000
  H   H189      1.0  0.13115  0.19065  0.63112  1.0000
  H   H190      1.0  0.27353  0.01979  0.52307  1.0000
  C   C204      1.0  0.37779  0.03424  0.61982  1.0000
  C   C205      1.0  0.37232  0.03335  0.60355  1.0000
  C   C206      1.0  0.35127  0.03567  0.60077  1.0000
  C   C207      1.0  0.33545  0.03917  0.61424  1.0000
  C   C208      1.0  0.34094  0.03928  0.63065  1.0000
  C   C209      1.0  0.36198  0.03668  0.63347  1.0000
  H   H191      1.0  0.38443  0.03145  0.59289  1.0000
  H   H192      1.0  0.34732  0.03562  0.58807  1.0000
  H   H193      1.0  0.32880  0.04191  0.64117  1.0000
  H   H194      1.0  0.36592  0.03721  0.64610  1.0000
  C   C210      1.0  0.42606  0.08448  0.70712  1.0000
  C   C211      1.0  0.42926  0.06647  0.71880  1.0000
  C   C212      1.0  0.15849  0.35265  0.70092  1.0000
  H   H195      1.0  0.46932  0.07054  0.70339  1.0000
  H   H196      1.0  0.14511  0.16517  0.50683  1.0000
  H   H197      1.0  0.42427  0.05240  0.71655  1.0000
  H   H198      1.0  0.04342  0.21707  0.60321  1.0000
  C   C213      1.0  0.33189  0.09098  0.62786  1.0000
  H   H199      1.0  0.11624  0.46953  0.69488  1.0000
  C   C214      1.0  0.27719  0.02710  0.51021  1.0000
  C   C215      1.0  0.14697  0.21755  0.62637  1.0000
  C   C216      1.0  0.33689  0.08933  0.61045  1.0000
  H   H200      1.0  0.06614  0.18309  0.49137  1.0000
  H   H201      1.0  0.07003  0.36704  0.60086  1.0000
  H   H202      1.0  0.39194  0.99504  0.67986  1.0000
  H   H203      1.0  0.16919  0.35903  0.69000  1.0000
  C   C217      1.0  0.04076  0.20617  0.59469  1.0000
  C   C218      1.0  0.06864  0.32456  0.62651  1.0000
  C   C219      1.0  0.14418  0.47884  0.70054  1.0000
  C   C220      1.0  0.23782  0.06689  0.50512  1.0000
  C   C221      1.0  0.26999  0.02034  0.49655  1.0000
  H   H204      1.0  0.10491  0.45675  0.72519  1.0000
  C   C222      1.0  0.11226  0.16836  0.50484  1.0000
  C   C223      1.0  0.99882  0.35626  0.66191  1.0000
  H   H205      1.0  0.02993  0.20310  0.52801  1.0000
  H   H206      1.0  0.26517  0.11100  0.51824  1.0000
  N   N14       1.0  0.09737  0.16945  0.49425  1.0000
  H   H207      1.0  0.04387  0.19000  0.60109  1.0000
  H   H208      1.0  0.05240  0.20727  0.58309  1.0000
  C   C224      1.0  0.22391  0.05789  0.51787  1.0000
  C   C225      1.0  0.00336  0.20551  0.60238  1.0000
  C   C226      1.0  0.03916  0.34994  0.62215  1.0000
  H   H209      1.0  0.08536  0.32019  0.62565  1.0000
  H   H210      1.0  0.05714  0.47585  0.66658  1.0000
  C   C227      1.0  0.12440  0.31599  0.72376  1.0000
  C   C228      1.0  0.07387  0.35987  0.61373  1.0000
  C   C229      1.0  0.29383  0.05256  0.49028  1.0000
  H   H211      1.0  0.07141  0.22260  0.49509  1.0000
  H   H212      1.0  0.16501  0.33647  0.70546  1.0000
  C   C230      1.0  0.02582  0.33544  0.62888  1.0000
  H   H213      1.0  0.07273  0.18114  0.51255  1.0000
  C   C231      1.0  0.08821  0.22058  0.49248  1.0000
  H   H214      1.0  0.25131  0.10992  0.53942  1.0000
  C   C232      1.0  0.14130  0.38382  0.71319  1.0000
  C   C233      1.0  0.48057  0.07696  0.69362  1.0000
  H   H215      1.0  0.04322  0.45217  0.65134  1.0000
  H   H216      1.0  0.31572  0.09265  0.63350  1.0000
  H   H217      1.0  0.27423  0.09134  0.53483  1.0000
  H   H218      1.0  0.02392  0.30418  0.64067  1.0000
  N   N15       1.0  0.24732  0.08606  0.52541  1.0000
  C   C234      1.0  0.23389  0.07713  0.53801  1.0000
  C   C235      1.0  0.24958  0.08094  0.50917  1.0000
  C   C236      1.0  0.43242  0.10264  0.71018  1.0000
  C   C237      1.0  0.02254  0.47662  0.63873  1.0000
  C   C238      1.0  0.14034  0.30159  0.73025  1.0000
  H   H219      1.0  0.14335  0.46723  0.66365  1.0000
  H   H220      1.0  0.99198  0.23343  0.55795  1.0000
  H   H221      1.0  0.10504  0.34531  0.72640  1.0000
  H   H222      1.0  0.16747  0.25778  0.60709  1.0000
  N   N16       1.0  0.14945  0.47348  0.73017  1.0000
  H   H223      1.0  0.15242  0.25522  0.62763  1.0000
  H   H224      1.0  0.14543  0.28732  0.72472  1.0000
  C   C239      1.0  0.37334  0.08479  0.61395  1.0000
  C   C240      1.0  0.13144  0.46497  0.73439  1.0000
  C   C241      1.0  0.00955  0.18656  0.54691  1.0000
  C   C242      1.0  0.35774  0.08624  0.60342  1.0000
  C   C243      1.0  0.02877  0.19299  0.54001  1.0000
  C   C244      1.0  0.17385  0.19686  0.60226  1.0000
  C   C245      1.0  0.34789  0.08951  0.63802  1.0000
  H   H225      1.0  0.18845  0.22428  0.59710  1.0000
  C   C246      1.0  0.16586  0.36047  0.72840  1.0000
  H   H226      1.0  0.38972  0.06699  0.64566  1.0000
  H   H227      1.0  0.36178  0.08410  0.59005  1.0000
  N   N17       1.0  0.06028  0.34436  0.62091  1.0000
  H   H228      1.0  0.34388  0.09021  0.65163  1.0000
  C   C247      1.0  0.99504  0.22593  0.57058  1.0000
  H   H229      1.0  0.03253  0.36579  0.61820  1.0000
  C   C248      1.0  0.38491  0.08377  0.64194  1.0000
  H   H230      1.0  0.09061  0.35301  0.61238  1.0000
  C   C249      1.0  0.12575  0.47028  0.70475  1.0000
  H   H231      1.0  0.39873  0.09057  0.63514  1.0000
  H   H232      1.0  0.26066  0.00791  0.49905  1.0000
  N   N18       1.0  0.36830  0.08664  0.63098  1.0000
  N   N19       1.0  0.01938  0.21084  0.59037  1.0000
  C   C250      1.0  0.44580  0.08480  0.73615  1.0000
  C   C251      1.0  0.22189  0.06304  0.53444  1.0000
  C   C252      1.0  0.13744  0.39649  0.72623  1.0000
  C   C253      1.0  0.10019  0.21955  0.50592  1.0000
  C   C254      1.0  0.12190  0.21730  0.50255  1.0000
  H   H233      1.0  0.18003  0.24657  0.62580  1.0000
  H   H234      1.0  0.32463  0.08955  0.60260  1.0000
  C   C255      1.0  0.14416  0.19768  0.62399  1.0000
  H   H235      1.0  0.15567  0.17190  0.60985  1.0000
  C   C256      1.0  0.16584  0.24758  0.61949  1.0000
  H   H236      1.0  0.31897  0.00353  0.60545  1.0000
  C   C257      1.0  0.28901  0.04335  0.50717  1.0000
  H   H237      1.0  0.30304  0.06509  0.48780  1.0000
  H   H238      1.0  0.14353  0.35192  0.69627  1.0000
  H   H239      1.0  0.23992  0.06260  0.49228  1.0000
  H   H240      1.0  0.13604  0.22564  0.63556  1.0000
  H   H241      1.0  0.12626  0.41051  0.72523  1.0000
  C   C258      1.0  0.26013  0.10032  0.52967  1.0000
  C   C259      1.0  0.15777  0.18727  0.61192  1.0000
  N   N20       1.0  0.16271  0.22691  0.61676  1.0000
  H   H242      1.0  0.43002  0.11658  0.70122  1.0000
  H   H243      1.0  0.21127  0.05604  0.54457  1.0000
  H   H244      1.0  0.18427  0.18895  0.59263  1.0000
  C   C260      1.0  0.07524  0.17302  0.50100  1.0000
  H   H245      1.0  0.07180  0.37214  0.62223  1.0000
  C   C261      1.0  0.44257  0.10270  0.72445  1.0000
  H   H246      1.0  0.06248  0.29418  0.63826  1.0000
  H   H247      1.0  0.99349  0.16848  0.56787  1.0000
  N   N21       1.0  0.15506  0.36586  0.71457  1.0000
  H   H248      1.0  0.00648  0.19744  0.61482  1.0000
  H   H249      1.0  0.01597  0.46636  0.63222  1.0000
  H   H250      1.0  0.46238  0.07612  0.67335  1.0000
  H   H251      1.0  0.21490  0.04678  0.51495  1.0000
  C   C262      1.0  0.03419  0.31531  0.63484  1.0000
  H   H252      1.0  0.00905  0.33993  0.63000  1.0000
  H   H253      1.0  0.06911  0.15805  0.50442  1.0000
  H   H254      1.0  0.02812  0.22511  0.56506  1.0000
  H   H255      1.0  0.48893  0.08901  0.65049  1.0000
  H   H256      1.0  0.44794  0.11670  0.72641  1.0000
  C   C263      1.0  0.04550  0.48215  0.65810  1.0000
  C   C264      1.0  0.13341  0.16508  0.49852  1.0000
  C   C265      1.0  0.32367  0.98809  0.61168  1.0000
  H   H257      1.0  0.26088  0.08731  0.49934  1.0000
  C   C266      1.0  0.32731  0.98502  0.62873  1.0000
  C   C267      1.0  0.11934  0.46320  0.72177  1.0000
  H   H258      1.0  0.43413  0.99534  0.61469  1.0000
  H   H259      1.0  0.39709  0.99030  0.61779  1.0000
  C   C268      1.0  0.15593  0.48029  0.71348  1.0000
  Fe  Fe49      1.0  0.45459  0.06344  0.77728  1.0000
  S   S91       1.0  0.42335  0.06276  0.79286  1.0000
  S   S92       1.0  0.46001  0.08542  0.75310  1.0000
  Fe  Fe50      1.0  0.47620  0.03436  0.80439  1.0000
  S   S93       1.0  0.44675  0.03144  0.82217  1.0000
  H   H260      1.0  0.25879  0.42261  0.97826  1.0000
  Fe  Fe51      1.0  0.43373  0.02839  0.79822  1.0000
  S   S94       1.0  0.41245  0.00522  0.79623  1.0000
  Fe  Fe52      1.0  0.43956  0.06605  0.81520  1.0000
  S   S95       1.0  0.42428  0.08878  0.83397  1.0000
  S   S96       1.0  0.46389  0.02902  0.78089  1.0000
  S   S97       1.0  0.47011  0.06902  0.79909  1.0000
  Fe  Fe53      1.0  0.42192  0.22094  0.88856  1.0000
  S   S98       1.0  0.42405  0.18628  0.89597  1.0000
  S   S99       1.0  0.38888  0.23749  0.88537  1.0000
  Fe  Fe54      1.0  0.46882  0.21939  0.88881  1.0000
  S   S100      1.0  0.47405  0.18511  0.89630  1.0000
  Fe  Fe55      1.0  0.45284  0.18319  0.87694  1.0000
  S   S101      1.0  0.46531  0.15866  0.85891  1.0000
  Fe  Fe56      1.0  0.44498  0.19087  0.91454  1.0000
  S   S102      1.0  0.44124  0.17357  0.94116  1.0000
  S   S103      1.0  0.44945  0.21750  0.86802  1.0000
  S   S104      1.0  0.44104  0.22550  0.90862  1.0000
  H   H261      1.0  0.24007  0.30409  0.89558  1.0000
  Fe  Fe57      1.0  0.13946  0.35001  0.78705  1.0000
  S   S105      1.0  0.12998  0.34065  0.81512  1.0000
  S   S106      1.0  0.15428  0.32653  0.76951  1.0000
  Fe  Fe58      1.0  0.12635  0.39514  0.78952  1.0000
  S   S107      1.0  0.11513  0.38956  0.81740  1.0000
  S   S108      1.0  0.12452  0.42758  0.77591  1.0000
  Fe  Fe59      1.0  0.14507  0.36754  0.81932  1.0000
  S   S109      1.0  0.16207  0.37272  0.84115  1.0000
  Fe  Fe60      1.0  0.10110  0.36351  0.81075  1.0000
  S   S110      1.0  0.06918  0.35648  0.82325  1.0000
  S   S111      1.0  0.15696  0.37482  0.79151  1.0000
  S   S112      1.0  0.10983  0.37104  0.78251  1.0000
  Fe  Fe61      1.0  0.28206  0.38541  0.89084  1.0000
  S   S113      1.0  0.25418  0.36872  0.89864  1.0000
  S   S114      1.0  0.27132  0.42007  0.88793  1.0000
  Fe  Fe62      1.0  0.31225  0.34449  0.89118  1.0000
  S   S115      1.0  0.28638  0.32535  0.89889  1.0000
  S   S116      1.0  0.34679  0.33135  0.88787  1.0000
  Fe  Fe63      1.0  0.26924  0.34759  0.87950  1.0000
  S   S117      1.0  0.25300  0.33507  0.86066  1.0000
  Fe  Fe64      1.0  0.27369  0.34849  0.91722  1.0000
  S   S118      1.0  0.25979  0.33801  0.94422  1.0000
  S   S119      1.0  0.29612  0.36533  0.87037  1.0000
  S   S120      1.0  0.30058  0.36640  0.91081  1.0000
  C   C269      1.0  0.26461  0.35137  0.96048  1.0000
  C   C270      1.0  0.27562  0.36821  0.95655  1.0000
  C   C271      1.0  0.28080  0.37762  0.96969  1.0000
  C   C272      1.0  0.14254  0.32326  0.75180  1.0000
  H   H262      1.0  0.28038  0.37388  0.94340  1.0000
  C   C273      1.0  0.46545  0.21159  0.96598  1.0000
  C   C274      1.0  0.28619  0.44010  0.88772  1.0000
  C   C275      1.0  0.30793  0.43663  0.88665  1.0000
  H   H263      1.0  0.14489  0.40030  0.75096  1.0000
  H   H264      1.0  0.31626  0.42121  0.88569  1.0000
  C   C276      1.0  0.31530  0.33311  0.97259  1.0000
  C   C277      1.0  0.18812  0.36306  0.84514  1.0000
  C   C278      1.0  0.19981  0.34622  0.83775  1.0000
  C   C279      1.0  0.21985  0.33816  0.84230  1.0000
  C   C280      1.0  0.22854  0.34695  0.85412  1.0000
  C   C281      1.0  0.21703  0.36409  0.86121  1.0000
  C   C282      1.0  0.19690  0.37196  0.85685  1.0000
  H   H265      1.0  0.19327  0.33914  0.82878  1.0000
  H   H266      1.0  0.22856  0.32489  0.83673  1.0000
  H   H267      1.0  0.22347  0.37106  0.87030  1.0000
  H   H268      1.0  0.18804  0.38501  0.86263  1.0000
  C   C283      1.0  0.01202  0.35969  0.79525  1.0000
  H   H269      1.0  0.12328  0.47148  0.77470  1.0000
  C   C284      1.0  0.02796  0.35503  0.82151  1.0000
  C   C285      1.0  0.04701  0.35951  0.81231  1.0000
  C   C286      1.0  0.04828  0.36478  0.79457  1.0000
  C   C287      1.0  0.03092  0.36466  0.78609  1.0000
  C   C288      1.0  0.06270  0.31683  0.78690  1.0000
  H   H270      1.0  0.02684  0.35090  0.83524  1.0000
  H   H271      1.0  0.06280  0.36830  0.78731  1.0000
  H   H272      1.0  0.03228  0.36806  0.77230  1.0000
  C   C289      1.0  0.12811  0.43090  0.83837  1.0000
  C   C290      1.0  0.09818  0.31196  0.79459  1.0000
  C   C291      1.0  0.30430  0.31631  0.97618  1.0000
  C   C292      1.0  0.13775  0.44206  0.78630  1.0000
  C   C293      1.0  0.15175  0.43219  0.79764  1.0000
  C   C294      1.0  0.16187  0.44389  0.80621  1.0000
  C   C295      1.0  0.19381  0.33541  0.89321  1.0000
  H   H273      1.0  0.39413  0.09982  0.80960  1.0000
  H   H274      1.0  0.15465  0.41553  0.80004  1.0000
  H   H275      1.0  0.17237  0.43616  0.81522  1.0000
  H   H276      1.0  0.42574  0.25993  0.97199  1.0000
  H   H277      1.0  0.33573  0.45055  0.88587  1.0000
  N   N22       1.0  0.08366  0.31213  0.78222  1.0000
  C   C296      1.0  0.01049  0.35525  0.81306  1.0000
  N   N23       1.0  0.27738  0.44496  0.96424  1.0000
  C   C297      1.0  0.44358  0.17787  0.97445  1.0000
  H   H278      1.0  0.11336  0.31619  0.78805  1.0000
  H   H279      1.0  0.37504  0.32737  0.84775  1.0000
  C   C298      1.0  0.37748  0.26328  0.88823  1.0000
  C   C299      1.0  0.35566  0.26838  0.88964  1.0000
  C   C300      1.0  0.34594  0.28900  0.89031  1.0000
  C   C301      1.0  0.35799  0.30483  0.88939  1.0000
  C   C302      1.0  0.37978  0.29967  0.88838  1.0000
  C   C303      1.0  0.38948  0.27901  0.88789  1.0000
  H   H280      1.0  0.34623  0.25632  0.88992  1.0000
  H   H281      1.0  0.32919  0.29269  0.89107  1.0000
  H   H282      1.0  0.38925  0.31180  0.88763  1.0000
  H   H283      1.0  0.40627  0.27537  0.88673  1.0000
  C   C304      1.0  0.44927  0.18503  0.95719  1.0000
  C   C305      1.0  0.46038  0.20180  0.95298  1.0000
  C   C306      1.0  0.19371  0.34560  0.90741  1.0000
  C   C307      1.0  0.13416  0.46368  0.78335  1.0000
  C   C308      1.0  0.37251  0.29534  0.84734  1.0000
  H   H284      1.0  0.43058  0.11663  0.89983  1.0000
  H   H285      1.0  0.46496  0.20733  0.93972  1.0000
  C   C309      1.0  0.31892  0.45326  0.88671  1.0000
  H   H286      1.0  0.42622  0.24785  0.94393  1.0000
  H   H287      1.0  0.08354  0.30348  0.74143  1.0000
  C   C310      1.0  0.43622  0.10757  0.84129  1.0000
  C   C311      1.0  0.45714  0.10976  0.83616  1.0000
  C   C312      1.0  0.46566  0.12561  0.84154  1.0000
  C   C313      1.0  0.45345  0.13942  0.85216  1.0000
  C   C314      1.0  0.43258  0.13714  0.85740  1.0000
  C   C315      1.0  0.42405  0.12129  0.85200  1.0000
  H   H288      1.0  0.46672  0.09933  0.82795  1.0000
  H   H289      1.0  0.23423  0.47645  0.85708  1.0000
  H   H290      1.0  0.42302  0.14757  0.86562  1.0000
  H   H291      1.0  0.40785  0.11973  0.85606  1.0000
  H   H292      1.0  0.10468  0.43414  0.82156  1.0000
  H   H293      1.0  0.28991  0.39021  0.96655  1.0000
  C   C316      1.0  0.11191  0.44199  0.82962  1.0000
  C   C317      1.0  0.05616  0.31280  0.75866  1.0000
  C   C318      1.0  0.21041  0.32015  0.88911  1.0000
  H   H294      1.0  0.14008  0.47042  0.85605  1.0000
  H   H295      1.0  0.07711  0.46434  0.82049  1.0000
  C   C319      1.0  0.32228  0.34050  0.98597  1.0000
  H   H296      1.0  0.22047  0.36292  0.92881  1.0000
  H   H297      1.0  0.29816  0.31094  0.96596  1.0000
  N   N24       1.0  0.41298  0.12194  0.79687  1.0000
  C   C320      1.0  0.41542  0.13475  0.80820  1.0000
  C   C321      1.0  0.42877  0.11686  0.78431  1.0000
  C   C322      1.0  0.43394  0.14305  0.80698  1.0000
  C   C323      1.0  0.44758  0.12472  0.78282  1.0000
  C   C324      1.0  0.45015  0.13787  0.79427  1.0000
  C   C325      1.0  0.39374  0.11276  0.79891  1.0000
  H   H298      1.0  0.25878  0.46295  0.88986  1.0000
  H   H299      1.0  0.42702  0.10649  0.77544  1.0000
  S   S121      1.0  0.16810  0.47998  0.81621  1.0000
  H   H300      1.0  0.46012  0.12031  0.77298  1.0000
  H   H301      1.0  0.46478  0.14378  0.79349  1.0000
  C   C326      1.0  0.12652  0.33779  0.74537  1.0000
  C   C327      1.0  0.30823  0.47333  0.88805  1.0000
  H   H302      1.0  0.39176  0.10655  0.78714  1.0000
  C   C328      1.0  0.44632  0.11943  0.90021  1.0000
  N   N25       1.0  0.10563  0.46257  0.83086  1.0000
  H   H303      1.0  0.05676  0.32053  0.79969  1.0000
  H   H304      1.0  0.12104  0.35171  0.75123  1.0000
  H   H305      1.0  0.18100  0.35780  0.91023  1.0000
  C   C329      1.0  0.29753  0.46353  0.93416  1.0000
  H   H306      1.0  0.24952  0.33151  0.98082  1.0000
  C   C330      1.0  0.14961  0.30538  0.74398  1.0000
  H   H307      1.0  0.40329  0.13800  0.81864  1.0000
  H   H308      1.0  0.30068  0.31367  0.86358  1.0000
  H   H309      1.0  0.31778  0.34079  0.95958  1.0000
  H   H310      1.0  0.41038  0.21659  0.94245  1.0000
  H   H311      1.0  0.17039  0.36796  0.75291  1.0000
  C   C331      1.0  0.27943  0.43607  0.94951  1.0000
  C   C332      1.0  0.11542  0.47271  0.84036  1.0000
  N   N26       1.0  0.32992  0.30865  0.84840  1.0000
  C   C333      1.0  0.34321  0.32270  0.84800  1.0000
  C   C334      1.0  0.33744  0.28804  0.84858  1.0000
  C   C335      1.0  0.36469  0.31629  0.84733  1.0000
  C   C336      1.0  0.35884  0.28108  0.84797  1.0000
  C   C337      1.0  0.30738  0.31547  0.84992  1.0000
  H   H312      1.0  0.33723  0.33888  0.84887  1.0000
  C   C338      1.0  0.13189  0.46218  0.84903  1.0000
  C   C339      1.0  0.15775  0.46549  0.80367  1.0000
  H   H313      1.0  0.30357  0.33198  0.84456  1.0000
  C   C340      1.0  0.26770  0.43476  0.98036  1.0000
  C   C341      1.0  0.40969  0.22238  0.95462  1.0000
  H   H314      1.0  0.18148  0.33978  0.88506  1.0000
  H   H315      1.0  0.43797  0.13709  0.92157  1.0000
  H   H316      1.0  0.03206  0.32175  0.77880  1.0000
  H   H317      1.0  0.43599  0.15277  0.81628  1.0000
  C   C342      1.0  0.28517  0.46297  0.96421  1.0000
  H   H318      1.0  0.21461  0.34034  0.94320  1.0000
  H   H319      1.0  0.12622  0.45967  0.74760  1.0000
  C   C343      1.0  0.08922  0.47409  0.82105  1.0000
  C   C344      1.0  0.47068  0.13475  0.91242  1.0000
  C   C345      1.0  0.14438  0.47535  0.79184  1.0000
  H   H320      1.0  0.09198  0.32347  0.80363  1.0000
  C   C346      1.0  0.28653  0.47666  0.88919  1.0000
  H   H321      1.0  0.23885  0.32197  0.92095  1.0000
  C   C347      1.0  0.40067  0.21889  0.98527  1.0000
  C   C348      1.0  0.04865  0.31741  0.77516  1.0000
  N   N27       1.0  0.20953  0.34042  0.91741  1.0000
  H   H322      1.0  0.10090  0.29637  0.80201  1.0000
  H   H323      1.0  0.04549  0.31350  0.74933  1.0000
  N   N28       1.0  0.40893  0.23643  0.98593  1.0000
  H   H324      1.0  0.43511  0.16480  0.97777  1.0000
  C   C349      1.0  0.20949  0.35137  0.93212  1.0000
  C   C350      1.0  0.07750  0.30724  0.75421  1.0000
  C   C351      1.0  0.22600  0.32564  0.91334  1.0000
  C   C352      1.0  0.41860  0.23990  0.95547  1.0000
  C   C353      1.0  0.09108  0.30676  0.76630  1.0000
  C   C354      1.0  0.13825  0.44114  0.84799  1.0000
  C   C355      1.0  0.40081  0.21168  0.96960  1.0000
  C   C356      1.0  0.41826  0.24665  0.97135  1.0000
  H   H325      1.0  0.45919  0.10336  0.87869  1.0000
  H   H326      1.0  0.47394  0.22464  0.96262  1.0000
  H   H327      1.0  0.10762  0.30226  0.76280  1.0000
  H   H328      1.0  0.19377  0.35944  0.93632  1.0000
  H   H329      1.0  0.32687  0.27679  0.84963  1.0000
  H   H330      1.0  0.29953  0.30635  0.84286  1.0000
  C   C357      1.0  0.22670  0.31531  0.89913  1.0000
  H   H331      1.0  0.21108  0.31269  0.87776  1.0000
  C   C358      1.0  0.46260  0.11194  0.88829  1.0000
  C   C359      1.0  0.27559  0.46018  0.88892  1.0000
  H   H332      1.0  0.15134  0.43284  0.85425  1.0000
  H   H333      1.0  0.37994  0.12444  0.80184  1.0000
  H   H334      1.0  0.27327  0.42182  0.94942  1.0000
  H   H335      1.0  0.13337  0.41465  0.83720  1.0000
  H   H336      1.0  0.99613  0.35117  0.82025  1.0000
  H   H337      1.0  0.38902  0.29003  0.84763  1.0000
  C   C360      1.0  0.25815  0.34447  0.97768  1.0000
  H   H338      1.0  0.20912  0.47619  0.83659  1.0000
  H   H339      1.0  0.36475  0.26466  0.84878  1.0000
  C   C361      1.0  0.45044  0.13091  0.91235  1.0000
  C   C362      1.0  0.28948  0.44524  0.93425  1.0000
  H   H340      1.0  0.44142  0.05279  0.74242  1.0000
  H   H341      1.0  0.29103  0.43822  0.92258  1.0000
  H   H342      1.0  0.48186  0.12715  0.83746  1.0000
  H   H343      1.0  0.30545  0.47084  0.92249  1.0000
  H   H344      1.0  0.33024  0.35400  0.98317  1.0000
  H   H345      1.0  0.28353  0.47015  0.97582  1.0000
  C   C363      1.0  0.16235  0.37276  0.74168  1.0000
  H   H346      1.0  0.41252  0.98668  0.76193  1.0000
  H   H347      1.0  0.43001  0.98624  0.74212  1.0000
  H   H348      1.0  0.09611  0.47915  0.80782  1.0000
  C   C364      1.0  0.48651  0.12737  0.90010  1.0000
  C   C365      1.0  0.29536  0.47248  0.94918  1.0000
  H   H349      1.0  0.16197  0.29409  0.74886  1.0000
  C   C366      1.0  0.45925  0.20480  0.98322  1.0000
  C   C367      1.0  0.27479  0.37045  0.98686  1.0000
  H   H350      1.0  0.48467  0.04941  0.83103  1.0000
  S   S122      1.0  0.99195  0.35619  0.78378  1.0000
  H   H351      1.0  0.39472  0.19751  0.96908  1.0000
  H   H352      1.0  0.47390  0.14385  0.92174  1.0000
  N   N29       1.0  0.48237  0.11599  0.88833  1.0000
  H   H353      1.0  0.16365  0.46151  0.75266  1.0000
  H   H354      1.0  0.45394  0.98266  0.79902  1.0000
  C   C368      1.0  0.44842  0.18783  0.98745  1.0000
  C   C369      1.0  0.16122  0.47612  0.74378  1.0000
  C   C370      1.0  0.14795  0.39081  0.74061  1.0000
  H   H355      1.0  0.17678  0.48050  0.73859  1.0000
  H   H356      1.0  0.25671  0.44617  0.98742  1.0000
  Fe  Fe65      1.0  0.42007  0.71262  0.07143  1.0000
  S   S123      1.0  0.42366  0.67765  0.07456  1.0000
  S   S124      1.0  0.42291  0.72693  0.09524  1.0000
  Fe  Fe66      1.0  0.41682  0.71534  0.03305  1.0000
  S   S125      1.0  0.42063  0.68111  0.03339  1.0000
  S   S126      1.0  0.41374  0.73727  0.00869  1.0000
  Fe  Fe67      1.0  0.39816  0.68127  0.05758  1.0000
  S   S127      1.0  0.36716  0.66855  0.05991  1.0000
  Fe  Fe68      1.0  0.44561  0.68071  0.05010  1.0000
  S   S128      1.0  0.47818  0.66447  0.04318  1.0000
  S   S129      1.0  0.39300  0.71616  0.05633  1.0000
  S   S130      1.0  0.44336  0.71510  0.04794  1.0000
  Fe  Fe69      1.0  0.43941  0.83054  0.12781  1.0000
  S   S131      1.0  0.43680  0.81406  0.15462  1.0000
  S   S132      1.0  0.42872  0.81997  0.10496  1.0000
  Fe  Fe70      1.0  0.45982  0.86536  0.13756  1.0000
  S   S133      1.0  0.45976  0.85092  0.16489  1.0000
  S   S134      1.0  0.47402  0.89491  0.12893  1.0000
  Fe  Fe71      1.0  0.46930  0.82083  0.15417  1.0000
  Fe  Fe72      1.0  0.42746  0.84560  0.16302  1.0000
  S   S135      1.0  0.40187  0.85487  0.18376  1.0000
  S   S136      1.0  0.47270  0.83541  0.12688  1.0000
  S   S137      1.0  0.42678  0.86189  0.13618  1.0000
  Fe  Fe73      1.0  0.31076  0.56736  0.06312  1.0000
  S   S138      1.0  0.27860  0.58539  0.06353  1.0000
  S   S139      1.0  0.34131  0.57837  0.06575  1.0000
  Fe  Fe74      1.0  0.29512  0.52694  0.05874  1.0000
  S   S140      1.0  0.26176  0.54191  0.05884  1.0000
  S   S141      1.0  0.30790  0.49455  0.05243  1.0000
  Fe  Fe75      1.0  0.27523  0.56812  0.04207  1.0000
  S   S142      1.0  0.26125  0.58382  0.01849  1.0000
  Fe  Fe76      1.0  0.26771  0.55767  0.08039  1.0000
  S   S143      1.0  0.24535  0.56440  0.10416  1.0000
  S   S144      1.0  0.30814  0.55224  0.04024  1.0000
  S   S145      1.0  0.30029  0.54064  0.08169  1.0000
  Fe  Fe77      1.0  0.13225  0.53948  0.14292  1.0000
  S   S146      1.0  0.14210  0.52081  0.16712  1.0000
  S   S147      1.0  0.15412  0.53960  0.11785  1.0000
  Fe  Fe78      1.0  0.08740  0.55188  0.15966  1.0000
  S   S148      1.0  0.09430  0.53415  0.18487  1.0000
  S   S149      1.0  0.05448  0.56939  0.16138  1.0000
  Fe  Fe79      1.0  0.12414  0.54731  0.18018  1.0000
  S   S150      1.0  0.13720  0.55895  0.20111  1.0000
  Fe  Fe80      1.0  0.11133  0.50945  0.16975  1.0000
  C   C371      1.0  0.09793  0.60837  0.20678  1.0000
  S   S151      1.0  0.11647  0.56713  0.15577  1.0000
  S   S152      1.0  0.10226  0.52599  0.14467  1.0000
  C   C372      1.0  0.03340  0.55964  0.15535  1.0000
  H   H357      1.0  0.35134  0.75490  0.99693  1.0000
  C   C373      1.0  0.03616  0.54738  0.14208  1.0000
  C   C374      1.0  0.36228  0.70869  0.02136  1.0000
  H   H358      1.0  0.05156  0.54336  0.13545  1.0000
  H   H359      1.0  0.48736  0.78596  0.10392  1.0000
  H   H360      1.0  0.47606  0.67790  0.07630  1.0000
  H   H361      1.0  0.46274  0.74249  0.07236  1.0000
  H   H362      1.0  0.46579  0.69538  0.01252  1.0000
  N   N30       1.0  0.03551  0.48445  0.14640  1.0000
  H   H363      1.0  0.03088  0.51619  0.18411  1.0000
  H   H364      1.0  0.08125  0.59315  0.17287  1.0000
  H   H365      1.0  0.11340  0.60102  0.18213  1.0000
  C   C375      1.0  0.12114  0.56150  0.22061  1.0000
  H   H366      1.0  0.11205  0.61159  0.21076  1.0000
  H   H367      1.0  0.02106  0.53165  0.12660  1.0000
  H   H368      1.0  0.04772  0.60528  0.22148  1.0000
  C   C376      1.0  0.27816  0.53313  0.99411  1.0000
  C   C377      1.0  0.36149  0.67339  0.01590  1.0000
  H   H369      1.0  0.37836  0.88587  0.11226  1.0000
  C   C378      1.0  0.22085  0.55543  0.10895  1.0000
  C   C379      1.0  0.21471  0.54243  0.09890  1.0000
  C   C380      1.0  0.19452  0.53693  0.10228  1.0000
  C   C381      1.0  0.18028  0.54427  0.11577  1.0000
  C   C382      1.0  0.18664  0.55672  0.12616  1.0000
  C   C383      1.0  0.20682  0.56230  0.12273  1.0000
  H   H370      1.0  0.22539  0.53686  0.08835  1.0000
  H   H371      1.0  0.18986  0.52707  0.09430  1.0000
  H   H372      1.0  0.17584  0.56251  0.13657  1.0000
  H   H373      1.0  0.21145  0.57226  0.13066  1.0000
  C   C384      1.0  0.99870  0.54603  0.14549  1.0000
  C   C385      1.0  0.01626  0.49143  0.15436  1.0000
  C   C386      1.0  0.27317  0.54617  0.00690  1.0000
  C   C387      1.0  0.26534  0.56702  0.00279  1.0000
  H   H374      1.0  0.27570  0.54007  0.01992  1.0000
  C   C388      1.0  0.10005  0.55954  0.22229  1.0000
  C   C389      1.0  0.45855  0.91941  0.13036  1.0000
  C   C390      1.0  0.46775  0.93744  0.12494  1.0000
  C   C391      1.0  0.45624  0.95713  0.12673  1.0000
  N   N31       1.0  0.37849  0.83829  0.14699  1.0000
  H   H375      1.0  0.41583  0.80251  0.23278  1.0000
  C   C392      1.0  0.43754  0.92128  0.13714  1.0000
  H   H376      1.0  0.48388  0.93620  0.11939  1.0000
  H   H377      1.0  0.13788  0.51222  0.22234  1.0000
  H   H378      1.0  0.34850  0.66903  0.02565  1.0000
  H   H379      1.0  0.43025  0.90755  0.14137  1.0000
  H   H380      1.0  0.41304  0.81423  0.20203  1.0000
  C   C393      1.0  0.36071  0.64332  0.06042  1.0000
  C   C394      1.0  0.33986  0.64117  0.05968  1.0000
  C   C395      1.0  0.33378  0.62149  0.06054  1.0000
  C   C396      1.0  0.34844  0.60364  0.06245  1.0000
  C   C397      1.0  0.36932  0.60581  0.06299  1.0000
  C   C398      1.0  0.37546  0.62551  0.06190  1.0000
  H   H381      1.0  0.32830  0.65485  0.05856  1.0000
  H   H382      1.0  0.31767  0.62009  0.06014  1.0000
  H   H383      1.0  0.38082  0.59212  0.06445  1.0000
  H   H384      1.0  0.39153  0.62688  0.06249  1.0000
  H   H385      1.0  0.99898  0.50863  0.17416  1.0000
  C   C399      1.0  0.48802  0.94371  0.15927  1.0000
  H   H386      1.0  0.46510  0.76699  0.09147  1.0000
  H   H387      1.0  0.26883  0.59907  0.10566  1.0000
  C   C400      1.0  0.42708  0.79403  0.10253  1.0000
  C   C401      1.0  0.42966  0.77787  0.11588  1.0000
  C   C402      1.0  0.42808  0.75750  0.11345  1.0000
  C   C403      1.0  0.42410  0.75299  0.09763  1.0000
  C   C404      1.0  0.42166  0.76914  0.08424  1.0000
  C   C405      1.0  0.42302  0.78955  0.08673  1.0000
  H   H388      1.0  0.43281  0.78104  0.12811  1.0000
  H   H389      1.0  0.43004  0.74511  0.12388  1.0000
  H   H390      1.0  0.41856  0.76592  0.07201  1.0000
  H   H391      1.0  0.42097  0.80195  0.07631  1.0000
  C   C406      1.0  0.34817  0.72517  0.99037  1.0000
  H   H392      1.0  0.36763  0.85991  0.16487  1.0000
  H   H393      1.0  0.48502  0.84236  0.19562  1.0000
  H   H394      1.0  0.28455  0.51708  0.99739  1.0000
  C   C407      1.0  0.01323  0.56502  0.16364  1.0000
  C   C408      1.0  0.13546  0.51332  0.23597  1.0000
  C   C409      1.0  0.46696  0.66878  0.99956  1.0000
  N   N32       1.0  0.32856  0.59170  0.10540  1.0000
  C   C410      1.0  0.31796  0.61111  0.10157  1.0000
  C   C411      1.0  0.31812  0.57497  0.10944  1.0000
  C   C412      1.0  0.29635  0.61408  0.10151  1.0000
  C   C413      1.0  0.29649  0.57744  0.10978  1.0000
  C   C414      1.0  0.28559  0.59711  0.10570  1.0000
  C   C415      1.0  0.35116  0.58868  0.10565  1.0000
  H   H395      1.0  0.32624  0.62436  0.09818  1.0000
  H   H396      1.0  0.32657  0.55955  0.11218  1.0000
  H   H397      1.0  0.28806  0.62942  0.09813  1.0000
  H   H398      1.0  0.28819  0.56416  0.11295  1.0000
  H   H399      1.0  0.39009  0.80701  0.15607  1.0000
  H   H400      1.0  0.35808  0.60274  0.09973  1.0000
  H   H401      1.0  0.35486  0.58473  0.11900  1.0000
  H   H402      1.0  0.35874  0.57600  0.09809  1.0000
  H   H403      1.0  0.36784  0.70237  0.03348  1.0000
  N   N33       1.0  0.18198  0.57334  0.06904  1.0000
  C   C416      1.0  0.19158  0.56869  0.05337  1.0000
  C   C417      1.0  0.19140  0.58364  0.07870  1.0000
  C   C418      1.0  0.21099  0.57469  0.04686  1.0000
  C   C419      1.0  0.21088  0.58971  0.07264  1.0000
  C   C420      1.0  0.22060  0.58535  0.05656  1.0000
  C   C421      1.0  0.16165  0.56681  0.07550  1.0000
  H   H404      1.0  0.18429  0.56020  0.04584  1.0000
  H   H405      1.0  0.18422  0.58665  0.09141  1.0000
  H   H406      1.0  0.21871  0.57098  0.03444  1.0000
  H   H407      1.0  0.21862  0.59726  0.08058  1.0000
  H   H408      1.0  0.04854  0.59475  0.19271  1.0000
  H   H409      1.0  0.15030  0.57289  0.06626  1.0000
  H   H410      1.0  0.16318  0.54964  0.07770  1.0000
  H   H411      1.0  0.15510  0.57239  0.08795  1.0000
  C   C422      1.0  0.12953  0.56601  0.23460  1.0000
  C   C423      1.0  0.06241  0.59873  0.19661  1.0000
  C   C424      1.0  0.43515  0.95901  0.13330  1.0000
  C   C425      1.0  0.35971  0.73011  0.01664  1.0000
  H   H412      1.0  0.48751  0.91138  0.15883  1.0000
  C   C426      1.0  0.35270  0.73836  0.00100  1.0000
  C   C427      1.0  0.37863  0.82025  0.16019  1.0000
  H   H413      1.0  0.36292  0.81550  0.16302  1.0000
  C   C428      1.0  0.35105  0.70379  0.99545  1.0000
  N   N34       1.0  0.35832  0.69581  0.01068  1.0000
  H   H414      1.0  0.38329  0.82386  0.17216  1.0000
  H   H415      1.0  0.48465  0.72371  0.06671  1.0000
  C   C429      1.0  0.37211  0.85772  0.15153  1.0000
  C   C430      1.0  0.07904  0.61587  0.23458  1.0000
  C   C431      1.0  0.38384  0.85260  0.11742  1.0000
  H   H416      1.0  0.00224  0.48892  0.14971  1.0000
  H   H417      1.0  0.38900  0.85032  0.10417  1.0000
  C   C432      1.0  0.01430  0.50258  0.16826  1.0000
  H   H418      1.0  0.36380  0.74017  0.02483  1.0000
  C   C433      1.0  0.06210  0.60465  0.21280  1.0000
  C   C434      1.0  0.40484  0.70897  0.98928  1.0000
  C   C435      1.0  0.42582  0.94101  0.13834  1.0000
  H   H419      1.0  0.47192  0.65775  0.01024  1.0000
  H   H420      1.0  0.40058  0.87735  0.21232  1.0000
  H   H421      1.0  0.36762  0.89053  0.14289  1.0000
  C   C436      1.0  0.01884  0.54086  0.13703  1.0000
  C   C437      1.0  0.99600  0.55803  0.15890  1.0000
  C   C438      1.0  0.41141  0.82549  0.21087  1.0000
  H   H422      1.0  0.23569  0.58996  0.05167  1.0000
  C   C439      1.0  0.08087  0.59774  0.18543  1.0000
  H   H423      1.0  0.47004  0.72063  0.08775  1.0000
  H   H424      1.0  0.31841  0.54528  0.99997  1.0000
  H   H425      1.0  0.06821  0.48420  0.14479  1.0000
  C   C440      1.0  0.09879  0.60245  0.19053  1.0000
  H   H426      1.0  0.45732  0.82135  0.20860  1.0000
  H   H427      1.0  0.27149  0.48820  0.07736  1.0000
  H   H428      1.0  0.36253  0.66460  0.00490  1.0000
  H   H429      1.0  0.40948  0.94235  0.14331  1.0000
  H   H430      1.0  0.46349  0.97089  0.12249  1.0000
  C   C441      1.0  0.40684  0.84658  0.20505  1.0000
  N   N35       1.0  0.07977  0.60923  0.21773  1.0000
  H   H431      1.0  0.40965  0.69693  0.99924  1.0000
  C   C442      1.0  0.40435  0.86102  0.21671  1.0000
  H   H432      1.0  0.01091  0.57465  0.17379  1.0000
  C   C443      1.0  0.37191  0.87512  0.13913  1.0000
  C   C444      1.0  0.38393  0.83555  0.13016  1.0000
  C   C445      1.0  0.40566  0.72971  0.99073  1.0000
  H   H433      1.0  0.38890  0.82016  0.12649  1.0000
  C   C446      1.0  0.37791  0.87251  0.12197  1.0000
  C   C447      1.0  0.40655  0.85445  0.23406  1.0000
  C   C448      1.0  0.05305  0.48898  0.15153  1.0000
  H   H434      1.0  0.37626  0.66856  0.02168  1.0000
  C   C449      1.0  0.48264  0.83809  0.20936  1.0000
  H   H435      1.0  0.06569  0.50362  0.16936  1.0000
  C   C450      1.0  0.46422  0.82082  0.23440  1.0000
  C   C451      1.0  0.03216  0.50693  0.17376  1.0000
  H   H436      1.0  0.09330  0.55654  0.21156  1.0000
  C   C452      1.0  0.47622  0.73207  0.07736  1.0000
  H   H437      1.0  0.30930  0.58197  0.99495  1.0000
  C   C453      1.0  0.46354  0.68993  0.00082  1.0000
  C   C454      1.0  0.05169  0.50007  0.16538  1.0000
  H   H438      1.0  0.07477  0.63291  0.23379  1.0000
  C   C455      1.0  0.46708  0.82627  0.21665  1.0000
  C   C456      1.0  0.48154  0.76123  0.09118  1.0000
  H   H439      1.0  0.03764  0.48432  0.11966  1.0000
  H   H440      1.0  0.47297  0.94604  0.16696  1.0000
  H   H441      1.0  0.47679  0.97349  0.21028  1.0000
  C   C457      1.0  0.41288  0.81888  0.22830  1.0000
  H   H442      1.0  0.14583  0.56768  0.23335  1.0000
  H   H443      1.0  0.16714  0.51675  0.23704  1.0000
  H   H444      1.0  0.45443  0.72036  0.98811  1.0000
  Fe  Fe81      1.0  0.44896  0.85771  0.29831  1.0000
  S   S153      1.0  0.43998  0.86897  0.27206  1.0000
  H   H445      1.0  0.07011  0.65799  0.39815  1.0000
  Fe  Fe82      1.0  0.40290  0.85986  0.31482  1.0000
  S   S154      1.0  0.39058  0.87122  0.28975  1.0000
  S   S155      1.0  0.38380  0.85512  0.34104  1.0000
  Fe  Fe83      1.0  0.41588  0.84774  0.27879  1.0000
  S   S156      1.0  0.41257  0.82439  0.26174  1.0000
  Fe  Fe84      1.0  0.41584  0.89134  0.28531  1.0000
  S   S157      1.0  0.40993  0.92490  0.27509  1.0000
  S   S158      1.0  0.42642  0.83461  0.30428  1.0000
  S   S159      1.0  0.42654  0.88177  0.31113  1.0000
  Fe  Fe85      1.0  0.26417  0.83402  0.42199  1.0000
  S   S160      1.0  0.23077  0.84801  0.42555  1.0000
  S   S161      1.0  0.27897  0.81878  0.44536  1.0000
  Fe  Fe86      1.0  0.26799  0.84464  0.38356  1.0000
  S   S162      1.0  0.23418  0.85916  0.38434  1.0000
  S   S163      1.0  0.28755  0.84567  0.35731  1.0000
  Fe  Fe87      1.0  0.24064  0.87398  0.40623  1.0000
  S   S164      1.0  0.22698  0.90692  0.41054  1.0000
  Fe  Fe88      1.0  0.22691  0.83166  0.40359  1.0000
  S   S165      1.0  0.19636  0.81755  0.40915  1.0000
  S   S166      1.0  0.27462  0.86128  0.40435  1.0000
  S   S167      1.0  0.26023  0.81596  0.40115  1.0000
  Fe  Fe89      1.0  0.13008  0.72606  0.40165  1.0000
  S   S168      1.0  0.13182  0.69666  0.42034  1.0000
  S   S169      1.0  0.15841  0.74198  0.39003  1.0000
  Fe  Fe90      1.0  0.08426  0.72520  0.39814  1.0000
  S   S170      1.0  0.08302  0.69630  0.41647  1.0000
  S   S171      1.0  0.05651  0.74010  0.38448  1.0000
  Fe  Fe91      1.0  0.10059  0.71094  0.43228  1.0000
  S   S172      1.0  0.08705  0.70872  0.46015  1.0000
  Fe  Fe92      1.0  0.11391  0.68442  0.40284  1.0000
  S   S173      1.0  0.11591  0.65034  0.39975  1.0000
  S   S174      1.0  0.09981  0.74108  0.41477  1.0000
  S   S175      1.0  0.11430  0.71261  0.38327  1.0000
  H   H446      1.0  0.01991  0.70580  0.47050  1.0000
  Fe  Fe93      1.0  0.10714  0.58192  0.32498  1.0000
  S   S176      1.0  0.07537  0.58161  0.31763  1.0000
  S   S177      1.0  0.11455  0.61277  0.33047  1.0000
  Fe  Fe94      1.0  0.12218  0.53758  0.31655  1.0000
  S   S178      1.0  0.09196  0.53401  0.30880  1.0000
  S   S179      1.0  0.14867  0.51127  0.31437  1.0000
  Fe  Fe95      1.0  0.09200  0.56618  0.29523  1.0000
  S   S180      1.0  0.07880  0.57240  0.27012  1.0000
  Fe  Fe96      1.0  0.07796  0.54951  0.33168  1.0000
  S   S181      1.0  0.05035  0.53673  0.34682  1.0000
  S   S182      1.0  0.12373  0.56884  0.30107  1.0000
  S   S183      1.0  0.10841  0.55059  0.34100  1.0000
  H   H447      1.0  0.09333  0.66112  0.46698  1.0000
  H   H448      1.0  0.17956  0.52540  0.26110  1.0000
  C   C458      1.0  0.01246  0.53162  0.33875  1.0000
  C   C459      1.0  0.03176  0.53813  0.33279  1.0000
  C   C460      1.0  0.03580  0.54669  0.31572  1.0000
  C   C461      1.0  0.02063  0.54899  0.30469  1.0000
  C   C462      1.0  0.41049  0.83332  0.23995  1.0000
  H   H449      1.0  0.05043  0.55204  0.31094  1.0000
  H   H450      1.0  0.02390  0.55580  0.29154  1.0000
  C   C463      1.0  0.03196  0.73265  0.39304  1.0000
  C   C464      1.0  0.01480  0.73872  0.38378  1.0000
  H   H451      1.0  0.26079  0.88655  0.35417  1.0000
  H   H452      1.0  0.08898  0.50664  0.34830  1.0000
  C   C465      1.0  0.01057  0.71256  0.41456  1.0000
  C   C466      1.0  0.02953  0.71996  0.40865  1.0000
  H   H453      1.0  0.01646  0.74868  0.37174  1.0000
  N   N36       1.0  0.26020  0.91768  0.35887  1.0000
  H   H454      1.0  0.00916  0.70219  0.42639  1.0000
  H   H455      1.0  0.04226  0.71571  0.41619  1.0000
  C   C467      1.0  0.11509  0.64027  0.38038  1.0000
  C   C468      1.0  0.11878  0.65193  0.36438  1.0000
  C   C469      1.0  0.11838  0.64327  0.34932  1.0000
  C   C470      1.0  0.11427  0.62289  0.35000  1.0000
  C   C471      1.0  0.11037  0.61128  0.36602  1.0000
  C   C472      1.0  0.11088  0.61992  0.38111  1.0000
  H   H456      1.0  0.12243  0.66745  0.36356  1.0000
  H   H457      1.0  0.12158  0.65232  0.33701  1.0000
  H   H458      1.0  0.10728  0.59557  0.36677  1.0000
  H   H459      1.0  0.10814  0.61069  0.39339  1.0000
  H   H460      1.0  0.07825  0.67789  0.35912  1.0000
  C   C473      1.0  0.23964  0.92021  0.36548  1.0000
  C   C474      1.0  0.12564  0.70690  0.47052  1.0000
  C   C475      1.0  0.10433  0.70666  0.47542  1.0000
  C   C476      1.0  0.11751  0.65203  0.44702  1.0000
  H   H461      1.0  0.12703  0.51940  0.28394  1.0000
  C   C477      1.0  0.25247  0.93935  0.44634  1.0000
  H   H462      1.0  0.13164  0.70937  0.45711  1.0000
  C   C478      1.0  0.23401  0.80007  0.46658  1.0000
  H   H463      1.0  0.10795  0.77662  0.35788  1.0000
  C   C479      1.0  0.18801  0.79455  0.40509  1.0000
  C   C480      1.0  0.19732  0.78392  0.39136  1.0000
  C   C481      1.0  0.18845  0.76741  0.38734  1.0000
  C   C482      1.0  0.17029  0.76115  0.39704  1.0000
  C   C483      1.0  0.16141  0.77129  0.41115  1.0000
  C   C484      1.0  0.17017  0.78791  0.41507  1.0000
  H   H464      1.0  0.21098  0.78881  0.38351  1.0000
  H   H465      1.0  0.19551  0.75967  0.37643  1.0000
  H   H466      1.0  0.14749  0.76670  0.41877  1.0000
  H   H467      1.0  0.16282  0.79598  0.42572  1.0000
  C   C485      1.0  0.27449  0.94073  0.39622  1.0000
  C   C486      1.0  0.26315  0.92398  0.40007  1.0000
  C   C487      1.0  0.24211  0.92723  0.40661  1.0000
  C   C488      1.0  0.23262  0.94724  0.40964  1.0000
  H   H468      1.0  0.29068  0.93819  0.39086  1.0000
  H   H469      1.0  0.27061  0.90865  0.39774  1.0000
  H   H470      1.0  0.21630  0.94984  0.41465  1.0000
  C   C489      1.0  0.44142  0.97029  0.28104  1.0000
  C   C490      1.0  0.27421  0.83347  0.46256  1.0000
  C   C491      1.0  0.22902  0.93988  0.36805  1.0000
  C   C492      1.0  0.01598  0.71052  0.48318  1.0000
  C   C493      1.0  0.26070  0.95419  0.35759  1.0000
  H   H471      1.0  0.16914  0.64476  0.45052  1.0000
  S   S184      1.0  0.27943  0.98143  0.39270  1.0000
  C   C494      1.0  0.35648  0.85495  0.34526  1.0000
  C   C495      1.0  0.34401  0.85689  0.33213  1.0000
  C   C496      1.0  0.32276  0.85468  0.33606  1.0000
  C   C497      1.0  0.31374  0.85057  0.35312  1.0000
  C   C498      1.0  0.32603  0.84935  0.36626  1.0000
  C   C499      1.0  0.34729  0.85147  0.36233  1.0000
  H   H472      1.0  0.35083  0.85965  0.31895  1.0000
  H   H473      1.0  0.31337  0.85571  0.32581  1.0000
  H   H474      1.0  0.31934  0.84615  0.37944  1.0000
  H   H475      1.0  0.35680  0.84993  0.37258  1.0000
  C   C500      1.0  0.00700  0.58856  0.33049  1.0000
  C   C501      1.0  0.15192  0.51608  0.24435  1.0000
  H   H476      1.0  0.30796  0.91404  0.43096  1.0000
  H   H477      1.0  0.23377  0.81344  0.45628  1.0000
  H   H478      1.0  0.47815  0.88912  0.30903  1.0000
  H   H479      1.0  0.26919  0.97706  0.45428  1.0000
  C   C502      1.0  0.01778  0.66741  0.39765  1.0000
  H   H480      1.0  0.14488  0.64397  0.42954  1.0000
  H   H481      1.0  0.41225  0.96766  0.31291  1.0000
  C   C503      1.0  0.42942  0.93797  0.27922  1.0000
  C   C504      1.0  0.42678  0.95960  0.27644  1.0000
  C   C505      1.0  0.16602  0.52099  0.27019  1.0000
  C   C506      1.0  0.45869  0.95941  0.28847  1.0000
  C   C507      1.0  0.46196  0.93777  0.29034  1.0000
  C   C508      1.0  0.44728  0.92705  0.28580  1.0000
  H   H482      1.0  0.41317  0.96807  0.27105  1.0000
  H   H483      1.0  0.00924  0.52494  0.35193  1.0000
  C   C509      1.0  0.99711  0.53423  0.32774  1.0000
  H   H484      1.0  0.44975  0.91034  0.28747  1.0000
  N   N37       1.0  0.42783  0.94533  0.33056  1.0000
  C   C510      1.0  0.99362  0.71803  0.40511  1.0000
  C   C511      1.0  0.41347  0.93205  0.33536  1.0000
  S   S185      1.0  0.47542  0.97251  0.29666  1.0000
  C   C512      1.0  0.41961  0.91141  0.34184  1.0000
  C   C513      1.0  0.44065  0.90430  0.34302  1.0000
  C   C514      1.0  0.10992  0.65685  0.46344  1.0000
  H   H485      1.0  0.09721  0.51526  0.26965  1.0000
  H   H486      1.0  0.39717  0.93735  0.33402  1.0000
  H   H487      1.0  0.25377  0.88158  0.47256  1.0000
  H   H488      1.0  0.40821  0.90080  0.34539  1.0000
  C   C515      1.0  0.99563  0.73149  0.38982  1.0000
  H   H489      1.0  0.11526  0.48985  0.30674  1.0000
  H   H490      1.0  0.03763  0.64731  0.41437  1.0000
  H   H491      1.0  0.12123  0.48926  0.37159  1.0000
  H   H492      1.0  0.07146  0.70319  0.36642  1.0000
  H   H493      1.0  0.47554  0.92928  0.29575  1.0000
  C   C516      1.0  0.11568  0.51292  0.24511  1.0000
  H   H494      1.0  0.48235  0.80581  0.26646  1.0000
  H   H495      1.0  0.27959  0.89237  0.43906  1.0000
  H   H496      1.0  0.27222  0.98208  0.43121  1.0000
  C   C517      1.0  0.11261  0.51511  0.26248  1.0000
  H   H497      1.0  0.02009  0.59234  0.32122  1.0000
  N   N38       1.0  0.05436  0.67981  0.38003  1.0000
  H   H498      1.0  0.04642  0.71802  0.48404  1.0000
  C   C518      1.0  0.24402  0.96398  0.40594  1.0000
  H   H499      1.0  0.23186  0.97216  0.36671  1.0000
  H   H500      1.0  0.27778  0.88987  0.36906  1.0000
  C   C519      1.0  0.25635  0.91804  0.44544  1.0000
  C   C520      1.0  0.01714  0.68201  0.38310  1.0000
  C   C521      1.0  0.15249  0.64794  0.45431  1.0000
  C   C522      1.0  0.12391  0.65693  0.47509  1.0000
  C   C523      1.0  0.23967  0.95695  0.36411  1.0000
  C   C524      1.0  0.13892  0.64743  0.44241  1.0000
  C   C525      1.0  0.27130  0.89684  0.35705  1.0000
  H   H501      1.0  0.45644  0.82040  0.26777  1.0000
  C   C526      1.0  0.05523  0.66493  0.39394  1.0000
  H   H502      1.0  0.26931  0.96726  0.35519  1.0000
  C   C527      1.0  0.29235  0.92101  0.43543  1.0000
  H   H503      1.0  0.12334  0.57228  0.26085  1.0000
  C   C528      1.0  0.26101  0.86563  0.47424  1.0000
  C   C529      1.0  0.28787  0.94232  0.43628  1.0000
  C   C530      1.0  0.27082  0.93431  0.35508  1.0000
  H   H504      1.0  0.21291  0.94167  0.37385  1.0000
  C   C531      1.0  0.26393  0.97354  0.44254  1.0000
  H   H505      1.0  0.08649  0.68272  0.37856  1.0000
  C   C532      1.0  0.03694  0.65868  0.40308  1.0000
  C   C533      1.0  0.45520  0.91792  0.33800  1.0000
  H   H506      1.0  0.23650  0.97941  0.40800  1.0000
  H   H507      1.0  0.99811  0.59244  0.29887  1.0000
  C   C534      1.0  0.26494  0.96078  0.39902  1.0000
  H   H508      1.0  0.43402  0.97577  0.31983  1.0000
  H   H509      1.0  0.44571  0.88816  0.34750  1.0000
  H   H510      1.0  0.23147  0.90692  0.36935  1.0000
  N   N39       1.0  0.47623  0.82735  0.24458  1.0000
  H   H511      1.0  0.28732  0.93220  0.35048  1.0000
  C   C535      1.0  0.00110  0.54319  0.31075  1.0000
  C   C536      1.0  0.09569  0.56688  0.25168  1.0000
  H   H512      1.0  0.28430  0.89700  0.34641  1.0000
  H   H513      1.0  0.24952  0.79048  0.46438  1.0000
  H   H514      1.0  0.06756  0.60832  0.24415  1.0000
  H   H515      1.0  0.22163  0.79105  0.46519  1.0000
  N   N40       1.0  0.36480  0.81001  0.31668  1.0000
  C   C537      1.0  0.37611  0.80847  0.33005  1.0000
  C   C538      1.0  0.34406  0.80820  0.31966  1.0000
  C   C539      1.0  0.36679  0.80454  0.34692  1.0000
  C   C540      1.0  0.33422  0.80434  0.33639  1.0000
  C   C541      1.0  0.34570  0.80251  0.35008  1.0000
  C   C542      1.0  0.37453  0.81509  0.29910  1.0000
  H   H516      1.0  0.39226  0.81098  0.32780  1.0000
  H   H517      1.0  0.33489  0.81023  0.30911  1.0000
  H   H518      1.0  0.37565  0.80411  0.35748  1.0000
  H   H519      1.0  0.31761  0.80365  0.33879  1.0000
  H   H520      1.0  0.33806  0.80034  0.36312  1.0000
  H   H521      1.0  0.39165  0.81009  0.29780  1.0000
  H   H522      1.0  0.36832  0.80721  0.28999  1.0000
  H   H523      1.0  0.37158  0.83206  0.29521  1.0000
  N   N41       1.0  0.12206  0.78546  0.37743  1.0000
  C   C543      1.0  0.14063  0.79109  0.36957  1.0000
  C   C544      1.0  0.11189  0.79438  0.39134  1.0000
  C   C545      1.0  0.14946  0.80609  0.37557  1.0000
  C   C546      1.0  0.12036  0.80934  0.39775  1.0000
  C   C547      1.0  0.13924  0.81525  0.38975  1.0000
  C   C548      1.0  0.11298  0.77009  0.37052  1.0000
  H   H524      1.0  0.14907  0.78344  0.35897  1.0000
  H   H525      1.0  0.09730  0.78976  0.39772  1.0000
  H   H526      1.0  0.16458  0.80994  0.36976  1.0000
  H   H527      1.0  0.11257  0.81601  0.40905  1.0000
  H   H528      1.0  0.14641  0.82628  0.39492  1.0000
  H   H529      1.0  0.12468  0.75605  0.36900  1.0000
  H   H530      1.0  0.09923  0.76510  0.37905  1.0000
  H   H531      1.0  0.45993  0.94899  0.32795  1.0000
  C   C549      1.0  0.15954  0.65319  0.48254  1.0000
  H   H532      1.0  0.10687  0.65221  0.43774  1.0000
  C   C550      1.0  0.01041  0.58135  0.34741  1.0000
  C   C551      1.0  0.44846  0.93856  0.33190  1.0000
  C   C552      1.0  0.26476  0.85409  0.46040  1.0000
  C   C553      1.0  0.13928  0.70365  0.48302  1.0000
  C   C554      1.0  0.47315  0.82118  0.26311  1.0000
  H   H533      1.0  0.40464  0.86572  0.24293  1.0000
  H   H534      1.0  0.47796  0.83260  0.27009  1.0000
  H   H535      1.0  0.03499  0.70012  0.36354  1.0000
  C   C555      1.0  0.03568  0.68819  0.37447  1.0000
  C   C556      1.0  0.07358  0.68620  0.37052  1.0000
  H   H536      1.0  0.00335  0.66326  0.40485  1.0000
  C   C557      1.0  0.11687  0.56849  0.25019  1.0000
  N   N42       1.0  0.26810  0.95122  0.44159  1.0000
  H   H537      1.0  0.30019  0.95181  0.43235  1.0000
  H   H538      1.0  0.26043  0.86114  0.44804  1.0000
  H   H539      1.0  0.00225  0.68913  0.37901  1.0000
  H   H540      1.0  0.22474  0.83885  0.47454  1.0000
  H   H541      1.0  0.24373  0.90881  0.44847  1.0000
  C   C558      1.0  0.42078  0.96693  0.32411  1.0000
  C   C559      1.0  0.09068  0.49003  0.34822  1.0000
  H   H542      1.0  0.17103  0.50636  0.27837  1.0000
  N   N43       1.0  0.23088  0.80665  0.48365  1.0000
  H   H543      1.0  0.15578  0.70374  0.47921  1.0000
  H   H544      1.0  0.24711  0.97967  0.44262  1.0000
  H   H545      1.0  0.16107  0.53339  0.27860  1.0000
  H   H546      1.0  0.47163  0.91248  0.33863  1.0000
  H   H547      1.0  0.45226  0.81143  0.24001  1.0000
  H   H548      1.0  0.12680  0.50181  0.34997  1.0000
  H   H549      1.0  0.23674  0.94639  0.45038  1.0000
  H   H550      1.0  0.28681  0.80837  0.48041  1.0000
  C   C560      1.0  0.14536  0.48499  0.31578  1.0000
  C   C561      1.0  0.27644  0.90884  0.44000  1.0000
  N   N44       1.0  0.14491  0.65263  0.47041  1.0000
  N   N45       1.0  0.14872  0.51839  0.26136  1.0000
  H   H551      1.0  0.41037  0.97478  0.33424  1.0000
  H   H552      1.0  0.06082  0.49171  0.33939  1.0000
  C   C562      1.0  0.27953  0.82434  0.47869  1.0000
  C   C563      1.0  0.12945  0.51769  0.27046  1.0000
  H   H553      1.0  0.02597  0.57942  0.35109  1.0000
  H   H554      1.0  0.99638  0.56973  0.37238  1.0000
  C   C564      1.0  0.99383  0.57580  0.35933  1.0000
  H   H555      1.0  0.16920  0.63784  0.48491  1.0000
  S   S186      1.0  0.48311  0.84654  0.30091  1.0000
  H   H556      1.0  0.10268  0.51139  0.23864  1.0000
  H   H557      1.0  0.16984  0.66506  0.47742  1.0000
  C   C565      1.0  0.12491  0.48675  0.35796  1.0000
  H   H558      1.0  0.09431  0.61127  0.23959  1.0000
  H   H559      1.0  0.07091  0.56127  0.23880  1.0000
  C   C566      1.0  0.08734  0.56235  0.23773  1.0000
  C   C567      1.0  0.22599  0.82719  0.48561  1.0000
  Fe  Fe97      1.0  0.38189  0.90573  0.65963  1.0000
  S   S187      1.0  0.39098  0.90704  0.63150  1.0000
  S   S188      1.0  0.36489  0.93503  0.66870  1.0000
  Fe  Fe98      1.0  0.39887  0.86059  0.66601  1.0000
  S   S189      1.0  0.40828  0.85793  0.63790  1.0000
  S   S190      1.0  0.40868  0.83602  0.68730  1.0000
  Fe  Fe99      1.0  0.42088  0.88764  0.63785  1.0000
  S   S191      1.0  0.45218  0.89529  0.62460  1.0000
  Fe  Fe100     1.0  0.37713  0.87761  0.63412  1.0000
  S   S192      1.0  0.35188  0.88313  0.61637  1.0000
  S   S193      1.0  0.41294  0.88923  0.66581  1.0000
  S   S194      1.0  0.36677  0.87735  0.66237  1.0000
  N   N46       1.0  0.02595  0.72368  0.50685  1.0000
  Fe  Fe101     1.0  0.27948  0.83739  0.56713  1.0000
  S   S195      1.0  0.24824  0.83794  0.58307  1.0000
  S   S196      1.0  0.30828  0.82505  0.58044  1.0000
  Fe  Fe102     1.0  0.25973  0.85593  0.53449  1.0000
  S   S197      1.0  0.22739  0.85815  0.54844  1.0000
  S   S198      1.0  0.26130  0.87169  0.50727  1.0000
  Fe  Fe103     1.0  0.24146  0.86989  0.56863  1.0000
  S   S199      1.0  0.22757  0.89939  0.58007  1.0000
  Fe  Fe104     1.0  0.23748  0.82598  0.56121  1.0000
  S   S200      1.0  0.22366  0.79616  0.56125  1.0000
  S   S201      1.0  0.27308  0.86963  0.55378  1.0000
  S   S202      1.0  0.26950  0.82335  0.54608  1.0000
  Fe  Fe105     1.0  0.12846  0.73358  0.56592  1.0000
  S   S203      1.0  0.15405  0.70727  0.56149  1.0000
  S   S204      1.0  0.13479  0.76539  0.57018  1.0000
  Fe  Fe106     1.0  0.09406  0.70644  0.56601  1.0000
  S   S205      1.0  0.11776  0.67859  0.56109  1.0000
  S   S206      1.0  0.06220  0.69601  0.57124  1.0000
  Fe  Fe107     1.0  0.13438  0.68762  0.58076  1.0000
  S   S207      1.0  0.14518  0.66732  0.60436  1.0000
  Fe  Fe108     1.0  0.13468  0.70082  0.54228  1.0000
  C   C568      1.0  0.08701  0.61722  0.64482  1.0000
  S   S208      1.0  0.11000  0.71444  0.58672  1.0000
  S   S209      1.0  0.10988  0.72819  0.54561  1.0000
  C   C569      1.0  0.27557  0.85072  0.61659  1.0000
  Fe  Fe109     1.0  0.12132  0.55633  0.64954  1.0000
  S   S210      1.0  0.11722  0.56826  0.67502  1.0000
  S   S211      1.0  0.12476  0.57507  0.62314  1.0000
  Fe  Fe110     1.0  0.11050  0.51309  0.66542  1.0000
  S   S212      1.0  0.10552  0.52182  0.69192  1.0000
  Fe  Fe111     1.0  0.08908  0.55207  0.68101  1.0000
  S   S213      1.0  0.05819  0.56376  0.69503  1.0000
  Fe  Fe112     1.0  0.13417  0.53687  0.68398  1.0000
  S   S214      1.0  0.15668  0.53048  0.70355  1.0000
  S   S215      1.0  0.09162  0.54249  0.65499  1.0000
  S   S216      1.0  0.14073  0.52585  0.65796  1.0000
  C   C570      1.0  0.45868  0.83283  0.65434  1.0000
  C   C571      1.0  0.14534  0.53962  0.72293  1.0000
  C   C572      1.0  0.41564  0.83576  0.72063  1.0000
  H   H560      1.0  0.03484  0.51979  0.67697  1.0000
  C   C573      1.0  0.12658  0.55316  0.72363  1.0000
  H   H561      1.0  0.00370  0.50412  0.62823  1.0000
  H   H562      1.0  0.33609  0.96244  0.64987  1.0000
  H   H563      1.0  0.11896  0.55806  0.71228  1.0000
  C   C574      1.0  0.04025  0.56786  0.68027  1.0000
  C   C575      1.0  0.04632  0.57570  0.66334  1.0000
  C   C576      1.0  0.03298  0.57688  0.65096  1.0000
  C   C577      1.0  0.01366  0.56997  0.65547  1.0000
  C   C578      1.0  0.37912  0.96858  0.67603  1.0000
  C   C579      1.0  0.02056  0.56171  0.68496  1.0000
  H   H564      1.0  0.06147  0.58054  0.65974  1.0000
  H   H565      1.0  0.03791  0.58255  0.63778  1.0000
  H   H566      1.0  0.11785  0.66106  0.48773  1.0000
  H   H567      1.0  0.01592  0.55543  0.69803  1.0000
  C   C580      1.0  0.03797  0.71061  0.56719  1.0000
  C   C581      1.0  0.02035  0.70046  0.57017  1.0000
  H   H568      1.0  0.21979  0.84982  0.50339  1.0000
  H   H569      1.0  0.24055  0.90181  0.53127  1.0000
  C   C582      1.0  0.01600  0.74261  0.55819  1.0000
  C   C583      1.0  0.03578  0.73175  0.56116  1.0000
  H   H570      1.0  0.02192  0.68413  0.57491  1.0000
  C   C584      1.0  0.40820  0.97890  0.62425  1.0000
  H   H571      1.0  0.01434  0.75898  0.55356  1.0000
  H   H572      1.0  0.04924  0.73975  0.55891  1.0000
  C   C585      1.0  0.14034  0.64136  0.60929  1.0000
  C   C586      1.0  0.13468  0.63095  0.59705  1.0000
  C   C587      1.0  0.13069  0.61041  0.60140  1.0000
  C   C588      1.0  0.13193  0.60018  0.61807  1.0000
  C   C589      1.0  0.13777  0.61051  0.63029  1.0000
  C   C590      1.0  0.14205  0.63100  0.62587  1.0000
  H   H573      1.0  0.13353  0.63865  0.58420  1.0000
  H   H574      1.0  0.12633  0.60248  0.59183  1.0000
  H   H575      1.0  0.13897  0.60273  0.64313  1.0000
  H   H576      1.0  0.14661  0.63887  0.63538  1.0000
  C   C591      1.0  0.19845  0.78897  0.56244  1.0000
  C   C592      1.0  0.18025  0.80139  0.56845  1.0000
  C   C593      1.0  0.16083  0.79416  0.57033  1.0000
  C   C594      1.0  0.15932  0.77455  0.56612  1.0000
  C   C595      1.0  0.17746  0.76237  0.55970  1.0000
  C   C596      1.0  0.19687  0.76951  0.55798  1.0000
  H   H577      1.0  0.18116  0.81638  0.57197  1.0000
  H   H578      1.0  0.14690  0.80376  0.57525  1.0000
  H   H579      1.0  0.17660  0.74728  0.55638  1.0000
  H   H580      1.0  0.21082  0.75974  0.55333  1.0000
  H   H581      1.0  0.45302  0.94289  0.66301  1.0000
  H   H582      1.0  0.46664  0.93297  0.64367  1.0000
  C   C597      1.0  0.00730  0.56257  0.67249  1.0000
  C   C598      1.0  0.24373  0.91838  0.58015  1.0000
  C   C599      1.0  0.26541  0.91362  0.57748  1.0000
  C   C600      1.0  0.27800  0.92892  0.57723  1.0000
  C   C601      1.0  0.26910  0.94928  0.57950  1.0000
  C   C602      1.0  0.24742  0.95415  0.58236  1.0000
  C   C603      1.0  0.23479  0.93867  0.58285  1.0000
  H   H583      1.0  0.27258  0.89803  0.57597  1.0000
  H   H584      1.0  0.29475  0.92494  0.57516  1.0000
  H   H585      1.0  0.15144  0.65740  0.49509  1.0000
  H   H586      1.0  0.21802  0.94247  0.58513  1.0000
  C   C604      1.0  0.34184  0.86672  0.60499  1.0000
  C   C605      1.0  0.34833  0.84537  0.60639  1.0000
  C   C606      1.0  0.33854  0.83285  0.59814  1.0000
  C   C607      1.0  0.32199  0.84153  0.58870  1.0000
  C   C608      1.0  0.31590  0.86293  0.58698  1.0000
  C   C609      1.0  0.32586  0.87546  0.59498  1.0000
  H   H587      1.0  0.36069  0.83846  0.61396  1.0000
  H   H588      1.0  0.34346  0.81630  0.59942  1.0000
  H   H589      1.0  0.30329  0.86981  0.57969  1.0000
  H   H590      1.0  0.32077  0.89196  0.59370  1.0000
  C   C610      1.0  0.40502  0.84609  0.70701  1.0000
  C   C611      1.0  0.17684  0.74847  0.60107  1.0000
  H   H591      1.0  0.07151  0.61882  0.65261  1.0000
  H   H592      1.0  0.38306  0.87242  0.69889  1.0000
  C   C612      1.0  0.40983  0.96684  0.69008  1.0000
  C   C613      1.0  0.38112  0.94702  0.67832  1.0000
  C   C614      1.0  0.39708  0.93533  0.68700  1.0000
  C   C615      1.0  0.07826  0.62445  0.59880  1.0000
  C   C616      1.0  0.22307  0.83351  0.50189  1.0000
  H   H593      1.0  0.39830  0.91867  0.68923  1.0000
  C   C617      1.0  0.38804  0.87206  0.72508  1.0000
  C   C618      1.0  0.41621  0.94738  0.64312  1.0000
  N   N47       1.0  0.08522  0.62680  0.62717  1.0000
  H   H594      1.0  0.45564  0.83863  0.68865  1.0000
  H   H595      1.0  0.32303  0.97371  0.58946  1.0000
  C   C619      1.0  0.23271  0.79200  0.49763  1.0000
  C   C620      1.0  0.32587  0.97108  0.60273  1.0000
  C   C621      1.0  0.27291  0.96918  0.53658  1.0000
  C   C622      1.0  0.08509  0.65673  0.60588  1.0000
  C   C623      1.0  0.02544  0.56925  0.73589  1.0000
  H   H596      1.0  0.00249  0.72768  0.52809  1.0000
  H   H597      1.0  0.24038  0.96976  0.58432  1.0000
  H   H598      1.0  0.32629  0.93800  0.58892  1.0000
  H   H599      1.0  0.45196  0.81282  0.68637  1.0000
  H   H600      1.0  0.18069  0.69040  0.59724  1.0000
  N   N48       1.0  0.29174  0.84772  0.62616  1.0000
  S   S217      1.0  0.14915  0.69423  0.51579  1.0000
  H   H601      1.0  0.13874  0.76711  0.60682  1.0000
  H   H602      1.0  0.44200  0.83448  0.65819  1.0000
  H   H603      1.0  0.21207  0.70802  0.58867  1.0000
  H   H604      1.0  0.42619  0.82160  0.71899  1.0000
  C   C624      1.0  0.17984  0.70672  0.59834  1.0000
  H   H605      1.0  0.25242  0.87300  0.60448  1.0000
  H   H606      1.0  0.16998  0.48743  0.71009  1.0000
  N   N49       1.0  0.33121  0.95145  0.61063  1.0000
  H   H607      1.0  0.99232  0.55727  0.67599  1.0000
  C   C625      1.0  0.39248  0.94724  0.73382  1.0000
  H   H608      1.0  0.27768  0.90407  0.52072  1.0000
  N   N50       1.0  0.26396  0.95060  0.53535  1.0000
  C   C626      1.0  0.30199  0.82663  0.63100  1.0000
  H   H609      1.0  0.03502  0.74403  0.52183  1.0000
  H   H610      1.0  0.22275  0.82328  0.52890  1.0000
  H   H611      1.0  0.29307  0.81928  0.64257  1.0000
  C   C627      1.0  0.23464  0.93206  0.53955  1.0000
  C   C628      1.0  0.00068  0.71126  0.56712  1.0000
  H   H612      1.0  0.45779  0.87888  0.65992  1.0000
  H   H613      1.0  0.45551  0.84278  0.62763  1.0000
  C   C629      1.0  0.47445  0.88850  0.63549  1.0000
  H   H614      1.0  0.23654  0.77573  0.49608  1.0000
  H   H615      1.0  0.08029  0.70305  0.49670  1.0000
  C   C630      1.0  0.00643  0.72286  0.51548  1.0000
  C   C631      1.0  0.13166  0.70030  0.50044  1.0000
  C   C632      1.0  0.45124  0.93612  0.65145  1.0000
  H   H616      1.0  0.08711  0.67284  0.60211  1.0000
  C   C633      1.0  0.40171  0.96159  0.63459  1.0000
  H   H617      1.0  0.38551  0.95931  0.63630  1.0000
  C   C634      1.0  0.03090  0.71752  0.49092  1.0000
  H   H618      1.0  0.23362  0.96224  0.54674  1.0000
  S   S218      1.0  0.99835  0.56963  0.63941  1.0000
  C   C635      1.0  0.46622  0.83737  0.63706  1.0000
  H   H619      1.0  0.31078  0.86182  0.63919  1.0000
  S   S219      1.0  0.42818  0.97929  0.69682  1.0000
  C   C636      1.0  0.02379  0.51087  0.64523  1.0000
  N   N51       1.0  0.03861  0.50296  0.65581  1.0000
  H   H620      1.0  0.30309  0.81709  0.62040  1.0000
  C   C637      1.0  0.13962  0.75034  0.61170  1.0000
  H   H621      1.0  0.34950  0.92675  0.59864  1.0000
  H   H622      1.0  0.44573  0.92090  0.65560  1.0000
  C   C638      1.0  0.24705  0.91562  0.53223  1.0000
  N   N52       1.0  0.47212  0.82701  0.66636  1.0000
  H   H623      1.0  0.37704  0.88593  0.72677  1.0000
  C   C639      1.0  0.46362  0.82369  0.68445  1.0000
  H   H624      1.0  0.09796  0.62439  0.65068  1.0000
  H   H625      1.0  0.09341  0.60049  0.64524  1.0000
  H   H626      1.0  0.01813  0.52732  0.64360  1.0000
  C   C640      1.0  0.26794  0.91688  0.52637  1.0000
  C   C641      1.0  0.28769  0.88426  0.62762  1.0000
  H   H627      1.0  0.41099  0.93414  0.65129  1.0000
  C   C642      1.0  0.27124  0.88748  0.61778  1.0000
  C   C643      1.0  0.29775  0.86413  0.63181  1.0000
  H   H628      1.0  0.13746  0.74827  0.62587  1.0000
  C   C644      1.0  0.27621  0.93458  0.52807  1.0000
  C   C645      1.0  0.22494  0.81866  0.51619  1.0000
  H   H629      1.0  0.38254  0.95009  0.72371  1.0000
  H   H630      1.0  0.26329  0.97853  0.54617  1.0000
  S   S220      1.0  0.28593  0.96784  0.57851  1.0000
  H   H631      1.0  0.36678  0.97767  0.66935  1.0000
  H   H632      1.0  0.45919  0.96972  0.63014  1.0000
  C   C646      1.0  0.47285  0.88053  0.65281  1.0000
  C   C647      1.0  0.24335  0.94964  0.54085  1.0000
  H   H633      1.0  0.27962  0.82870  0.50502  1.0000
  C   C648      1.0  0.44311  0.96719  0.63124  1.0000
  H   H634      1.0  0.31820  0.82659  0.63355  1.0000
  C   C649      1.0  0.33291  0.93367  0.60125  1.0000
  H   H635      1.0  0.27098  0.83770  0.61202  1.0000
  N   N53       1.0  0.43659  0.95031  0.64142  1.0000
  C   C650      1.0  0.04610  0.51682  0.66549  1.0000
  C   C651      1.0  0.39357  0.97844  0.68178  1.0000
  C   C652      1.0  0.01561  0.49785  0.63649  1.0000
  H   H636      1.0  0.39964  0.97829  0.73004  1.0000
  H   H637      1.0  0.07513  0.61527  0.58955  1.0000
  H   H638      1.0  0.14734  0.71031  0.60788  1.0000
  C   C653      1.0  0.33524  0.94827  0.62726  1.0000
  H   H639      1.0  0.06149  0.51018  0.66967  1.0000
  H   H640      1.0  0.29284  0.89727  0.63177  1.0000
  C   C654      1.0  0.99840  0.73238  0.56112  1.0000
  C   C655      1.0  0.26511  0.87063  0.61223  1.0000
  C   C656      1.0  0.11029  0.70049  0.50533  1.0000
  H   H641      1.0  0.09131  0.65620  0.63162  1.0000
  H   H642      1.0  0.12651  0.74504  0.60698  1.0000
  C   C657      1.0  0.33324  0.96500  0.63659  1.0000
  H   H643      1.0  0.29252  0.93536  0.52363  1.0000
  H   H644      1.0  0.32414  0.92170  0.60891  1.0000
  C   C658      1.0  0.41144  0.94526  0.69291  1.0000
  H   H645      1.0  0.27423  0.97893  0.52397  1.0000
  C   C659      1.0  0.42905  0.98170  0.62247  1.0000
  H   H646      1.0  0.10434  0.69775  0.51874  1.0000
  C   C660      1.0  0.40219  0.96313  0.73747  1.0000
  H   H647      1.0  0.21854  0.93090  0.54462  1.0000
  H   H648      1.0  0.02443  0.57253  0.72226  1.0000
  H   H649      1.0  0.42389  0.93622  0.69949  1.0000
  H   H650      1.0  0.20948  0.74553  0.59118  1.0000
  C   C661      1.0  0.19742  0.71659  0.59359  1.0000
  C   C662      1.0  0.19600  0.73757  0.59508  1.0000
  C   C663      1.0  0.08056  0.61545  0.61560  1.0000
  C   C664      1.0  0.39141  0.86439  0.70925  1.0000
  H   H651      1.0  0.17576  0.76490  0.60174  1.0000
  C   C665      1.0  0.08738  0.64722  0.62254  1.0000
  N   N54       1.0  0.15956  0.73878  0.60530  1.0000
  H   H652      1.0  0.26333  0.90300  0.61433  1.0000
  H   H653      1.0  0.07899  0.65244  0.58095  1.0000
  C   C666      1.0  0.08054  0.64523  0.59396  1.0000
  H   H654      1.0  0.33990  0.93271  0.63344  1.0000
  H   H655      1.0  0.07926  0.59915  0.61918  1.0000
  C   C667      1.0  0.16094  0.71810  0.60428  1.0000
  H   H656      1.0  0.04810  0.53180  0.65747  1.0000
  H   H657      1.0  0.28858  0.96488  0.54093  1.0000
  H   H658      1.0  0.05886  0.56533  0.73267  1.0000
  H   H659      1.0  0.04782  0.71764  0.52479  1.0000
  C   C668      1.0  0.09669  0.70355  0.49284  1.0000
  C   C669      1.0  0.27544  0.83581  0.49262  1.0000
  C   C670      1.0  0.04178  0.73036  0.51517  1.0000
  H   H660      1.0  0.05507  0.73490  0.50580  1.0000
  C   C671      1.0  0.26634  0.85655  0.49036  1.0000
  H   H661      1.0  0.47588  0.81715  0.69280  1.0000
  C   C672      1.0  0.22976  0.79777  0.51410  1.0000
  C   C673      1.0  0.99119  0.71587  0.50818  1.0000
  H   H662      1.0  0.23125  0.78618  0.52523  1.0000
  C   C674      1.0  0.41266  0.84375  0.73638  1.0000
  H   H663      1.0  0.48952  0.86717  0.67415  1.0000
  S   S221      1.0  0.09929  0.48362  0.66143  1.0000
  C   C675      1.0  0.99601  0.70965  0.49193  1.0000
  C   C676      1.0  0.48764  0.83582  0.63213  1.0000
  H   H664      1.0  0.99213  0.61090  0.62062  1.0000
  H   H665      1.0  0.14908  0.48492  0.68742  1.0000
  H   H666      1.0  0.16974  0.52312  0.73724  1.0000
  H   H667      1.0  0.98989  0.64722  0.60614  1.0000
  Fe  Fe113     1.0  0.41282  0.70473  0.88668  1.0000
  S   S222      1.0  0.43267  0.67340  0.88960  1.0000
  S   S223      1.0  0.41639  0.72175  0.85959  1.0000
  Fe  Fe114     1.0  0.39619  0.70026  0.92450  1.0000
  S   S224      1.0  0.41477  0.66910  0.92997  1.0000
  S   S225      1.0  0.37640  0.71415  0.94666  1.0000
  Fe  Fe115     1.0  0.44090  0.68313  0.91327  1.0000
  S   S226      1.0  0.47120  0.68155  0.92430  1.0000
  Fe  Fe116     1.0  0.40439  0.66228  0.90593  1.0000
  S   S227      1.0  0.39561  0.63030  0.90465  1.0000
  S   S228      1.0  0.42279  0.71495  0.90943  1.0000
  S   S229      1.0  0.38403  0.69295  0.90135  1.0000
  Fe  Fe117     1.0  0.41996  0.83813  0.81427  1.0000
  S   S230      1.0  0.42912  0.82844  0.78793  1.0000
  S   S231      1.0  0.40548  0.81963  0.83828  1.0000
  Fe  Fe118     1.0  0.43463  0.88123  0.80303  1.0000
  S   S232      1.0  0.44403  0.87457  0.77603  1.0000
  S   S233      1.0  0.44651  0.90922  0.80962  1.0000
  Fe  Fe119     1.0  0.41467  0.86082  0.77876  1.0000
  S   S234      1.0  0.39306  0.87152  0.75857  1.0000
  Fe  Fe120     1.0  0.45776  0.84332  0.78775  1.0000
  C   C677      1.0  0.44833  0.71182  0.95752  1.0000
  S   S235      1.0  0.40372  0.86995  0.80507  1.0000
  S   S236      1.0  0.44964  0.85028  0.81480  1.0000
  Fe  Fe121     1.0  0.14916  0.51138  0.81681  1.0000
  S   S237      1.0  0.13934  0.52279  0.84227  1.0000
  H   H668      1.0  0.38601  0.75229  0.95403  1.0000
  Fe  Fe122     1.0  0.12824  0.54988  0.79717  1.0000
  S   S238      1.0  0.11709  0.56496  0.82092  1.0000
  S   S239      1.0  0.11632  0.56516  0.77265  1.0000
  Fe  Fe123     1.0  0.14903  0.55257  0.82861  1.0000
  S   S240      1.0  0.16828  0.57236  0.83907  1.0000
  Fe  Fe124     1.0  0.10847  0.53398  0.83241  1.0000
  S   S241      1.0  0.07795  0.52669  0.84724  1.0000
  S   S242      1.0  0.16096  0.54034  0.80359  1.0000
  S   S243      1.0  0.11749  0.51979  0.80830  1.0000
  Fe  Fe125     1.0  0.29772  0.56851  0.90357  1.0000
  S   S244      1.0  0.26725  0.56649  0.92090  1.0000
  S   S245      1.0  0.30911  0.60033  0.89908  1.0000
  Fe  Fe126     1.0  0.30326  0.52243  0.89928  1.0000
  S   S246      1.0  0.27431  0.51763  0.91674  1.0000
  H   H669      1.0  0.14206  0.49198  0.78907  1.0000
  Fe  Fe127     1.0  0.25955  0.54693  0.90230  1.0000
  S   S247      1.0  0.22840  0.54006  0.89652  1.0000
  Fe  Fe128     1.0  0.28447  0.53733  0.93339  1.0000
  S   S248      1.0  0.28504  0.52463  0.96126  1.0000
  S   S249      1.0  0.28854  0.55109  0.88389  1.0000
  S   S250      1.0  0.31503  0.54000  0.91710  1.0000
  C   C678      1.0  0.47736  0.96018  0.83627  1.0000
  H   H670      1.0  0.07269  0.57247  0.76441  1.0000
  C   C679      1.0  0.40836  0.96392  0.80048  1.0000
  C   C680      1.0  0.26733  0.56165  0.97299  1.0000
  H   H671      1.0  0.26453  0.49834  0.86016  1.0000
  H   H672      1.0  0.26532  0.56774  0.95988  1.0000
  H   H673      1.0  0.41133  0.90899  0.76340  1.0000
  H   H674      1.0  0.32676  0.54704  0.95300  1.0000
  N   N55       1.0  0.04634  0.56096  0.75904  1.0000
  C   C681      1.0  0.32069  0.56157  0.95793  1.0000
  C   C682      1.0  0.02871  0.56107  0.77058  1.0000
  C   C683      1.0  0.18530  0.56294  0.85476  1.0000
  C   C684      1.0  0.20072  0.57460  0.85671  1.0000
  C   C685      1.0  0.21436  0.56771  0.86920  1.0000
  C   C686      1.0  0.21237  0.54929  0.88011  1.0000
  C   C687      1.0  0.19689  0.53769  0.87816  1.0000
  C   C688      1.0  0.18356  0.54435  0.86546  1.0000
  H   H675      1.0  0.20213  0.58905  0.84853  1.0000
  H   H676      1.0  0.22611  0.57685  0.87063  1.0000
  H   H677      1.0  0.19523  0.52344  0.88656  1.0000
  H   H678      1.0  0.17180  0.53521  0.86412  1.0000
  C   C689      1.0  0.05555  0.53700  0.83707  1.0000
  C   C690      1.0  0.03707  0.52832  0.84191  1.0000
  C   C691      1.0  0.01900  0.53669  0.83415  1.0000
  C   C692      1.0  0.01917  0.55417  0.82185  1.0000
  C   C693      1.0  0.03764  0.56291  0.81715  1.0000
  C   C694      1.0  0.05583  0.55419  0.82450  1.0000
  H   H679      1.0  0.03669  0.51505  0.85166  1.0000
  H   H680      1.0  0.42830  0.93751  0.76934  1.0000
  H   H681      1.0  0.06992  0.56106  0.82066  1.0000
  C   C695      1.0  0.47893  0.73427  0.89790  1.0000
  C   C696      1.0  0.42427  0.97671  0.75405  1.0000
  H   H682      1.0  0.15374  0.53603  0.76464  1.0000
  H   H683      1.0  0.27815  0.49200  0.89019  1.0000
  S   S251      1.0  0.99681  0.56600  0.81211  1.0000
  C   C697      1.0  0.39738  0.70387  0.97497  1.0000
  H   H684      1.0  0.46257  0.73658  0.85948  1.0000
  C   C698      1.0  0.43673  0.93565  0.80450  1.0000
  C   C699      1.0  0.41564  0.94254  0.80320  1.0000
  H   H685      1.0  0.03789  0.57656  0.80778  1.0000
  H   H686      1.0  0.40486  0.93145  0.80474  1.0000
  C   C700      1.0  0.39036  0.71952  0.96230  1.0000
  C   C701      1.0  0.45719  0.70394  0.98694  1.0000
  C   C702      1.0  0.45767  0.67631  0.97088  1.0000
  C   C703      1.0  0.27575  0.54092  0.97708  1.0000
  H   H687      1.0  0.48722  0.68038  0.88808  1.0000
  C   C704      1.0  0.37085  0.62224  0.90506  1.0000
  C   C705      1.0  0.35265  0.63636  0.90335  1.0000
  C   C706      1.0  0.33381  0.62931  0.90205  1.0000
  C   C707      1.0  0.33276  0.60806  0.90269  1.0000
  C   C708      1.0  0.35080  0.59390  0.90497  1.0000
  C   C709      1.0  0.36971  0.60097  0.90601  1.0000
  H   H688      1.0  0.35320  0.65274  0.90262  1.0000
  H   H689      1.0  0.31998  0.64043  0.90031  1.0000
  H   H690      1.0  0.35037  0.57753  0.90536  1.0000
  H   H691      1.0  0.38366  0.58988  0.90732  1.0000
  H   H692      1.0  0.46690  0.94503  0.80320  1.0000
  C   C710      1.0  0.45049  0.95025  0.80266  1.0000
  H   H693      1.0  0.30150  0.48676  0.94913  1.0000
  H   H694      1.0  0.24279  0.50319  0.87662  1.0000
  N   N56       1.0  0.48002  0.73388  0.88068  1.0000
  C   C711      1.0  0.39955  0.74514  0.97764  1.0000
  C   C712      1.0  0.04491  0.56514  0.74187  1.0000
  H   H695      1.0  0.46235  0.97000  0.83653  1.0000
  C   C713      1.0  0.41435  0.74904  0.85420  1.0000
  C   C714      1.0  0.42173  0.75729  0.83752  1.0000
  C   C715      1.0  0.41986  0.77887  0.83260  1.0000
  C   C716      1.0  0.41020  0.79243  0.84426  1.0000
  C   C717      1.0  0.40292  0.78416  0.86094  1.0000
  C   C718      1.0  0.40517  0.76260  0.86596  1.0000
  H   H696      1.0  0.42890  0.74692  0.82834  1.0000
  H   H697      1.0  0.42557  0.78500  0.81974  1.0000
  H   H698      1.0  0.39535  0.79451  0.87003  1.0000
  H   H699      1.0  0.39933  0.75651  0.87881  1.0000
  N   N57       1.0  0.10413  0.56549  0.86756  1.0000
  C   C719      1.0  0.11986  0.57732  0.86352  1.0000
  C   C720      1.0  0.08530  0.57225  0.86167  1.0000
  C   C721      1.0  0.11715  0.59619  0.85291  1.0000
  C   C722      1.0  0.08203  0.59106  0.85105  1.0000
  C   C723      1.0  0.09811  0.60307  0.84663  1.0000
  C   C724      1.0  0.10710  0.54591  0.87891  1.0000
  H   H700      1.0  0.13483  0.57205  0.86818  1.0000
  H   H701      1.0  0.07278  0.56290  0.86490  1.0000
  H   H702      1.0  0.13000  0.60509  0.84926  1.0000
  H   H703      1.0  0.06725  0.59604  0.84603  1.0000
  H   H704      1.0  0.09596  0.61747  0.83811  1.0000
  H   H705      1.0  0.10093  0.54846  0.89227  1.0000
  H   H706      1.0  0.09886  0.53425  0.87503  1.0000
  H   H707      1.0  0.12383  0.53921  0.87839  1.0000
  S   S252      1.0  0.32207  0.49381  0.88922  1.0000
  H   H708      1.0  0.25575  0.59077  0.98267  1.0000
  C   C725      1.0  0.46402  0.66188  0.98451  1.0000
  H   H709      1.0  0.10383  0.57203  0.73917  1.0000
  H   H710      1.0  0.44732  0.74069  0.87939  1.0000
  C   C726      1.0  0.06686  0.55746  0.76504  1.0000
  C   C727      1.0  0.31100  0.58106  0.98132  1.0000
  C   C728      1.0  0.22858  0.49079  0.84949  1.0000
  C   C729      1.0  0.30426  0.59866  0.97028  1.0000
  C   C730      1.0  0.26192  0.57465  0.98589  1.0000
  H   H711      1.0  0.20797  0.54175  0.82278  1.0000
  C   C731      1.0  0.00739  0.56922  0.74758  1.0000
  H   H712      1.0  0.31549  0.57793  0.93298  1.0000
  H   H713      1.0  0.46242  0.71424  0.94834  1.0000
  N   N58       1.0  0.23519  0.50888  0.85119  1.0000
  H   H714      1.0  0.46678  0.64547  0.98337  1.0000
  C   C732      1.0  0.30593  0.59753  0.95278  1.0000
  H   H715      1.0  0.06639  0.54981  0.77847  1.0000
  H   H716      1.0  0.25369  0.52435  0.86392  1.0000
  C   C733      1.0  0.46145  0.73133  0.87346  1.0000
  C   C734      1.0  0.14611  0.54076  0.75326  1.0000
  H   H717      1.0  0.45558  0.67084  0.95915  1.0000
  H   H718      1.0  0.11069  0.48909  0.84109  1.0000
  C   C735      1.0  0.39589  0.92762  0.74313  1.0000
  N   N59       1.0  0.36756  0.82967  0.80640  1.0000
  C   C736      1.0  0.37446  0.80947  0.81207  1.0000
  C   C737      1.0  0.36924  0.83656  0.78926  1.0000
  C   C738      1.0  0.38412  0.79579  0.80052  1.0000
  C   C739      1.0  0.37860  0.82325  0.77733  1.0000
  C   C740      1.0  0.38623  0.80278  0.78303  1.0000
  C   C741      1.0  0.35745  0.84369  0.81877  1.0000
  H   H719      1.0  0.37294  0.80394  0.82565  1.0000
  H   H720      1.0  0.36361  0.85253  0.78468  1.0000
  H   H721      1.0  0.39014  0.77997  0.80517  1.0000
  H   H722      1.0  0.38021  0.82894  0.76377  1.0000
  H   H723      1.0  0.39390  0.79245  0.77391  1.0000
  H   H724      1.0  0.34094  0.84139  0.82248  1.0000
  H   H725      1.0  0.36552  0.84077  0.83043  1.0000
  H   H726      1.0  0.35810  0.86014  0.81345  1.0000
  C   C742      1.0  0.44321  0.97157  0.80019  1.0000
  C   C743      1.0  0.47862  0.93890  0.83618  1.0000
  C   C744      1.0  0.00902  0.56520  0.76504  1.0000
  N   N60       1.0  0.36839  0.63613  0.86199  1.0000
  C   C745      1.0  0.38935  0.63385  0.86276  1.0000
  C   C746      1.0  0.35678  0.65538  0.86115  1.0000
  C   C747      1.0  0.39918  0.65109  0.86284  1.0000
  C   C748      1.0  0.36611  0.67295  0.86128  1.0000
  C   C749      1.0  0.38747  0.67075  0.86206  1.0000
  C   C750      1.0  0.35856  0.61795  0.86123  1.0000
  H   H727      1.0  0.39850  0.61858  0.86386  1.0000
  H   H728      1.0  0.34015  0.65718  0.86064  1.0000
  H   H729      1.0  0.41567  0.64911  0.86401  1.0000
  H   H730      1.0  0.35686  0.68817  0.86092  1.0000
  H   H731      1.0  0.39491  0.68423  0.86227  1.0000
  H   H732      1.0  0.36007  0.61466  0.84783  1.0000
  H   H733      1.0  0.36588  0.60412  0.86917  1.0000
  H   H734      1.0  0.34176  0.62028  0.86639  1.0000
  C   C751      1.0  0.12763  0.55479  0.75378  1.0000
  H   H735      1.0  0.43721  0.70587  0.95087  1.0000
  H   H736      1.0  0.00484  0.52988  0.83792  1.0000
  H   H737      1.0  0.46462  0.93201  0.83635  1.0000
  C   C752      1.0  0.11795  0.56098  0.73893  1.0000
  H   H738      1.0  0.45916  0.71479  0.87568  1.0000
  C   C753      1.0  0.39167  0.74011  0.96362  1.0000
  H   H739      1.0  0.44053  0.72692  0.96146  1.0000
  H   H740      1.0  0.46446  0.73267  0.90617  1.0000
  C   C754      1.0  0.31424  0.57891  0.94655  1.0000
  N   N61       1.0  0.31889  0.56277  0.97509  1.0000
  H   H741      1.0  0.29749  0.61296  0.97535  1.0000
  C   C755      1.0  0.41825  0.94040  0.75933  1.0000
  C   C756      1.0  0.20708  0.50891  0.82824  1.0000
  H   H742      1.0  0.47786  0.87064  0.79349  1.0000
  H   H743      1.0  0.42090  0.83574  0.74681  1.0000
  N   N62       1.0  0.45419  0.69702  0.97225  1.0000
  C   C757      1.0  0.22817  0.52696  0.84158  1.0000
  C   C758      1.0  0.21444  0.49052  0.83798  1.0000
  H   H744      1.0  0.39198  0.96921  0.79975  1.0000
  C   C759      1.0  0.40877  0.92417  0.75601  1.0000
  H   H745      1.0  0.02974  0.55797  0.78418  1.0000
  H   H746      1.0  0.07828  0.54738  0.75705  1.0000
  H   H747      1.0  0.30070  0.61096  0.94400  1.0000
  H   H748      1.0  0.19607  0.50890  0.81933  1.0000
  C   C760      1.0  0.24980  0.50868  0.86350  1.0000
  H   H749      1.0  0.23323  0.54136  0.84302  1.0000
  N   N63       1.0  0.41495  0.95956  0.75005  1.0000
  H   H750      1.0  0.39615  0.68793  0.97412  1.0000
  C   C761      1.0  0.21393  0.52727  0.83005  1.0000
  H   H751      1.0  0.43770  0.97108  0.76139  1.0000
  H   H752      1.0  0.99513  0.56539  0.77432  1.0000
  H   H753      1.0  0.32289  0.53019  0.98266  1.0000
  C   C762      1.0  0.42206  0.97851  0.79928  1.0000
  H   H754      1.0  0.99216  0.57238  0.74315  1.0000
  H   H755      1.0  0.08126  0.48801  0.82697  1.0000
  H   H756      1.0  0.34336  0.73134  0.97792  1.0000
  C   C763      1.0  0.15511  0.53341  0.73777  1.0000
  H   H757      1.0  0.34337  0.54345  0.98682  1.0000
  C   C764      1.0  0.39864  0.86182  0.73868  1.0000
  H   H758      1.0  0.40018  0.76118  0.97865  1.0000
  C   C765      1.0  0.32634  0.54455  0.98670  1.0000
  H   H759      1.0  0.38858  0.91508  0.74038  1.0000
  H   H760      1.0  0.15254  0.48861  0.75107  1.0000
  H   H761      1.0  0.34813  0.69366  0.98682  1.0000
  H   H762      1.0  0.57813  0.98635  0.16464  1.0000
  Fe  Fe129     1.0  0.63162  0.19838  0.04928  1.0000
  S   S253      1.0  0.62618  0.23260  0.04194  1.0000
  S   S254      1.0  0.64362  0.17494  0.03111  1.0000
  Fe  Fe130     1.0  0.62019  0.20107  0.08737  1.0000
  S   S255      1.0  0.61389  0.23610  0.08291  1.0000
  S   S256      1.0  0.61520  0.18460  0.11465  1.0000
  Fe  Fe131     1.0  0.59749  0.23113  0.06116  1.0000
  S   S257      1.0  0.56687  0.24956  0.05425  1.0000
  Fe  Fe132     1.0  0.64326  0.23467  0.06411  1.0000
  S   S258      1.0  0.67218  0.25149  0.05868  1.0000
  S   S259      1.0  0.60183  0.19658  0.06692  1.0000
  S   S260      1.0  0.65058  0.19995  0.07021  1.0000
  Fe  Fe133     1.0  0.60926  0.06619  0.16095  1.0000
  S   S261      1.0  0.60087  0.07046  0.18891  1.0000
  S   S262      1.0  0.61080  0.08783  0.13561  1.0000
  Fe  Fe134     1.0  0.61150  0.01855  0.16847  1.0000
  S   S263      1.0  0.60313  0.01892  0.19663  1.0000
  Fe  Fe135     1.0  0.57995  0.04657  0.18973  1.0000
  S   S264      1.0  0.54717  0.04920  0.20264  1.0000
  Fe  Fe136     1.0  0.62486  0.04235  0.19403  1.0000
  S   S265      1.0  0.64712  0.03377  0.21389  1.0000
  S   S266      1.0  0.58619  0.04423  0.16169  1.0000
  S   S267      1.0  0.63523  0.04001  0.16613  1.0000
  C   C766      1.0  0.56232  0.18003  0.11550  1.0000
  Fe  Fe137     1.0  0.75377  0.38327  0.05708  1.0000
  S   S268      1.0  0.78571  0.36450  0.05640  1.0000
  S   S269      1.0  0.75339  0.41725  0.04640  1.0000
  Fe  Fe138     1.0  0.73186  0.34471  0.07037  1.0000
  S   S270      1.0  0.76236  0.32386  0.07130  1.0000
  S   S271      1.0  0.70089  0.33211  0.07883  1.0000
  Fe  Fe139     1.0  0.77367  0.34908  0.08215  1.0000
  S   S272      1.0  0.78872  0.34430  0.10681  1.0000
  Fe  Fe140     1.0  0.77137  0.34141  0.04558  1.0000
  S   S273      1.0  0.78413  0.32368  0.02333  1.0000
  S   S274      1.0  0.74221  0.36890  0.08335  1.0000
  S   S275      1.0  0.74040  0.36122  0.04415  1.0000
  H   H763      1.0  0.57440  0.17540  0.10490  1.0000
  Fe  Fe141     1.0  0.93724  0.35080  0.15477  1.0000
  S   S276      1.0  0.93194  0.37622  0.17124  1.0000
  Fe  Fe142     1.0  0.89526  0.36473  0.13976  1.0000
  S   S277      1.0  0.88697  0.39147  0.15519  1.0000
  S   S278      1.0  0.87949  0.36049  0.11688  1.0000
  Fe  Fe143     1.0  0.92032  0.39611  0.14831  1.0000
  S   S279      1.0  0.93095  0.42674  0.13928  1.0000
  Fe  Fe144     1.0  0.89923  0.36905  0.17693  1.0000
  S   S280      1.0  0.88289  0.37012  0.20387  1.0000
  S   S281      1.0  0.92814  0.37129  0.13129  1.0000
  S   S282      1.0  0.90510  0.34172  0.16211  1.0000
  H   H764      1.0  0.79361  0.38608  0.08585  1.0000
  C   C767      1.0  0.90995  0.45017  0.18364  1.0000
  C   C768      1.0  0.91436  0.43671  0.17110  1.0000
  C   C769      1.0  0.92756  0.44165  0.15609  1.0000
  C   C770      1.0  0.93703  0.45947  0.15396  1.0000
  S   S283      1.0  0.96533  0.32578  0.15456  1.0000
  H   H765      1.0  0.89895  0.44692  0.19484  1.0000
  H   H766      1.0  0.90690  0.42299  0.17271  1.0000
  H   H767      1.0  0.94733  0.46322  0.14241  1.0000
  C   C771      1.0  0.62738  0.06236  0.23521  1.0000
  C   C772      1.0  0.91802  0.34871  0.21693  1.0000
  C   C773      1.0  0.89793  0.35929  0.22047  1.0000
  H   H768      1.0  0.78978  0.31307  0.98906  1.0000
  N   N64       1.0  0.68786  0.19862  0.01832  1.0000
  H   H769      1.0  0.92415  0.34627  0.20392  1.0000
  H   H770      1.0  0.81986  0.41213  0.06216  1.0000
  C   C774      1.0  0.75042  0.43756  0.05912  1.0000
  C   C775      1.0  0.74149  0.43548  0.07622  1.0000
  C   C776      1.0  0.73929  0.45216  0.08581  1.0000
  H   H771      1.0  0.98714  0.31650  0.18744  1.0000
  C   C777      1.0  0.64129  0.04412  0.23344  1.0000
  C   C778      1.0  0.75728  0.45634  0.05178  1.0000
  H   H772      1.0  0.73602  0.42114  0.08198  1.0000
  H   H773      1.0  0.73226  0.45051  0.09899  1.0000
  H   H774      1.0  0.54866  0.22609  0.02546  1.0000
  H   H775      1.0  0.76433  0.45802  0.03861  1.0000
  C   C779      1.0  0.81383  0.34948  0.10935  1.0000
  C   C780      1.0  0.81900  0.34910  0.12594  1.0000
  C   C781      1.0  0.83883  0.35282  0.12854  1.0000
  C   C782      1.0  0.85381  0.35680  0.11454  1.0000
  C   C783      1.0  0.84857  0.35732  0.09796  1.0000
  C   C784      1.0  0.82869  0.35380  0.09535  1.0000
  H   H776      1.0  0.80766  0.34575  0.13688  1.0000
  H   H777      1.0  0.84261  0.35230  0.14138  1.0000
  H   H778      1.0  0.86002  0.36031  0.08703  1.0000
  H   H779      1.0  0.82506  0.35398  0.08252  1.0000
  C   C785      1.0  0.78582  0.33905  0.00328  1.0000
  H   H780      1.0  0.78202  0.36787  0.01370  1.0000
  C   C786      1.0  0.53434  0.03899  0.18887  1.0000
  C   C787      1.0  0.54387  0.02118  0.18171  1.0000
  C   C788      1.0  0.53474  0.01408  0.16931  1.0000
  C   C789      1.0  0.51624  0.02494  0.16388  1.0000
  C   C790      1.0  0.50667  0.04267  0.17113  1.0000
  C   C791      1.0  0.51556  0.04956  0.18379  1.0000
  H   H781      1.0  0.55846  0.01300  0.18558  1.0000
  H   H782      1.0  0.54208  0.00028  0.16384  1.0000
  C   C792      1.0  0.92787  0.34169  0.09742  1.0000
  H   H783      1.0  0.50847  0.06366  0.18896  1.0000
  H   H784      1.0  0.51731  0.21028  0.03455  1.0000
  H   H785      1.0  0.66945  0.24894  0.02175  1.0000
  C   C793      1.0  0.93181  0.39544  0.22542  1.0000
  H   H786      1.0  0.55144  0.16840  0.11814  1.0000
  N   N65       1.0  0.93034  0.32573  0.11039  1.0000
  H   H787      1.0  0.62010  0.07058  0.22433  1.0000
  H   H788      1.0  0.89444  0.46494  0.14038  1.0000
  C   C794      1.0  0.67927  0.27461  0.06384  1.0000
  C   C795      1.0  0.69938  0.27949  0.05770  1.0000
  C   C796      1.0  0.70606  0.29724  0.06177  1.0000
  C   C797      1.0  0.69271  0.31042  0.07212  1.0000
  C   C798      1.0  0.67252  0.30569  0.07809  1.0000
  C   C799      1.0  0.66584  0.28791  0.07403  1.0000
  H   H789      1.0  0.70994  0.26936  0.04981  1.0000
  H   H790      1.0  0.72164  0.30057  0.05710  1.0000
  H   H791      1.0  0.66201  0.31577  0.08606  1.0000
  H   H792      1.0  0.65033  0.28449  0.07883  1.0000
  C   C800      1.0  0.61460  0.15756  0.12028  1.0000
  C   C801      1.0  0.61239  0.14923  0.13767  1.0000
  C   C802      1.0  0.61135  0.12794  0.14265  1.0000
  C   C803      1.0  0.61238  0.11474  0.13027  1.0000
  C   C804      1.0  0.61439  0.12313  0.11290  1.0000
  C   C805      1.0  0.61554  0.14437  0.10792  1.0000
  H   H793      1.0  0.61160  0.15928  0.14735  1.0000
  H   H794      1.0  0.60978  0.12176  0.15605  1.0000
  H   H795      1.0  0.61524  0.11310  0.10320  1.0000
  H   H796      1.0  0.61722  0.15050  0.09450  1.0000
  C   C806      1.0  0.50387  0.22590  0.06834  1.0000
  C   C807      1.0  0.50512  0.24619  0.06065  1.0000
  C   C808      1.0  0.52461  0.25291  0.05575  1.0000
  C   C809      1.0  0.54303  0.23950  0.05860  1.0000
  C   C810      1.0  0.54187  0.21885  0.06540  1.0000
  C   C811      1.0  0.52232  0.21211  0.07032  1.0000
  H   H797      1.0  0.71135  0.17759  0.02999  1.0000
  H   H798      1.0  0.52537  0.26887  0.05041  1.0000
  H   H799      1.0  0.55595  0.20830  0.06752  1.0000
  H   H800      1.0  0.52148  0.19643  0.07639  1.0000
  C   C812      1.0  0.75547  0.47285  0.06145  1.0000
  H   H801      1.0  0.62739  0.21081  0.00726  1.0000
  H   H802      1.0  0.67003  0.24964  0.99031  1.0000
  H   H803      1.0  0.69407  0.18495  0.99514  1.0000
  C   C813      1.0  0.94428  0.35277  0.09065  1.0000
  H   H804      1.0  0.52476  0.25638  0.09720  1.0000
  H   H805      1.0  0.74170  0.31096  0.01624  1.0000
  C   C814      1.0  0.53049  0.20509  0.11220  1.0000
  H   H806      1.0  0.58031  0.21339  0.10426  1.0000
  H   H807      1.0  0.58954  0.99301  0.12656  1.0000
  H   H808      1.0  0.50370  0.03713  0.22147  1.0000
  H   H809      1.0  0.66295  0.15028  0.00579  1.0000
  H   H810      1.0  0.98080  0.32817  0.20688  1.0000
  H   H811      1.0  0.95063  0.30836  0.12770  1.0000
  H   H812      1.0  0.88138  0.41785  0.22825  1.0000
  N   N66       1.0  0.57277  0.05225  0.12251  1.0000
  C   C815      1.0  0.55801  0.03930  0.12685  1.0000
  C   C816      1.0  0.59344  0.04433  0.11983  1.0000
  C   C817      1.0  0.56376  0.01784  0.12811  1.0000
  C   C818      1.0  0.59974  0.02292  0.12125  1.0000
  C   C819      1.0  0.58477  0.00964  0.12528  1.0000
  C   C820      1.0  0.56654  0.07465  0.12211  1.0000
  H   H813      1.0  0.54166  0.04547  0.12962  1.0000
  H   H814      1.0  0.60522  0.05454  0.11718  1.0000
  C   C821      1.0  0.89635  0.41129  0.23240  1.0000
  H   H815      1.0  0.86888  0.46787  0.11995  1.0000
  C   C822      1.0  0.56133  0.23130  0.99905  1.0000
  H   H816      1.0  0.55106  0.07964  0.11758  1.0000
  H   H817      1.0  0.56596  0.07900  0.13514  1.0000
  H   H818      1.0  0.57792  0.08334  0.11341  1.0000
  H   H819      1.0  0.68557  0.17875  0.04199  1.0000
  H   H820      1.0  0.79538  0.40722  0.05686  1.0000
  H   H821      1.0  0.55199  0.00767  0.13160  1.0000
  H   H822      1.0  0.61617  0.01663  0.11974  1.0000
  C   C823      1.0  0.91886  0.46840  0.18116  1.0000
  C   C824      1.0  0.78385  0.36057  0.00218  1.0000
  C   C825      1.0  0.91276  0.31486  0.11799  1.0000
  N   N67       1.0  0.52694  0.22288  0.00886  1.0000
  S   S284      1.0  0.50576  0.01651  0.14762  1.0000
  N   N68       1.0  0.72530  0.29844  0.10957  1.0000
  C   C826      1.0  0.73739  0.28429  0.10003  1.0000
  C   C827      1.0  0.70470  0.29702  0.11462  1.0000
  C   C828      1.0  0.72891  0.26809  0.09545  1.0000
  C   C829      1.0  0.69576  0.28091  0.11041  1.0000
  C   C830      1.0  0.70795  0.26643  0.10070  1.0000
  C   C831      1.0  0.73404  0.31581  0.11384  1.0000
  H   H823      1.0  0.75361  0.28564  0.09567  1.0000
  H   H824      1.0  0.69489  0.30880  0.12145  1.0000
  H   H825      1.0  0.73837  0.25721  0.08754  1.0000
  H   H826      1.0  0.67928  0.28018  0.11399  1.0000
  H   H827      1.0  0.70098  0.25436  0.09676  1.0000
  H   H828      1.0  0.72762  0.33040  0.10629  1.0000
  H   H829      1.0  0.73001  0.31734  0.12766  1.0000
  H   H830      1.0  0.75131  0.31389  0.11101  1.0000
  C   C832      1.0  0.52044  0.22512  0.10762  1.0000
  C   C833      1.0  0.54567  0.22667  0.01235  1.0000
  H   H831      1.0  0.94209  0.36570  0.08064  1.0000
  H   H832      1.0  0.98015  0.32725  0.11603  1.0000
  C   C834      1.0  0.67539  0.23541  0.99813  1.0000
  C   C835      1.0  0.53230  0.24100  0.10154  1.0000
  H   H833      1.0  0.90044  0.31723  0.10939  1.0000
  C   C836      1.0  0.96327  0.34747  0.09726  1.0000
  H   H834      1.0  0.80037  0.43315  0.05494  1.0000
  H   H835      1.0  0.77678  0.45307  0.10890  1.0000
  C   C837      1.0  0.63615  0.19893  0.00003  1.0000
  H   H836      1.0  0.57923  0.03931  0.22566  1.0000
  C   C838      1.0  0.56347  0.21662  0.10525  1.0000
  H   H837      1.0  0.94562  0.33280  0.22747  1.0000
  H   H838      1.0  0.68081  0.21618  0.03937  1.0000
  C   C839      1.0  0.67496  0.23501  0.01573  1.0000
  C   C840      1.0  0.68136  0.21638  0.02568  1.0000
  C   C841      1.0  0.55396  0.23677  0.10038  1.0000
  C   C842      1.0  0.94886  0.32053  0.11701  1.0000
  H   H839      1.0  0.50361  0.22810  0.10800  1.0000
  C   C843      1.0  0.52302  0.22424  0.99229  1.0000
  C   C844      1.0  0.96562  0.33121  0.11049  1.0000
  H   H840      1.0  0.52113  0.19276  0.11644  1.0000
  N   N69       1.0  0.79379  0.41869  0.08063  1.0000
  C   C845      1.0  0.78965  0.43720  0.08709  1.0000
  C   C846      1.0  0.79010  0.40080  0.09088  1.0000
  C   C847      1.0  0.78095  0.43819  0.10410  1.0000
  C   C848      1.0  0.78157  0.40119  0.10798  1.0000
  C   C849      1.0  0.77685  0.42005  0.11457  1.0000
  C   C850      1.0  0.80292  0.41778  0.06279  1.0000
  H   H841      1.0  0.79234  0.45146  0.07896  1.0000
  H   H842      1.0  0.94431  0.38956  0.21615  1.0000
  S   S285      1.0  0.62254  0.98923  0.15620  1.0000
  H   H843      1.0  0.77855  0.38692  0.11599  1.0000
  H   H844      1.0  0.76986  0.42061  0.12772  1.0000
  C   C851      1.0  0.78823  0.32973  0.98825  1.0000
  H   H845      1.0  0.91793  0.29797  0.12071  1.0000
  H   H846      1.0  0.56335  0.24889  0.09523  1.0000
  C   C852      1.0  0.73712  0.33978  0.99956  1.0000
  H   H847      1.0  0.73665  0.34896  0.00984  1.0000
  H   H848      1.0  0.91300  0.34626  0.09250  1.0000
  C   C853      1.0  0.74121  0.30617  0.99009  1.0000
  N   N70       1.0  0.55177  0.20105  0.11086  1.0000
  C   C854      1.0  0.51059  0.21835  0.02291  1.0000
  C   C855      1.0  0.93015  0.34110  0.23026  1.0000
  H   H849      1.0  0.57623  0.23409  0.00190  1.0000
  H   H850      1.0  0.97601  0.35619  0.09242  1.0000
  H   H851      1.0  0.49101  0.25704  0.05932  1.0000
  C   C856      1.0  0.64491  0.18012  0.00867  1.0000
  C   C857      1.0  0.65624  0.16486  0.99924  1.0000
  H   H852      1.0  0.57018  0.17944  0.12705  1.0000
  C   C858      1.0  0.69447  0.17924  0.02897  1.0000
  H   H853      1.0  0.50054  0.20802  0.01940  1.0000
  C   C859      1.0  0.74647  0.47083  0.07852  1.0000
  H   H854      1.0  0.91022  0.40579  0.20688  1.0000
  H   H855      1.0  0.75425  0.46937  0.00814  1.0000
  H   H856      1.0  0.64957  0.98867  0.18900  1.0000
  C   C860      1.0  0.93289  0.47269  0.16659  1.0000
  C   C861      1.0  0.73990  0.31821  0.00328  1.0000
  C   C862      1.0  0.91267  0.40461  0.22020  1.0000
  H   H857      1.0  0.90561  0.32096  0.13009  1.0000
  H   H858      1.0  0.50067  0.23294  0.02605  1.0000
  H   H859      1.0  0.69109  0.16572  0.02360  1.0000
  C   C863      1.0  0.86691  0.47920  0.12882  1.0000
  H   H860      1.0  0.74374  0.28943  0.99276  1.0000
  C   C864      1.0  0.98826  0.33038  0.19343  1.0000
  H   H861      1.0  0.50803  0.22165  0.98950  1.0000
  H   H862      1.0  0.49303  0.05171  0.16643  1.0000
  H   H863      1.0  0.64729  0.98895  0.22037  1.0000
  H   H864      1.0  0.98909  0.36104  0.15252  1.0000
  C   C865      1.0  0.68894  0.19901  0.00100  1.0000
  C   C866      1.0  0.88145  0.47746  0.14034  1.0000
  C   C867      1.0  0.68256  0.21734  0.99066  1.0000
  H   H865      1.0  0.97930  0.34381  0.18624  1.0000
  H   H866      1.0  0.82969  0.48182  0.11688  1.0000
  H   H867      1.0  0.73907  0.37878  0.98924  1.0000
  C   C868      1.0  0.49362  0.02568  0.22690  1.0000
  C   C869      1.0  0.88999  0.36204  0.23744  1.0000
  H   H868      1.0  0.49093  0.01672  0.20262  1.0000
  Fe  Fe145     1.0  0.80016  0.07016  0.41366  1.0000
  S   S286      1.0  0.76559  0.06954  0.42066  1.0000
  S   S287      1.0  0.81040  0.10100  0.41621  1.0000
  Fe  Fe146     1.0  0.80711  0.02479  0.40648  1.0000
  S   S288      1.0  0.77370  0.02085  0.41337  1.0000
  C   C870      1.0  0.72845  0.99092  0.36885  1.0000
  Fe  Fe147     1.0  0.76714  0.05210  0.39807  1.0000
  S   S289      1.0  0.74992  0.05750  0.37449  1.0000
  Fe  Fe148     1.0  0.77532  0.03838  0.43522  1.0000
  S   S290      1.0  0.76473  0.02561  0.46241  1.0000
  S   S291      1.0  0.80095  0.05520  0.39002  1.0000
  S   S292      1.0  0.80955  0.03986  0.42943  1.0000
  Fe  Fe149     1.0  0.63505  0.04614  0.30742  1.0000
  S   S293      1.0  0.61625  0.05028  0.33291  1.0000
  S   S294      1.0  0.62722  0.06960  0.28491  1.0000
  Fe  Fe150     1.0  0.65726  0.00441  0.32056  1.0000
  S   S295      1.0  0.63973  0.00463  0.34676  1.0000
  N   N71       1.0  0.81188  0.06563  0.47713  1.0000
  Fe  Fe151     1.0  0.61154  0.01734  0.33341  1.0000
  S   S296      1.0  0.58189  0.00295  0.33785  1.0000
  Fe  Fe152     1.0  0.64644  0.03734  0.34377  1.0000
  S   S297      1.0  0.65680  0.04885  0.36624  1.0000
  S   S298      1.0  0.62870  0.01400  0.30740  1.0000
  S   S299      1.0  0.66562  0.03638  0.31808  1.0000
  Fe  Fe153     1.0  0.91656  0.38605  0.30690  1.0000
  S   S300      1.0  0.94711  0.37414  0.29251  1.0000
  S   S301      1.0  0.90545  0.42001  0.29846  1.0000
  Fe  Fe154     1.0  0.91108  0.34258  0.32565  1.0000
  S   S302      1.0  0.94111  0.32810  0.31232  1.0000
  S   S303      1.0  0.89100  0.32289  0.34507  1.0000
  Fe  Fe155     1.0  0.95368  0.35569  0.31757  1.0000
  H   H869      1.0  0.98126  0.38586  0.30274  1.0000
  Fe  Fe156     1.0  0.93138  0.34795  0.28865  1.0000
  S   S304      1.0  0.93849  0.33516  0.26336  1.0000
  S   S305      1.0  0.92425  0.36933  0.33244  1.0000
  S   S306      1.0  0.90016  0.36073  0.30137  1.0000
  Fe  Fe157     1.0  0.94013  0.18371  0.42417  1.0000
  S   S307      1.0  0.92231  0.21580  0.42188  1.0000
  H   H870      1.0  0.60793  0.01982  0.24130  1.0000
  Fe  Fe158     1.0  0.90541  0.16484  0.41207  1.0000
  S   S308      1.0  0.88527  0.19579  0.40844  1.0000
  S   S309      1.0  0.89883  0.13342  0.40689  1.0000
  Fe  Fe159     1.0  0.91464  0.20889  0.39693  1.0000
  S   S310      1.0  0.92147  0.22886  0.37143  1.0000
  Fe  Fe160     1.0  0.89483  0.20009  0.43363  1.0000
  S   S311      1.0  0.87124  0.21240  0.45450  1.0000
  S   S312      1.0  0.93435  0.17745  0.39856  1.0000
  S   S313      1.0  0.91307  0.16849  0.43796  1.0000
  H   H871      1.0  0.56084  0.04686  0.29861  1.0000
  H   H872      1.0  0.58222  0.02635  0.29930  1.0000
  C   C871      1.0  0.59375  0.02946  0.26564  1.0000
  H   H873      1.0  0.58713  0.05287  0.29419  1.0000
  N   N72       1.0  0.89905  0.40885  0.24934  1.0000
  H   H874      1.0  0.80699  0.11110  0.45108  1.0000
  N   N73       1.0  0.98006  0.44740  0.32696  1.0000
  H   H875      1.0  0.85687  0.24644  0.47295  1.0000
  C   C872      1.0  0.90146  0.29800  0.35458  1.0000
  C   C873      1.0  0.88958  0.28753  0.36827  1.0000
  C   C874      1.0  0.89615  0.26664  0.37443  1.0000
  C   C875      1.0  0.91452  0.25599  0.36675  1.0000
  C   C876      1.0  0.92670  0.26668  0.35349  1.0000
  C   C877      1.0  0.92036  0.28760  0.34758  1.0000
  H   H876      1.0  0.87494  0.29541  0.37382  1.0000
  H   H877      1.0  0.88654  0.25855  0.38459  1.0000
  H   H878      1.0  0.94095  0.25860  0.34749  1.0000
  H   H879      1.0  0.92972  0.29535  0.33713  1.0000
  C   C878      1.0  0.56135  0.05162  0.26557  1.0000
  N   N74       1.0  0.89077  0.28096  0.31927  1.0000
  H   H880      1.0  0.89614  0.35717  0.26375  1.0000
  H   H881      1.0  0.54424  0.99168  0.33023  1.0000
  C   C879      1.0  0.96506  0.20132  0.47643  1.0000
  C   C880      1.0  0.91530  0.45039  0.33682  1.0000
  C   C881      1.0  0.91364  0.43452  0.32732  1.0000
  C   C882      1.0  0.90897  0.43939  0.31049  1.0000
  C   C883      1.0  0.90647  0.46023  0.30314  1.0000
  H   H882      1.0  0.91537  0.41858  0.33319  1.0000
  C   C884      1.0  0.92243  0.34433  0.24715  1.0000
  C   C885      1.0  0.63267  0.05967  0.26516  1.0000
  C   C886      1.0  0.64627  0.04124  0.26346  1.0000
  H   H883      1.0  0.65376  0.03308  0.27425  1.0000
  C   C887      1.0  0.55762  0.01792  0.33442  1.0000
  C   C888      1.0  0.55394  0.03919  0.33542  1.0000
  C   C889      1.0  0.53409  0.05046  0.33347  1.0000
  C   C890      1.0  0.51792  0.04063  0.33021  1.0000
  C   C891      1.0  0.52178  0.01947  0.32874  1.0000
  C   C892      1.0  0.54151  0.00813  0.33101  1.0000
  H   H884      1.0  0.56620  0.04684  0.33816  1.0000
  H   H885      1.0  0.53118  0.06681  0.33467  1.0000
  H   H886      1.0  0.92008  0.39871  0.26789  1.0000
  H   H887      1.0  0.66151  0.01952  0.24631  1.0000
  C   C893      1.0  0.83530  0.10934  0.41387  1.0000
  C   C894      1.0  0.83638  0.12951  0.41703  1.0000
  C   C895      1.0  0.85563  0.13707  0.41506  1.0000
  C   C896      1.0  0.87412  0.12455  0.40980  1.0000
  C   C897      1.0  0.87302  0.10435  0.40662  1.0000
  C   C898      1.0  0.85377  0.09676  0.40866  1.0000
  H   H888      1.0  0.82223  0.13947  0.42099  1.0000
  H   H889      1.0  0.85615  0.15263  0.41752  1.0000
  H   H890      1.0  0.88720  0.09450  0.40254  1.0000
  H   H891      1.0  0.85326  0.08122  0.40614  1.0000
  H   H892      1.0  0.93800  0.12433  0.42468  1.0000
  C   C899      1.0  0.86910  0.23673  0.47939  1.0000
  H   H893      1.0  0.95346  0.46146  0.34210  1.0000
  H   H894      1.0  0.80687  0.03900  0.46721  1.0000
  H   H895      1.0  0.78966  0.12326  0.38735  1.0000
  C   C900      1.0  0.72445  0.05268  0.37313  1.0000
  C   C901      1.0  0.71958  0.04916  0.35730  1.0000
  C   C902      1.0  0.69916  0.04676  0.35527  1.0000
  C   C903      1.0  0.68322  0.04866  0.36890  1.0000
  C   C904      1.0  0.68815  0.05193  0.38477  1.0000
  C   C905      1.0  0.70871  0.05363  0.38697  1.0000
  H   H896      1.0  0.73164  0.04838  0.34651  1.0000
  H   H897      1.0  0.69565  0.04410  0.34302  1.0000
  H   H898      1.0  0.67593  0.05342  0.39541  1.0000
  H   H899      1.0  0.71219  0.05645  0.39920  1.0000
  C   C906      1.0  0.75962  0.10780  0.37653  1.0000
  C   C907      1.0  0.95611  0.12831  0.39996  1.0000
  C   C908      1.0  0.75974  0.06353  0.47417  1.0000
  C   C909      1.0  0.76325  0.99340  0.37545  1.0000
  H   H900      1.0  0.75811  0.07036  0.46115  1.0000
  N   N75       1.0  0.64573  0.09398  0.33204  1.0000
  C   C910      1.0  0.64407  0.09450  0.31506  1.0000
  C   C911      1.0  0.66489  0.09094  0.33759  1.0000
  C   C912      1.0  0.66190  0.09156  0.30320  1.0000
  C   C913      1.0  0.68304  0.08794  0.32608  1.0000
  C   C914      1.0  0.68148  0.08817  0.30879  1.0000
  C   C915      1.0  0.62703  0.09715  0.34445  1.0000
  H   H901      1.0  0.62892  0.09685  0.31056  1.0000
  H   H902      1.0  0.66619  0.09037  0.35109  1.0000
  H   H903      1.0  0.66045  0.09155  0.28980  1.0000
  H   H904      1.0  0.69817  0.08510  0.33064  1.0000
  H   H905      1.0  0.69539  0.08550  0.29974  1.0000
  H   H906      1.0  0.62591  0.11224  0.34930  1.0000
  H   H907      1.0  0.61259  0.09688  0.33878  1.0000
  H   H908      1.0  0.62769  0.08459  0.35543  1.0000
  H   H909      1.0  0.90357  0.19271  0.47590  1.0000
  H   H910      1.0  0.91196  0.25422  0.47234  1.0000
  C   C916      1.0  0.81170  0.07913  0.46234  1.0000
  C   C917      1.0  0.62323  0.07022  0.25102  1.0000
  H   H911      1.0  0.90346  0.31899  0.28786  1.0000
  H   H912      1.0  0.90966  0.25191  0.32508  1.0000
  H   H913      1.0  0.91736  0.23773  0.45597  1.0000
  C   C918      1.0  0.80326  0.10800  0.47865  1.0000
  H   H914      1.0  0.93529  0.29347  0.28363  1.0000
  N   N76       1.0  0.78185  0.10482  0.37006  1.0000
  H   H915      1.0  0.87542  0.31115  0.31122  1.0000
  H   H916      1.0  0.96734  0.12675  0.44035  1.0000
  H   H917      1.0  0.87912  0.26421  0.34283  1.0000
  S   S314      1.0  0.97014  0.17766  0.43628  1.0000
  C   C919      1.0  0.92445  0.27086  0.30405  1.0000
  C   C920      1.0  0.80735  0.10049  0.46286  1.0000
  C   C921      1.0  0.97544  0.13180  0.39109  1.0000
  H   H918      1.0  0.83312  0.03884  0.47179  1.0000
  H   H919      1.0  0.79945  0.12450  0.47926  1.0000
  C   C922      1.0  0.90228  0.35477  0.25075  1.0000
  H   H920      1.0  0.96712  0.42075  0.32460  1.0000
  H   H921      1.0  0.87440  0.37010  0.24024  1.0000
  C   C923      1.0  0.78918  0.09204  0.35781  1.0000
  C   C924      1.0  0.79533  0.11376  0.37716  1.0000
  C   C925      1.0  0.81052  0.08817  0.35221  1.0000
  C   C926      1.0  0.81675  0.11021  0.37189  1.0000
  C   C927      1.0  0.82437  0.09729  0.35936  1.0000
  C   C928      1.0  0.92272  0.28979  0.29353  1.0000
  H   H922      1.0  0.77950  0.98888  0.36956  1.0000
  C   C929      1.0  0.87356  0.27610  0.33241  1.0000
  C   C930      1.0  0.65070  0.03361  0.24761  1.0000
  H   H923      1.0  0.82740  0.11695  0.37790  1.0000
  H   H924      1.0  0.84101  0.09403  0.35550  1.0000
  H   H925      1.0  0.74996  0.10506  0.36696  1.0000
  H   H926      1.0  0.75666  0.09665  0.38818  1.0000
  H   H927      1.0  0.75438  0.12378  0.37973  1.0000
  N   N77       1.0  0.93907  0.23147  0.47422  1.0000
  H   H928      1.0  0.50944  0.01174  0.32622  1.0000
  H   H929      1.0  0.94319  0.12758  0.39306  1.0000
  C   C931      1.0  0.95319  0.12649  0.41777  1.0000
  C   C932      1.0  0.95110  0.21522  0.46708  1.0000
  C   C933      1.0  0.88898  0.29959  0.30905  1.0000
  H   H930      1.0  0.86159  0.27034  0.32665  1.0000
  H   H931      1.0  0.91833  0.44649  0.34999  1.0000
  H   H932      1.0  0.60664  0.02145  0.27230  1.0000
  N   N78       1.0  0.57713  0.04070  0.27416  1.0000
  C   C934      1.0  0.97609  0.42624  0.33340  1.0000
  C   C935      1.0  0.90857  0.47606  0.31254  1.0000
  C   C936      1.0  0.57681  0.04179  0.29243  1.0000
  H   H933      1.0  0.97446  0.18841  0.47069  1.0000
  H   H934      1.0  0.94989  0.21287  0.45409  1.0000
  H   H935      1.0  0.61269  0.08448  0.25226  1.0000
  C   C937      1.0  0.56182  0.05115  0.24802  1.0000
  S   S315      1.0  0.83102  0.99982  0.39614  1.0000
  C   C938      1.0  0.90811  0.26657  0.31681  1.0000
  H   H936      1.0  0.81632  0.07765  0.34280  1.0000
  H   H937      1.0  0.93843  0.25967  0.30247  1.0000
  H   H938      1.0  0.81473  0.07346  0.45000  1.0000
  C   C939      1.0  0.90484  0.30420  0.29595  1.0000
  C   C940      1.0  0.92482  0.24602  0.46404  1.0000
  H   H939      1.0  0.90277  0.46414  0.29017  1.0000
  C   C941      1.0  0.91793  0.40040  0.25449  1.0000
  H   H940      1.0  0.86633  0.29006  0.33856  1.0000
  C   C942      1.0  0.87973  0.21911  0.47256  1.0000
  H   H941      1.0  0.77859  0.08421  0.35272  1.0000
  H   H942      1.0  0.97768  0.13376  0.37723  1.0000
  C   C943      1.0  0.57859  0.03953  0.23929  1.0000
  C   C944      1.0  0.96981  0.12788  0.42651  1.0000
  C   C945      1.0  0.76299  0.04201  0.47825  1.0000
  C   C946      1.0  0.89546  0.20649  0.48105  1.0000
  H   H943      1.0  0.66341  0.98944  0.28345  1.0000
  C   C947      1.0  0.96658  0.46388  0.33244  1.0000
  H   H944      1.0  0.93344  0.25759  0.45562  1.0000
  H   H945      1.0  0.88127  0.40411  0.27378  1.0000
  H   H946      1.0  0.76892  0.98590  0.48344  1.0000
  C   C948      1.0  0.59462  0.02852  0.24812  1.0000
  C   C949      1.0  0.91282  0.47122  0.32949  1.0000
  H   H947      1.0  0.76276  0.99006  0.38956  1.0000
  C   C950      1.0  0.81636  0.04331  0.47621  1.0000
  S   S316      1.0  0.98372  0.35028  0.32896  1.0000
  H   H948      1.0  0.98349  0.18221  0.39952  1.0000
  H   H949      1.0  0.88434  0.43055  0.26599  1.0000
  S   S317      1.0  0.49293  0.05505  0.32862  1.0000
  H   H950      1.0  0.96702  0.42536  0.34633  1.0000
  H   H951      1.0  0.72314  0.00640  0.37222  1.0000
  H   H952      1.0  0.54940  0.05983  0.24110  1.0000
  H   H953      1.0  0.54834  0.06085  0.27225  1.0000
  H   H954      1.0  0.86657  0.41780  0.25727  1.0000
  C   C951      1.0  0.88189  0.41574  0.26212  1.0000
  H   H955      1.0  0.75929  0.01041  0.37193  1.0000
  H   H956      1.0  0.75510  0.09292  0.48392  1.0000
  H   H957      1.0  0.69819  0.98725  0.36299  1.0000
  C   C952      1.0  0.75797  0.07628  0.48709  1.0000
  H   H958      1.0  0.49282  0.03166  0.25287  1.0000
  N   N79       1.0  0.98881  0.13099  0.41773  1.0000
  C   C953      1.0  0.93453  0.39336  0.24267  1.0000
  H   H959      1.0  0.94918  0.38584  0.24698  1.0000
  Fe  Fe161     1.0  0.76367  0.05854  0.58321  1.0000
  S   S318      1.0  0.79809  0.05073  0.58472  1.0000
  S   S319      1.0  0.74570  0.05099  0.60958  1.0000
  Fe  Fe162     1.0  0.77163  0.07024  0.54436  1.0000
  S   S320      1.0  0.80635  0.06298  0.54334  1.0000
  S   S321      1.0  0.75876  0.08407  0.51976  1.0000
  Fe  Fe163     1.0  0.79892  0.03473  0.56151  1.0000
  H   H960      1.0  0.49376  0.06634  0.72343  1.0000
  Fe  Fe164     1.0  0.80227  0.07979  0.56653  1.0000
  S   S322      1.0  0.81633  0.10799  0.57100  1.0000
  S   S323      1.0  0.76445  0.04104  0.56097  1.0000
  S   S324      1.0  0.76755  0.08858  0.56652  1.0000
  Fe  Fe165     1.0  0.63597  0.05186  0.66697  1.0000
  S   S325      1.0  0.65384  0.03021  0.68605  1.0000
  S   S326      1.0  0.64996  0.06627  0.64086  1.0000
  Fe  Fe166     1.0  0.59373  0.04783  0.68853  1.0000
  S   S327      1.0  0.60861  0.02607  0.70907  1.0000
  S   S328      1.0  0.55852  0.05332  0.69472  1.0000
  Fe  Fe167     1.0  0.63257  0.04714  0.70589  1.0000
  S   S329      1.0  0.64498  0.04925  0.73045  1.0000
  Fe  Fe168     1.0  0.62838  0.01097  0.68793  1.0000
  H   H961      1.0  0.49623  0.02805  0.68400  1.0000
  S   S330      1.0  0.61636  0.07058  0.68681  1.0000
  S   S331      1.0  0.61173  0.03106  0.66738  1.0000
  Fe  Fe169     1.0  0.95755  0.33201  0.66160  1.0000
  S   S332      1.0  0.95239  0.35020  0.63598  1.0000
  Fe  Fe170     1.0  0.91232  0.33335  0.67425  1.0000
  S   S333      1.0  0.90283  0.35108  0.64975  1.0000
  S   S334      1.0  0.89004  0.32124  0.69608  1.0000
  Fe  Fe171     1.0  0.92811  0.32936  0.63654  1.0000
  S   S335      1.0  0.92245  0.31617  0.61298  1.0000
  Fe  Fe172     1.0  0.92764  0.37038  0.65134  1.0000
  S   S336      1.0  0.91638  0.40500  0.64928  1.0000
  S   S337      1.0  0.93524  0.31000  0.66106  1.0000
  S   S338      1.0  0.93524  0.35379  0.67685  1.0000
  Fe  Fe173     1.0  0.91588  0.17148  0.56152  1.0000
  S   S339      1.0  0.89579  0.20135  0.56716  1.0000
  S   S340      1.0  0.90517  0.13983  0.56236  1.0000
  Fe  Fe174     1.0  0.95473  0.19334  0.54876  1.0000
  S   S341      1.0  0.93692  0.22455  0.55287  1.0000
  C   C954      1.0  0.95015  0.30705  0.71216  1.0000
  Fe  Fe175     1.0  0.92337  0.20891  0.57790  1.0000
  S   S342      1.0  0.92435  0.22169  0.60291  1.0000
  Fe  Fe176     1.0  0.91150  0.21433  0.54171  1.0000
  S   S343      1.0  0.89403  0.23638  0.52262  1.0000
  S   S344      1.0  0.94251  0.17773  0.57438  1.0000
  S   S345      1.0  0.93017  0.18447  0.53547  1.0000
  C   C955      1.0  0.88925  0.22913  0.50335  1.0000
  H   H962      1.0  0.58054  0.00332  0.69087  1.0000
  H   H963      1.0  0.80020  0.09973  0.50604  1.0000
  H   H964      1.0  0.90839  0.35155  0.71047  1.0000
  C   C956      1.0  0.51286  0.08960  0.68546  1.0000
  C   C957      1.0  0.93219  0.46669  0.71496  1.0000
  H   H965      1.0  0.86580  0.25570  0.49956  1.0000
  N   N80       1.0  0.55819  0.98739  0.66046  1.0000
  H   H966      1.0  0.93431  0.43908  0.68239  1.0000
  N   N81       1.0  0.87668  0.30166  0.63712  1.0000
  C   C958      1.0  0.92500  0.28970  0.60990  1.0000
  C   C959      1.0  0.93089  0.27355  0.62253  1.0000
  C   C960      1.0  0.93107  0.25280  0.62003  1.0000
  C   C961      1.0  0.92555  0.24793  0.60485  1.0000
  C   C962      1.0  0.92022  0.26406  0.59204  1.0000
  C   C963      1.0  0.91987  0.28479  0.59460  1.0000
  H   H967      1.0  0.93489  0.27705  0.63436  1.0000
  H   H968      1.0  0.93525  0.24046  0.63001  1.0000
  H   H969      1.0  0.91590  0.26060  0.58030  1.0000
  H   H970      1.0  0.91535  0.29714  0.58472  1.0000
  H   H971      1.0  0.77668  0.11351  0.59383  1.0000
  C   C964      1.0  0.93143  0.42538  0.64682  1.0000
  C   C965      1.0  0.92107  0.44571  0.64736  1.0000
  C   C966      1.0  0.93228  0.46255  0.64503  1.0000
  C   C967      1.0  0.95400  0.45919  0.64198  1.0000
  C   C968      1.0  0.96441  0.43884  0.64173  1.0000
  C   C969      1.0  0.95319  0.42196  0.64423  1.0000
  H   H972      1.0  0.90423  0.44847  0.64929  1.0000
  C   C970      1.0  0.89492  0.32330  0.71689  1.0000
  H   H973      1.0  0.88225  0.13561  0.52695  1.0000
  H   H974      1.0  0.96133  0.40638  0.64380  1.0000
  H   H975      1.0  0.56276  0.00578  0.63606  1.0000
  C   C971      1.0  0.87410  0.24192  0.49450  1.0000
  H   H976      1.0  0.87641  0.31843  0.61206  1.0000
  C   C972      1.0  0.51475  0.03746  0.66043  1.0000
  H   H977      1.0  0.92408  0.47813  0.64511  1.0000
  H   H978      1.0  0.51907  0.07372  0.71698  1.0000
  H   H979      1.0  0.76986  0.06884  0.64930  1.0000
  H   H980      1.0  0.80494  0.07598  0.63531  1.0000
  H   H981      1.0  0.73431  0.01815  0.59256  1.0000
  H   H982      1.0  0.89605  0.14372  0.50626  1.0000
  C   C973      1.0  0.88452  0.28521  0.66489  1.0000
  H   H983      1.0  0.73872  0.08413  0.63527  1.0000
  H   H984      1.0  0.97252  0.33742  0.70069  1.0000
  C   C974      1.0  0.93159  0.44304  0.69537  1.0000
  C   C975      1.0  0.52438  0.03802  0.68862  1.0000
  C   C976      1.0  0.54282  0.04571  0.68132  1.0000
  C   C977      1.0  0.54739  0.04892  0.66352  1.0000
  H   H985      1.0  0.73917  0.12307  0.59708  1.0000
  H   H986      1.0  0.52073  0.03553  0.70238  1.0000
  H   H987      1.0  0.56141  0.05516  0.65777  1.0000
  C   C978      1.0  0.84124  0.11656  0.56797  1.0000
  C   C979      1.0  0.85980  0.10376  0.56334  1.0000
  C   C980      1.0  0.87912  0.11114  0.56176  1.0000
  C   C981      1.0  0.88023  0.13146  0.56461  1.0000
  C   C982      1.0  0.86166  0.14436  0.56901  1.0000
  C   C983      1.0  0.84236  0.13691  0.57074  1.0000
  H   H988      1.0  0.85931  0.08805  0.56124  1.0000
  H   H989      1.0  0.89335  0.10096  0.55841  1.0000
  H   H990      1.0  0.86215  0.15993  0.57144  1.0000
  H   H991      1.0  0.82817  0.14698  0.57440  1.0000
  C   C984      1.0  0.76013  0.06762  0.50403  1.0000
  C   C985      1.0  0.76397  0.04611  0.50802  1.0000
  H   H992      1.0  0.73454  0.09677  0.59752  1.0000
  H   H993      1.0  0.76573  0.03930  0.52102  1.0000
  H   H994      1.0  0.61458  0.08679  0.72667  1.0000
  C   C986      1.0  0.71885  0.05497  0.61763  1.0000
  C   C987      1.0  0.71276  0.04715  0.63470  1.0000
  C   C988      1.0  0.69175  0.05026  0.64192  1.0000
  C   C989      1.0  0.67656  0.06143  0.63217  1.0000
  C   C990      1.0  0.68267  0.06928  0.61508  1.0000
  C   C991      1.0  0.70369  0.06598  0.60779  1.0000
  H   H995      1.0  0.72435  0.03863  0.64245  1.0000
  H   H996      1.0  0.68731  0.04421  0.65509  1.0000
  H   H997      1.0  0.67103  0.07794  0.60743  1.0000
  H   H998      1.0  0.70808  0.07205  0.59462  1.0000
  C   C992      1.0  0.87929  0.28276  0.63141  1.0000
  C   C993      1.0  0.88482  0.26461  0.64228  1.0000
  C   C994      1.0  0.92345  0.42906  0.70862  1.0000
  C   C995      1.0  0.88762  0.26591  0.65908  1.0000
  H   H999      1.0  0.85342  0.32462  0.62710  1.0000
  H   H1000     1.0  0.88751  0.24972  0.63749  1.0000
  C   C996      1.0  0.51040  0.03390  0.67823  1.0000
  H   H1001     1.0  0.89229  0.25200  0.66754  1.0000
  H   H1002     1.0  0.98123  0.43611  0.63941  1.0000
  C   C997      1.0  0.96681  0.20422  0.49312  1.0000
  C   C998      1.0  0.98275  0.21031  0.59876  1.0000
  C   C999      1.0  0.76506  0.03334  0.49521  1.0000
  S   S346      1.0  0.96868  0.47998  0.63837  1.0000
  H   H1003     1.0  0.62668  0.99153  0.65766  1.0000
  H   H1004     1.0  0.97753  0.19356  0.50058  1.0000
  C   C1000     1.0  0.95470  0.22099  0.50021  1.0000
  S   S347      1.0  0.98741  0.31778  0.67156  1.0000
  H   H1005     1.0  0.91173  0.20137  0.50339  1.0000
  H   H1006     1.0  0.96996  0.20609  0.60822  1.0000
  H   H1007     1.0  0.93528  0.48151  0.71755  1.0000
  C   C1001     1.0  0.50965  0.09239  0.66824  1.0000
  C   C1002     1.0  0.79111  0.08292  0.62944  1.0000
  C   C1003     1.0  0.73728  0.10829  0.60545  1.0000
  C   C1004     1.0  0.87884  0.30302  0.65372  1.0000
  H   H1008     1.0  0.87777  0.33359  0.62830  1.0000
  H   H1009     1.0  0.93135  0.24746  0.49622  1.0000
  H   H1010     1.0  0.80429  0.99422  0.59915  1.0000
  C   C1005     1.0  0.50223  0.07862  0.71582  1.0000
  H   H1011     1.0  0.94161  0.31729  0.70232  1.0000
  C   C1006     1.0  0.87060  0.32048  0.62562  1.0000
  H   H1012     1.0  0.52146  0.09785  0.65839  1.0000
  H   H1013     1.0  0.53693  0.04745  0.63935  1.0000
  C   C1007     1.0  0.89032  0.14809  0.51922  1.0000
  C   C1008     1.0  0.90433  0.33950  0.72056  1.0000
  S   S348      1.0  0.49719  0.03322  0.64695  1.0000
  H   H1014     1.0  0.91991  0.41447  0.70592  1.0000
  C   C1009     1.0  0.89996  0.21131  0.49665  1.0000
  C   C1010     1.0  0.53346  0.04465  0.65312  1.0000
  H   H1015     1.0  0.72321  0.11123  0.61488  1.0000
  H   H1016     1.0  0.72354  0.99081  0.57883  1.0000
  H   H1017     1.0  0.87634  0.31793  0.65843  1.0000
  H   H1018     1.0  0.80815  0.09850  0.60742  1.0000
  C   C1011     1.0  0.97021  0.33436  0.71452  1.0000
  C   C1012     1.0  0.57238  0.99378  0.68498  1.0000
  H   H1019     1.0  0.93888  0.29748  0.71997  1.0000
  H   H1020     1.0  0.90422  0.14924  0.52533  1.0000
  H   H1021     1.0  0.87775  0.28164  0.61823  1.0000
  H   H1022     1.0  0.88660  0.28649  0.67795  1.0000
  N   N82       1.0  0.87610  0.16770  0.51848  1.0000
  H   H1023     1.0  0.80824  0.06226  0.50443  1.0000
  C   C1013     1.0  0.87353  0.17926  0.53171  1.0000
  C   C1014     1.0  0.86490  0.17394  0.50495  1.0000
  C   C1015     1.0  0.85985  0.19788  0.53142  1.0000
  C   C1016     1.0  0.84856  0.20450  0.51758  1.0000
  H   H1024     1.0  0.95727  0.46756  0.67628  1.0000
  H   H1025     1.0  0.96297  0.29680  0.70552  1.0000
  H   H1026     1.0  0.88230  0.17425  0.54247  1.0000
  C   C1017     1.0  0.97864  0.22060  0.58277  1.0000
  H   H1027     1.0  0.85846  0.20739  0.54163  1.0000
  H   H1028     1.0  0.83841  0.21924  0.51693  1.0000
  H   H1029     1.0  0.88194  0.29558  0.72741  1.0000
  H   H1030     1.0  0.53668  0.00007  0.64291  1.0000
  C   C1018     1.0  0.73849  0.98826  0.58366  1.0000
  C   C1019     1.0  0.76422  0.00043  0.59684  1.0000
  H   H1031     1.0  0.77886  0.00533  0.54284  1.0000
  C   C1020     1.0  0.85103  0.19246  0.50426  1.0000
  H   H1032     1.0  0.95594  0.22332  0.51320  1.0000
  C   C1021     1.0  0.79293  0.09555  0.61380  1.0000
  N   N83       1.0  0.93608  0.46145  0.69869  1.0000
  C   C1022     1.0  0.56836  0.99937  0.66803  1.0000
  H   H1033     1.0  0.98369  0.36103  0.65758  1.0000
  C   C1023     1.0  0.88928  0.30806  0.73010  1.0000
  C   C1024     1.0  0.91987  0.43406  0.72532  1.0000
  C   C1025     1.0  0.77147  0.07901  0.63732  1.0000
  H   H1034     1.0  0.76900  0.01259  0.60244  1.0000
  H   H1035     1.0  0.52728  0.09305  0.68878  1.0000
  N   N84       1.0  0.95868  0.31941  0.72252  1.0000
  C   C1026     1.0  0.92421  0.45301  0.72853  1.0000
  N   N85       1.0  0.75579  0.10027  0.61405  1.0000
  C   C1027     1.0  0.77501  0.10406  0.60618  1.0000
  C   C1028     1.0  0.75387  0.08786  0.62939  1.0000
  H   H1036     1.0  0.76766  0.01672  0.49847  1.0000
  C   C1029     1.0  0.80386  0.09415  0.49365  1.0000
  H   H1037     1.0  0.96274  0.22436  0.57985  1.0000
  S   S349      1.0  0.81524  0.00169  0.56082  1.0000
  N   N86       1.0  0.49855  0.08161  0.69785  1.0000
  C   C1030     1.0  0.94444  0.47584  0.68455  1.0000
  H   H1038     1.0  0.49668  0.09321  0.72151  1.0000
  H   H1039     1.0  0.57374  0.01318  0.66091  1.0000
  C   C1031     1.0  0.55346  0.99372  0.64286  1.0000
  C   C1032     1.0  0.78485  0.98914  0.54565  1.0000
  C   C1033     1.0  0.74457  0.00364  0.59125  1.0000
  C   C1034     1.0  0.80836  0.07289  0.49266  1.0000
  H   H1040     1.0  0.91366  0.42337  0.73580  1.0000
  C   C1035     1.0  0.80280  0.98321  0.55376  1.0000
  H   H1041     1.0  0.86696  0.16489  0.49439  1.0000
  C   C1036     1.0  0.97917  0.34595  0.72403  1.0000
  H   H1042     1.0  0.81231  0.03417  0.48881  1.0000
  H   H1043     1.0  0.98834  0.35775  0.71758  1.0000
  S   S350      1.0  0.98769  0.19497  0.53571  1.0000
  C   C1037     1.0  0.49144  0.08743  0.66381  1.0000
  H   H1044     1.0  0.84284  0.19780  0.49316  1.0000
  C   C1038     1.0  0.94091  0.23463  0.49049  1.0000
  C   C1039     1.0  0.90802  0.34031  0.73744  1.0000
  Fe  Fe177     1.0  0.60241  0.09633  0.81048  1.0000
  S   S351      1.0  0.63031  0.08347  0.82410  1.0000
  S   S352      1.0  0.60210  0.11120  0.78313  1.0000
  Fe  Fe178     1.0  0.57227  0.08049  0.84024  1.0000
  S   S353      1.0  0.59762  0.06571  0.85593  1.0000
  S   S354      1.0  0.53831  0.08052  0.84966  1.0000
  Fe  Fe179     1.0  0.61081  0.09560  0.84729  1.0000
  S   S355      1.0  0.62038  0.10989  0.86877  1.0000
  Fe  Fe180     1.0  0.61440  0.05506  0.83143  1.0000
  S   S356      1.0  0.63244  0.02363  0.82674  1.0000
  S   S357      1.0  0.58419  0.11085  0.83293  1.0000
  S   S358      1.0  0.58777  0.06748  0.81642  1.0000
  H   H1045     1.0  0.60060  0.02791  0.80072  1.0000
  Fe  Fe181     1.0  0.63909  0.21393  0.93242  1.0000
  S   S359      1.0  0.62172  0.24527  0.93679  1.0000
  S   S360      1.0  0.65769  0.19095  0.95026  1.0000
  Fe  Fe182     1.0  0.62889  0.21739  0.89583  1.0000
  S   S361      1.0  0.61114  0.24936  0.89721  1.0000
  S   S362      1.0  0.63137  0.20290  0.87133  1.0000
  Fe  Fe183     1.0  0.63742  0.25569  0.91042  1.0000
  S   S363      1.0  0.65278  0.28498  0.90121  1.0000
  Fe  Fe184     1.0  0.59729  0.23612  0.92317  1.0000
  S   S364      1.0  0.56299  0.23700  0.93353  1.0000
  S   S365      1.0  0.65609  0.22462  0.90686  1.0000
  S   S366      1.0  0.61374  0.20388  0.92100  1.0000
  Fe  Fe185     1.0  0.77537  0.37006  0.92871  1.0000
  S   S367      1.0  0.74091  0.37696  0.92825  1.0000
  S   S368      1.0  0.78668  0.37944  0.95139  1.0000
  Fe  Fe186     1.0  0.78356  0.35959  0.89209  1.0000
  S   S369      1.0  0.74920  0.36570  0.88919  1.0000
  S   S370      1.0  0.80530  0.35161  0.86813  1.0000
  Fe  Fe187     1.0  0.74882  0.39375  0.90225  1.0000
  S   S371      1.0  0.73296  0.42600  0.89402  1.0000
  Fe  Fe188     1.0  0.74434  0.34806  0.91561  1.0000
  S   S372      1.0  0.72168  0.32548  0.92830  1.0000
  S   S373      1.0  0.78312  0.38881  0.90331  1.0000
  S   S374      1.0  0.77879  0.33997  0.91781  1.0000
  Fe  Fe189     1.0  0.92005  0.39479  0.78436  1.0000
  S   S375      1.0  0.93802  0.38710  0.80696  1.0000
  S   S376      1.0  0.91068  0.42779  0.77301  1.0000
  Fe  Fe190     1.0  0.91834  0.34969  0.78206  1.0000
  S   S377      1.0  0.93622  0.33872  0.80448  1.0000
  S   S378      1.0  0.90819  0.32360  0.77165  1.0000
  Fe  Fe191     1.0  0.91530  0.36457  0.81667  1.0000
  S   S379      1.0  0.90013  0.36180  0.84436  1.0000
  Fe  Fe192     1.0  0.95706  0.36224  0.79248  1.0000
  S   S380      1.0  0.89616  0.37394  0.79502  1.0000
  S   S381      1.0  0.94021  0.37146  0.76922  1.0000
  H   H1046     1.0  0.54414  0.18666  0.91678  1.0000
  C   C1040     1.0  0.91657  0.46484  0.78184  1.0000
  C   C1041     1.0  0.92481  0.44406  0.78067  1.0000
  C   C1042     1.0  0.94379  0.43593  0.78668  1.0000
  C   C1043     1.0  0.95366  0.44789  0.79514  1.0000
  H   H1047     1.0  0.92137  0.45702  0.74148  1.0000
  H   H1048     1.0  0.95087  0.42035  0.78490  1.0000
  H   H1049     1.0  0.52655  0.07263  0.80636  1.0000
  H   H1050     1.0  0.62997  0.32691  0.91020  1.0000
  H   H1051     1.0  0.52801  0.20484  0.86082  1.0000
  H   H1052     1.0  0.88916  0.29651  0.75678  1.0000
  H   H1053     1.0  0.56820  0.19587  0.91669  1.0000
  C   C1044     1.0  0.97616  0.34222  0.74185  1.0000
  H   H1054     1.0  0.55872  0.21971  0.84467  1.0000
  C   C1045     1.0  0.63273  0.06684  0.74466  1.0000
  H   H1055     1.0  0.91456  0.46760  0.82621  1.0000
  H   H1056     1.0  0.68263  0.21734  0.97702  1.0000
  C   C1046     1.0  0.78653  0.36346  0.97113  1.0000
  C   C1047     1.0  0.78821  0.34195  0.97220  1.0000
  C   C1048     1.0  0.89333  0.30862  0.74675  1.0000
  C   C1049     1.0  0.61412  0.09424  0.76830  1.0000
  C   C1050     1.0  0.62821  0.07690  0.77331  1.0000
  H   H1057     1.0  0.78989  0.33472  0.96067  1.0000
  H   H1058     1.0  0.59089  0.01602  0.84198  1.0000
  H   H1059     1.0  0.56670  0.10634  0.77002  1.0000
  C   C1051     1.0  0.73910  0.44543  0.90467  1.0000
  C   C1052     1.0  0.74977  0.44018  0.91902  1.0000
  C   C1053     1.0  0.75494  0.45576  0.92716  1.0000
  C   C1054     1.0  0.91552  0.45155  0.83189  1.0000
  H   H1060     1.0  0.58987  0.20442  0.88952  1.0000
  C   C1055     1.0  0.73392  0.46640  0.89838  1.0000
  H   H1061     1.0  0.75394  0.42408  0.92395  1.0000
  H   H1062     1.0  0.76312  0.45149  0.93829  1.0000
  C   C1056     1.0  0.51524  0.03256  0.82489  1.0000
  C   C1057     1.0  0.75507  0.47274  0.97404  1.0000
  C   C1058     1.0  0.83050  0.35868  0.86167  1.0000
  C   C1059     1.0  0.84390  0.35978  0.87353  1.0000
  C   C1060     1.0  0.86502  0.36164  0.86798  1.0000
  C   C1061     1.0  0.87289  0.36265  0.85053  1.0000
  C   C1062     1.0  0.85922  0.36268  0.83862  1.0000
  C   C1063     1.0  0.83820  0.36055  0.84418  1.0000
  H   H1063     1.0  0.83825  0.35819  0.88704  1.0000
  H   H1064     1.0  0.87543  0.36161  0.87732  1.0000
  H   H1065     1.0  0.86495  0.36355  0.82517  1.0000
  H   H1066     1.0  0.82798  0.35968  0.83490  1.0000
  C   C1064     1.0  0.67439  0.29306  0.90829  1.0000
  C   C1065     1.0  0.68635  0.30635  0.89694  1.0000
  C   C1066     1.0  0.70165  0.31558  0.90259  1.0000
  C   C1067     1.0  0.70495  0.31193  0.91980  1.0000
  C   C1068     1.0  0.69338  0.29822  0.93106  1.0000
  C   C1069     1.0  0.67833  0.28873  0.92535  1.0000
  H   H1067     1.0  0.68346  0.30985  0.88373  1.0000
  H   H1068     1.0  0.71047  0.32591  0.89370  1.0000
  H   H1069     1.0  0.69577  0.29523  0.94439  1.0000
  H   H1070     1.0  0.66918  0.27871  0.93428  1.0000
  C   C1070     1.0  0.65104  0.18712  0.97263  1.0000
  C   C1071     1.0  0.60934  0.09787  0.75140  1.0000
  H   H1071     1.0  0.55264  0.04870  0.75949  1.0000
  H   H1072     1.0  0.53000  0.04555  0.78742  1.0000
  H   H1073     1.0  0.54731  0.01827  0.82158  1.0000
  H   H1074     1.0  0.94051  0.41746  0.86042  1.0000
  H   H1075     1.0  0.66880  0.15663  0.97434  1.0000
  H   H1076     1.0  0.49539  0.09625  0.86923  1.0000
  H   H1077     1.0  0.64550  0.32835  0.93649  1.0000
  H   H1078     1.0  0.53520  0.22994  0.96557  1.0000
  C   C1072     1.0  0.51467  0.23691  0.89711  1.0000
  C   C1073     1.0  0.51113  0.22870  0.91434  1.0000
  C   C1074     1.0  0.52590  0.22907  0.92544  1.0000
  C   C1075     1.0  0.54455  0.23710  0.91933  1.0000
  C   C1076     1.0  0.54818  0.24501  0.90207  1.0000
  C   C1077     1.0  0.53318  0.24518  0.89110  1.0000
  C   C1078     1.0  0.53829  0.22892  0.97870  1.0000
  H   H1079     1.0  0.52291  0.22288  0.93876  1.0000
  H   H1080     1.0  0.56238  0.25138  0.89722  1.0000
  H   H1081     1.0  0.53602  0.25159  0.87780  1.0000
  C   C1079     1.0  0.61973  0.13669  0.86917  1.0000
  C   C1080     1.0  0.61859  0.14396  0.88503  1.0000
  C   C1081     1.0  0.62115  0.16450  0.88590  1.0000
  C   C1082     1.0  0.62532  0.17785  0.87087  1.0000
  C   C1083     1.0  0.62581  0.17080  0.85503  1.0000
  C   C1084     1.0  0.62287  0.15035  0.85416  1.0000
  H   H1082     1.0  0.61626  0.13345  0.89670  1.0000
  H   H1083     1.0  0.62078  0.16968  0.89818  1.0000
  H   H1084     1.0  0.62898  0.18104  0.84333  1.0000
  H   H1085     1.0  0.62396  0.14489  0.84187  1.0000
  C   C1085     1.0  0.53629  0.03033  0.82705  1.0000
  C   C1086     1.0  0.54328  0.04439  0.83564  1.0000
  C   C1087     1.0  0.52926  0.06064  0.84199  1.0000
  C   C1088     1.0  0.50804  0.06206  0.84074  1.0000
  C   C1089     1.0  0.50104  0.04799  0.83222  1.0000
  H   H1086     1.0  0.55957  0.04283  0.83715  1.0000
  C   C1090     1.0  0.63042  0.98319  0.82366  1.0000
  C   C1091     1.0  0.64162  0.33695  0.90991  1.0000
  C   C1092     1.0  0.74989  0.47672  0.92083  1.0000
  C   C1093     1.0  0.61976  0.00154  0.82956  1.0000
  H   H1087     1.0  0.62631  0.03051  0.79050  1.0000
  H   H1088     1.0  0.60406  0.04183  0.77955  1.0000
  H   H1089     1.0  0.74049  0.30668  0.96299  1.0000
  N   N87       1.0  0.61196  0.00916  0.78059  1.0000
  H   H1090     1.0  0.96793  0.44116  0.80040  1.0000
  C   C1094     1.0  0.61056  0.02828  0.78818  1.0000
  H   H1091     1.0  0.63254  0.21690  0.97523  1.0000
  H   H1092     1.0  0.91970  0.39414  0.85118  1.0000
  H   H1093     1.0  0.76449  0.44718  0.86845  1.0000
  C   C1095     1.0  0.59918  0.00202  0.83729  1.0000
  C   C1096     1.0  0.56133  0.07771  0.76304  1.0000
  H   H1094     1.0  0.73579  0.34468  0.95717  1.0000
  H   H1095     1.0  0.90198  0.47127  0.77703  1.0000
  C   C1097     1.0  0.73953  0.31579  0.97342  1.0000
  H   H1096     1.0  0.51398  0.10380  0.88039  1.0000
  H   H1097     1.0  0.49694  0.22229  0.91913  1.0000
  N   N88       1.0  0.73605  0.34908  0.98312  1.0000
  C   C1098     1.0  0.79257  0.46306  0.89340  1.0000
  H   H1098     1.0  0.49442  0.98529  0.83601  1.0000
  H   H1099     1.0  0.53117  0.11831  0.79855  1.0000
  H   H1100     1.0  0.94627  0.30401  0.74643  1.0000
  S   S382      1.0  0.49691  0.23644  0.88249  1.0000
  H   H1101     1.0  0.63217  0.07408  0.78625  1.0000
  C   C1099     1.0  0.90391  0.43858  0.82614  1.0000
  N   N89       1.0  0.67308  0.36085  0.90876  1.0000
  C   C1100     1.0  0.66626  0.34974  0.92385  1.0000
  C   C1101     1.0  0.66474  0.35998  0.89416  1.0000
  C   C1102     1.0  0.65035  0.33775  0.92468  1.0000
  C   C1103     1.0  0.64884  0.34810  0.89453  1.0000
  C   C1104     1.0  0.69064  0.37227  0.90789  1.0000
  H   H1102     1.0  0.67373  0.34942  0.93518  1.0000
  H   H1103     1.0  0.67073  0.36808  0.88205  1.0000
  H   H1104     1.0  0.64266  0.34687  0.88288  1.0000
  H   H1105     1.0  0.69134  0.37759  0.92035  1.0000
  H   H1106     1.0  0.70541  0.36204  0.90451  1.0000
  H   H1107     1.0  0.68948  0.38622  0.89817  1.0000
  N   N90       1.0  0.54710  0.09059  0.78960  1.0000
  C   C1105     1.0  0.55893  0.09284  0.77401  1.0000
  C   C1106     1.0  0.53649  0.07405  0.79427  1.0000
  H   H1108     1.0  0.62971  0.02070  0.75760  1.0000
  H   H1109     1.0  0.77873  0.43213  0.88447  1.0000
  C   C1107     1.0  0.55100  0.06051  0.76790  1.0000
  C   C1108     1.0  0.54487  0.10651  0.80099  1.0000
  C   C1109     1.0  0.92673  0.47703  0.79002  1.0000
  H   H1110     1.0  0.59870  0.11145  0.74736  1.0000
  H   H1111     1.0  0.91521  0.35280  0.74028  1.0000
  H   H1112     1.0  0.78340  0.38933  0.98535  1.0000
  C   C1110     1.0  0.53835  0.05872  0.78356  1.0000
  C   C1111     1.0  0.49901  0.10929  0.87507  1.0000
  N   N91       1.0  0.87164  0.31338  0.82931  1.0000
  C   C1112     1.0  0.85087  0.31177  0.83258  1.0000
  C   C1113     1.0  0.88292  0.31343  0.84244  1.0000
  C   C1114     1.0  0.84095  0.30978  0.84940  1.0000
  C   C1115     1.0  0.87350  0.31139  0.85941  1.0000
  C   C1116     1.0  0.85237  0.30960  0.86287  1.0000
  C   C1117     1.0  0.88141  0.31669  0.81157  1.0000
  H   H1113     1.0  0.84173  0.31263  0.82215  1.0000
  H   H1114     1.0  0.89910  0.31587  0.83984  1.0000
  H   H1115     1.0  0.82429  0.30942  0.85197  1.0000
  H   H1116     1.0  0.88231  0.31225  0.86972  1.0000
  H   H1117     1.0  0.84459  0.30907  0.87588  1.0000
  H   H1118     1.0  0.87525  0.30764  0.80326  1.0000
  H   H1119     1.0  0.87843  0.33334  0.80645  1.0000
  H   H1120     1.0  0.89854  0.31178  0.81048  1.0000
  H   H1121     1.0  0.89632  0.40758  0.82893  1.0000
  C   C1118     1.0  0.63779  0.06351  0.76144  1.0000
  H   H1122     1.0  0.89434  0.44445  0.81595  1.0000
  H   H1123     1.0  0.79509  0.44868  0.90191  1.0000
  C   C1119     1.0  0.65953  0.16844  0.98140  1.0000
  C   C1120     1.0  0.90516  0.41789  0.83329  1.0000
  H   H1124     1.0  0.58993  0.21926  0.85924  1.0000
  H   H1125     1.0  0.79221  0.43885  0.86350  1.0000
  C   C1121     1.0  0.56009  0.18674  0.90980  1.0000
  C   C1122     1.0  0.73687  0.33739  0.97017  1.0000
  C   C1123     1.0  0.91830  0.41031  0.84578  1.0000
  H   H1126     1.0  0.50118  0.12236  0.86476  1.0000
  H   H1127     1.0  0.64921  0.05051  0.76529  1.0000
  S   S383      1.0  0.50703  0.01779  0.81140  1.0000
  H   H1128     1.0  0.72570  0.47058  0.88726  1.0000
  H   H1129     1.0  0.55902  0.11425  0.79914  1.0000
  H   H1130     1.0  0.74272  0.47371  0.96564  1.0000
  N   N92       1.0  0.66969  0.13817  0.88413  1.0000
  C   C1124     1.0  0.67330  0.15801  0.87845  1.0000
  C   C1125     1.0  0.66516  0.13191  0.90125  1.0000
  C   C1126     1.0  0.67211  0.17227  0.89001  1.0000
  C   C1127     1.0  0.66380  0.14581  0.91316  1.0000
  C   C1128     1.0  0.66731  0.16610  0.90746  1.0000
  C   C1129     1.0  0.67151  0.12335  0.87181  1.0000
  H   H1131     1.0  0.67650  0.16312  0.86488  1.0000
  H   H1132     1.0  0.66223  0.11620  0.90574  1.0000
  H   H1133     1.0  0.67432  0.18817  0.88538  1.0000
  H   H1134     1.0  0.65990  0.14100  0.92672  1.0000
  H   H1135     1.0  0.66613  0.17706  0.91657  1.0000
  H   H1136     1.0  0.68802  0.11656  0.86881  1.0000
  H   H1137     1.0  0.66214  0.11065  0.87684  1.0000
  H   H1138     1.0  0.66535  0.13098  0.85980  1.0000
  N   N93       1.0  0.55950  0.19599  0.89195  1.0000
  C   C1130     1.0  0.54249  0.19570  0.88395  1.0000
  C   C1131     1.0  0.57639  0.20421  0.88320  1.0000
  C   C1132     1.0  0.54191  0.20430  0.86686  1.0000
  C   C1133     1.0  0.57645  0.21273  0.86606  1.0000
  C   C1134     1.0  0.55903  0.21284  0.85788  1.0000
  N   N94       1.0  0.92827  0.44400  0.84423  1.0000
  H   H1139     1.0  0.52891  0.18952  0.89090  1.0000
  H   H1140     1.0  0.56842  0.17065  0.91031  1.0000
  H   H1141     1.0  0.96148  0.32429  0.76378  1.0000
  H   H1142     1.0  0.56954  0.23592  0.97161  1.0000
  H   H1143     1.0  0.53083  0.98271  0.83260  1.0000
  N   N95       1.0  0.78425  0.46363  0.87853  1.0000
  C   C1135     1.0  0.62255  0.00774  0.76461  1.0000
  H   H1144     1.0  0.54294  0.09960  0.81463  1.0000
  C   C1136     1.0  0.92998  0.42360  0.85099  1.0000
  C   C1137     1.0  0.63903  0.20235  0.98193  1.0000
  C   C1138     1.0  0.96427  0.32703  0.74991  1.0000
  C   C1139     1.0  0.94498  0.46829  0.79712  1.0000
  H   H1145     1.0  0.49711  0.07451  0.84572  1.0000
  C   C1140     1.0  0.77980  0.44454  0.87343  1.0000
  H   H1146     1.0  0.57117  0.07936  0.75086  1.0000
  C   C1141     1.0  0.61831  0.08396  0.73967  1.0000
  C   C1142     1.0  0.60313  0.99275  0.78953  1.0000
  H   H1147     1.0  0.94138  0.45458  0.86370  1.0000
  C   C1143     1.0  0.90261  0.32472  0.75054  1.0000
  H   H1148     1.0  0.98285  0.35121  0.74943  1.0000
  H   H1149     1.0  0.71653  0.37782  0.97888  1.0000
  H   H1150     1.0  0.77005  0.47420  0.96573  1.0000
  H   H1151     1.0  0.59483  0.99382  0.80223  1.0000
  C   C1144     1.0  0.95568  0.31562  0.74000  1.0000
  C   C1145     1.0  0.78459  0.37269  0.98613  1.0000
  H   H1152     1.0  0.74236  0.37667  0.96700  1.0000
  H   H1153     1.0  0.50207  0.13101  0.89986  1.0000
  C   C1146     1.0  0.73324  0.37170  0.97940  1.0000
  C   C1147     1.0  0.55759  0.23236  0.98212  1.0000
  H   H1154     1.0  0.57373  0.98458  0.84576  1.0000
  C   C1148     1.0  0.62442  0.98957  0.75711  1.0000
  H   H1155     1.0  0.63277  0.98867  0.74437  1.0000
  H   H1156     1.0  0.95722  0.45461  0.84304  1.0000
  C   C1149     1.0  0.94108  0.45745  0.84965  1.0000
  C   C1150     1.0  0.58951  0.98416  0.83943  1.0000
  H   H1157     1.0  0.75638  0.45716  0.98167  1.0000
  H   H1158     1.0  0.64636  0.98272  0.81769  1.0000
  H   H1159     1.0  0.80334  0.48079  0.91017  1.0000
  H   H1160     1.0  0.93505  0.47411  0.84631  1.0000
  C   C1151     1.0  0.79740  0.48112  0.89811  1.0000
  C   C1152     1.0  0.78076  0.48185  0.86798  1.0000
  H   H1161     1.0  0.77416  0.48231  0.85621  1.0000
  C   C1153     1.0  0.73946  0.48202  0.90634  1.0000
  S   S384      1.0  0.95587  0.48133  0.81040  1.0000
  Fe  Fe193     1.0  0.61379  0.70905  0.04787  1.0000
  S   S385      1.0  0.60752  0.67684  0.05848  1.0000
  S   S386      1.0  0.62671  0.71808  0.02036  1.0000
  Fe  Fe194     1.0  0.60245  0.72594  0.08263  1.0000
  S   S387      1.0  0.59679  0.69437  0.09545  1.0000
  S   S388      1.0  0.58813  0.75407  0.09646  1.0000
  Fe  Fe195     1.0  0.62563  0.68099  0.07931  1.0000
  S   S389      1.0  0.64669  0.65343  0.09191  1.0000
  Fe  Fe196     1.0  0.57939  0.69297  0.07358  1.0000
  S   S390      1.0  0.54678  0.68603  0.08341  1.0000
  S   S391      1.0  0.63297  0.71289  0.06820  1.0000
  S   S392      1.0  0.58419  0.72478  0.06107  1.0000
  C   C1154     1.0  0.49198  0.67724  0.07024  1.0000
  Fe  Fe197     1.0  0.60824  0.84153  0.15052  1.0000
  S   S393      1.0  0.57441  0.85542  0.15455  1.0000
  S   S394      1.0  0.62440  0.81824  0.13248  1.0000
  Fe  Fe198     1.0  0.61902  0.86172  0.17970  1.0000
  S   S395      1.0  0.58627  0.87633  0.18623  1.0000
  S   S396      1.0  0.64087  0.86956  0.19613  1.0000
  Fe  Fe199     1.0  0.57747  0.84637  0.18247  1.0000
  S   S397      1.0  0.55496  0.83108  0.20234  1.0000
  Fe  Fe200     1.0  0.58630  0.88462  0.15804  1.0000
  S   S398      1.0  0.57067  0.91752  0.15164  1.0000
  S   S399      1.0  0.61036  0.83066  0.17846  1.0000
  S   S400      1.0  0.61994  0.87177  0.15149  1.0000
  C   C1155     1.0  0.62811  0.76425  0.02980  1.0000
  Fe  Fe201     1.0  0.74984  0.56738  0.06735  1.0000
  S   S401      1.0  0.78298  0.56663  0.05430  1.0000
  S   S402      1.0  0.72986  0.59880  0.06070  1.0000
  Fe  Fe202     1.0  0.75694  0.52061  0.07853  1.0000
  S   S403      1.0  0.78989  0.51721  0.06633  1.0000
  Fe  Fe203     1.0  0.79280  0.54564  0.07767  1.0000
  S   S404      1.0  0.82550  0.54236  0.08598  1.0000
  Fe  Fe204     1.0  0.77770  0.53832  0.04425  1.0000
  S   S405      1.0  0.78920  0.52792  0.01834  1.0000
  S   S406      1.0  0.76005  0.54800  0.09160  1.0000
  S   S407      1.0  0.74435  0.53995  0.05563  1.0000
  Fe  Fe205     1.0  0.91636  0.51776  0.18027  1.0000
  S   S408      1.0  0.91908  0.52514  0.15166  1.0000
  N   N96       1.0  0.48985  0.74368  0.08398  1.0000
  Fe  Fe206     1.0  0.92174  0.56071  0.18563  1.0000
  S   S409      1.0  0.92467  0.57206  0.15745  1.0000
  S   S410      1.0  0.92698  0.58011  0.20515  1.0000
  Fe  Fe207     1.0  0.89796  0.55455  0.15664  1.0000
  S   S411      1.0  0.86715  0.56779  0.14616  1.0000
  Fe  Fe208     1.0  0.94556  0.54170  0.15493  1.0000
  C   C1156     1.0  0.49526  0.84414  0.21978  1.0000
  S   S412      1.0  0.89357  0.54591  0.18526  1.0000
  S   S413      1.0  0.94424  0.53168  0.18308  1.0000
  N   N97       1.0  0.63660  0.94085  0.20260  1.0000
  H   H1162     1.0  0.98059  0.56218  0.16548  1.0000
  C   C1157     1.0  0.64434  0.97539  0.21542  1.0000
  H   H1163     1.0  0.90301  0.63746  0.17418  1.0000
  C   C1158     1.0  0.75046  0.48516  0.00216  1.0000
  C   C1159     1.0  0.83603  0.57100  0.04586  1.0000
  C   C1160     1.0  0.80781  0.59724  0.00917  1.0000
  C   C1161     1.0  0.86264  0.50823  0.15133  1.0000
  H   H1164     1.0  0.79128  0.59942  0.01505  1.0000
  S   S414      1.0  0.91046  0.48716  0.19497  1.0000
  H   H1165     1.0  0.89055  0.56081  0.21992  1.0000
  C   C1162     1.0  0.57452  0.63080  0.06562  1.0000
  H   H1166     1.0  0.57941  0.84948  0.22396  1.0000
  C   C1163     1.0  0.83664  0.55000  0.10272  1.0000
  C   C1164     1.0  0.82500  0.56192  0.11486  1.0000
  C   C1165     1.0  0.83464  0.56734  0.12794  1.0000
  C   C1166     1.0  0.85594  0.56068  0.12924  1.0000
  C   C1167     1.0  0.86755  0.54864  0.11715  1.0000
  C   C1168     1.0  0.85797  0.54346  0.10394  1.0000
  H   H1167     1.0  0.80860  0.56711  0.11411  1.0000
  H   H1168     1.0  0.82548  0.57674  0.13715  1.0000
  H   H1169     1.0  0.88396  0.54347  0.11789  1.0000
  H   H1170     1.0  0.86720  0.53427  0.09462  1.0000
  C   C1169     1.0  0.78319  0.54421  0.99960  1.0000
  N   N98       1.0  0.51485  0.92134  0.14424  1.0000
  H   H1171     1.0  0.62600  0.83172  0.21199  1.0000
  H   H1172     1.0  0.76904  0.57058  0.01226  1.0000
  C   C1170     1.0  0.53681  0.82197  0.19244  1.0000
  C   C1171     1.0  0.52896  0.83349  0.17797  1.0000
  C   C1172     1.0  0.51485  0.82576  0.16985  1.0000
  C   C1173     1.0  0.82423  0.56142  0.01634  1.0000
  C   C1174     1.0  0.51680  0.79486  0.19052  1.0000
  C   C1175     1.0  0.53046  0.80283  0.19888  1.0000
  H   H1173     1.0  0.53357  0.84846  0.17314  1.0000
  C   C1176     1.0  0.60770  0.96917  0.15641  1.0000
  C   C1177     1.0  0.51757  0.95745  0.14259  1.0000
  H   H1174     1.0  0.53652  0.79390  0.21007  1.0000
  C   C1178     1.0  0.58506  0.93700  0.15422  1.0000
  C   C1179     1.0  0.57473  0.95593  0.15928  1.0000
  H   H1175     1.0  0.83671  0.52983  0.02472  1.0000
  C   C1180     1.0  0.74611  0.50113  0.01245  1.0000
  C   C1181     1.0  0.61794  0.95029  0.15133  1.0000
  C   C1182     1.0  0.60673  0.93416  0.15054  1.0000
  H   H1176     1.0  0.55796  0.95825  0.16217  1.0000
  H   H1177     1.0  0.86400  0.60270  0.22298  1.0000
  H   H1178     1.0  0.63464  0.94816  0.14781  1.0000
  H   H1179     1.0  0.61483  0.91976  0.14644  1.0000
  H   H1180     1.0  0.62468  0.92708  0.18420  1.0000
  C   C1183     1.0  0.66989  0.63849  0.08301  1.0000
  C   C1184     1.0  0.67957  0.64390  0.06648  1.0000
  C   C1185     1.0  0.69779  0.63150  0.05993  1.0000
  C   C1186     1.0  0.70650  0.61340  0.06967  1.0000
  C   C1187     1.0  0.69662  0.60783  0.08612  1.0000
  C   C1188     1.0  0.67851  0.62036  0.09274  1.0000
  H   H1181     1.0  0.67320  0.65776  0.05879  1.0000
  H   H1182     1.0  0.70529  0.63604  0.04722  1.0000
  H   H1183     1.0  0.70310  0.59404  0.09382  1.0000
  H   H1184     1.0  0.67120  0.61597  0.10555  1.0000
  C   C1189     1.0  0.59882  0.77214  0.10576  1.0000
  C   C1190     1.0  0.61999  0.76994  0.10746  1.0000
  C   C1191     1.0  0.62755  0.78442  0.11541  1.0000
  C   C1192     1.0  0.61404  0.80101  0.12201  1.0000
  C   C1193     1.0  0.59286  0.80324  0.12025  1.0000
  C   C1194     1.0  0.58536  0.78898  0.11204  1.0000
  H   H1185     1.0  0.63054  0.75704  0.10279  1.0000
  H   H1186     1.0  0.64397  0.78260  0.11667  1.0000
  H   H1187     1.0  0.58232  0.81602  0.12513  1.0000
  H   H1188     1.0  0.56897  0.79094  0.11069  1.0000
  C   C1195     1.0  0.50743  0.68159  0.07906  1.0000
  C   C1196     1.0  0.52815  0.68079  0.07139  1.0000
  C   C1197     1.0  0.53344  0.67532  0.05486  1.0000
  C   C1198     1.0  0.51806  0.67024  0.04624  1.0000
  C   C1199     1.0  0.60119  0.76627  0.01083  1.0000
  H   H1189     1.0  0.54937  0.67469  0.04884  1.0000
  C   C1200     1.0  0.63419  0.76640  0.04547  1.0000
  C   C1201     1.0  0.61449  0.71302  0.00343  1.0000
  C   C1202     1.0  0.59601  0.70441  0.00652  1.0000
  N   N99       1.0  0.82001  0.58135  0.02006  1.0000
  H   H1190     1.0  0.58910  0.70037  0.01952  1.0000
  H   H1191     1.0  0.63183  0.92722  0.22867  1.0000
  H   H1192     1.0  0.64342  0.95749  0.17789  1.0000
  C   C1203     1.0  0.77348  0.56463  0.00010  1.0000
  H   H1193     1.0  0.57669  0.77994  0.03753  1.0000
  H   H1194     1.0  0.94739  0.53824  0.21979  1.0000
  C   C1204     1.0  0.52370  0.74667  0.09071  1.0000
  H   H1195     1.0  0.63866  0.63280  0.06169  1.0000
  C   C1205     1.0  0.87925  0.49209  0.15166  1.0000
  H   H1196     1.0  0.61473  0.76147  0.00141  1.0000
  H   H1197     1.0  0.56374  0.63141  0.05639  1.0000
  C   C1206     1.0  0.57100  0.87780  0.23506  1.0000
  C   C1207     1.0  0.49881  0.96040  0.15324  1.0000
  H   H1198     1.0  0.52222  0.66567  0.03356  1.0000
  C   C1208     1.0  0.57294  0.85634  0.23550  1.0000
  H   H1199     1.0  0.50775  0.85288  0.21413  1.0000
  H   H1200     1.0  0.64004  0.61231  0.07929  1.0000
  C   C1209     1.0  0.91517  0.57500  0.22634  1.0000
  C   C1210     1.0  0.49636  0.92414  0.15464  1.0000
  H   H1201     1.0  0.57208  0.69440  0.99518  1.0000
  H   H1202     1.0  0.90597  0.61969  0.15864  1.0000
  C   C1211     1.0  0.85731  0.59412  0.18327  1.0000
  H   H1203     1.0  0.57556  0.64154  0.10580  1.0000
  H   H1204     1.0  0.53980  0.93557  0.12958  1.0000
  S   S415      1.0  0.97746  0.53655  0.13943  1.0000
  N   N100      1.0  0.60767  0.76919  0.02705  1.0000
  C   C1212     1.0  0.63380  0.86017  0.21760  1.0000
  C   C1213     1.0  0.58113  0.63640  0.09341  1.0000
  H   H1205     1.0  0.60161  0.62103  0.04855  1.0000
  H   H1206     1.0  0.63977  0.75802  0.02005  1.0000
  N   N101      1.0  0.56803  0.76898  0.15094  1.0000
  C   C1214     1.0  0.58753  0.75791  0.14851  1.0000
  C   C1215     1.0  0.56458  0.78576  0.15968  1.0000
  C   C1216     1.0  0.60431  0.76396  0.15451  1.0000
  C   C1217     1.0  0.58095  0.79215  0.16596  1.0000
  C   C1218     1.0  0.60098  0.78127  0.16320  1.0000
  C   C1219     1.0  0.55067  0.76238  0.14451  1.0000
  H   H1207     1.0  0.59033  0.74476  0.14136  1.0000
  H   H1208     1.0  0.54920  0.79455  0.16159  1.0000
  H   H1209     1.0  0.61993  0.75574  0.15192  1.0000
  H   H1210     1.0  0.57814  0.80566  0.17266  1.0000
  H   H1211     1.0  0.61399  0.78657  0.16738  1.0000
  H   H1212     1.0  0.53727  0.77508  0.14356  1.0000
  H   H1213     1.0  0.55561  0.75770  0.13152  1.0000
  H   H1214     1.0  0.54521  0.74913  0.15331  1.0000
  H   H1215     1.0  0.86111  0.52001  0.15978  1.0000
  C   C1220     1.0  0.84825  0.50937  0.13978  1.0000
  C   C1221     1.0  0.59850  0.77893  0.05534  1.0000
  H   H1216     1.0  0.50326  0.68556  0.09193  1.0000
  C   C1222     1.0  0.50898  0.80632  0.17603  1.0000
  C   C1223     1.0  0.82576  0.58627  0.03460  1.0000
  H   H1217     1.0  0.62324  0.91286  0.20509  1.0000
  N   N102      1.0  0.60948  0.62438  0.07292  1.0000
  H   H1218     1.0  0.61319  0.63058  0.09775  1.0000
  C   C1224     1.0  0.52291  0.90103  0.13872  1.0000
  N   N103      1.0  0.88687  0.61167  0.18221  1.0000
  C   C1225     1.0  0.87415  0.60303  0.17403  1.0000
  C   C1226     1.0  0.88321  0.61176  0.19954  1.0000
  C   C1227     1.0  0.51061  0.73630  0.08377  1.0000
  H   H1219     1.0  0.84739  0.53851  0.05122  1.0000
  H   H1220     1.0  0.89364  0.61810  0.20608  1.0000
  H   H1221     1.0  0.84000  0.57473  0.05768  1.0000
  H   H1222     1.0  0.87706  0.60274  0.16031  1.0000
  C   C1228     1.0  0.58608  0.97184  0.16070  1.0000
  H   H1223     1.0  0.49255  0.97571  0.15656  1.0000
  C   C1229     1.0  0.86651  0.60299  0.20918  1.0000
  C   C1230     1.0  0.85353  0.59407  0.20096  1.0000
  H   H1224     1.0  0.65031  0.76198  0.04775  1.0000
  H   H1225     1.0  0.52533  0.77287  0.10340  1.0000
  H   H1226     1.0  0.58678  0.78440  0.06538  1.0000
  H   H1227     1.0  0.51610  0.88842  0.14744  1.0000
  H   H1228     1.0  0.54016  0.74064  0.09053  1.0000
  H   H1229     1.0  0.82181  0.60191  0.03787  1.0000
  C   C1231     1.0  0.94967  0.53005  0.23276  1.0000
  H   H1230     1.0  0.96316  0.51755  0.23176  1.0000
  H   H1231     1.0  0.54009  0.89767  0.13854  1.0000
  C   C1232     1.0  0.52530  0.93773  0.13804  1.0000
  C   C1233     1.0  0.62657  0.84107  0.22188  1.0000
  H   H1232     1.0  0.64088  0.88662  0.22727  1.0000
  H   H1233     1.0  0.51718  0.72233  0.07821  1.0000
  C   C1234     1.0  0.63935  0.95799  0.22656  1.0000
  H   H1234     1.0  0.52593  0.97042  0.13777  1.0000
  H   H1235     1.0  0.63507  0.60692  0.05905  1.0000
  C   C1235     1.0  0.56713  0.63637  0.08184  1.0000
  H   H1236     1.0  0.64808  0.91291  0.19205  1.0000
  C   C1236     1.0  0.61926  0.77384  0.05828  1.0000
  C   C1237     1.0  0.89721  0.56552  0.23007  1.0000
  C   C1238     1.0  0.84015  0.55060  0.04225  1.0000
  H   H1237     1.0  0.57601  0.88732  0.22336  1.0000
  C   C1239     1.0  0.59292  0.77638  0.03959  1.0000
  N   N104      1.0  0.85053  0.49497  0.12869  1.0000
  H   H1238     1.0  0.81940  0.55738  0.00499  1.0000
  S   S416      1.0  0.49275  0.79578  0.16527  1.0000
  C   C1240     1.0  0.83423  0.54574  0.02741  1.0000
  H   H1239     1.0  0.51225  0.77982  0.19529  1.0000
  H   H1240     1.0  0.91935  0.61268  0.17720  1.0000
  C   C1241     1.0  0.63557  0.94071  0.21989  1.0000
  H   H1241     1.0  0.55061  0.64121  0.08530  1.0000
  H   H1242     1.0  0.50888  0.83462  0.15859  1.0000
  C   C1242     1.0  0.58639  0.70107  0.99272  1.0000
  C   C1243     1.0  0.63299  0.92257  0.19569  1.0000
  C   C1244     1.0  0.63187  0.61880  0.06795  1.0000
  H   H1243     1.0  0.59128  0.75376  0.01306  1.0000
  C   C1245     1.0  0.59590  0.62493  0.06130  1.0000
  C   C1246     1.0  0.90462  0.62086  0.17254  1.0000
  C   C1247     1.0  0.60238  0.63030  0.08873  1.0000
  S   S417      1.0  0.74523  0.49084  0.09129  1.0000
  H   H1244     1.0  0.62369  0.77538  0.07057  1.0000
  H   H1245     1.0  0.51884  0.90073  0.12572  1.0000
  H   H1246     1.0  0.84747  0.58705  0.17671  1.0000
  H   H1247     1.0  0.84069  0.58695  0.20831  1.0000
  H   H1248     1.0  0.73849  0.53406  0.01274  1.0000
  H   H1249     1.0  0.83554  0.52213  0.13948  1.0000
  C   C1248     1.0  0.49727  0.67128  0.05389  1.0000
  H   H1250     1.0  0.84371  0.50072  0.10307  1.0000
  C   C1249     1.0  0.63502  0.87199  0.23051  1.0000
  H   H1251     1.0  0.59241  0.78081  0.00503  1.0000
  C   C1250     1.0  0.51536  0.76468  0.09796  1.0000
  H   H1252     1.0  0.94031  0.48641  0.16486  1.0000
  C   C1251     1.0  0.83583  0.49664  0.11619  1.0000
  C   C1252     1.0  0.64200  0.95763  0.19160  1.0000
  H   H1253     1.0  0.80828  0.59280  0.99618  1.0000
  H   H1254     1.0  0.92687  0.50950  0.21816  1.0000
  H   H1255     1.0  0.93762  0.58829  0.23682  1.0000
  H   H1256     1.0  0.81393  0.61221  0.00761  1.0000
  C   C1253     1.0  0.64571  0.97522  0.19782  1.0000
  C   C1254     1.0  0.74134  0.52151  0.00493  1.0000
  H   H1257     1.0  0.89539  0.49443  0.23126  1.0000
  H   H1258     1.0  0.82231  0.50895  0.11836  1.0000
  H   H1259     1.0  0.76117  0.48710  0.05574  1.0000
  H   H1260     1.0  0.74679  0.49782  0.02612  1.0000
  C   C1255     1.0  0.49413  0.77204  0.09823  1.0000
  C   C1256     1.0  0.92105  0.51102  0.23144  1.0000
  H   H1261     1.0  0.89048  0.49102  0.16057  1.0000
  C   C1257     1.0  0.49180  0.83861  0.23750  1.0000
  Fe  Fe209     1.0  0.75774  0.88955  0.41875  1.0000
  S   S418      1.0  0.79116  0.87825  0.40963  1.0000
  S   S419      1.0  0.74664  0.90227  0.44383  1.0000
  Fe  Fe210     1.0  0.74238  0.88902  0.38403  1.0000
  S   S420      1.0  0.77472  0.87759  0.37239  1.0000
  S   S421      1.0  0.71662  0.90281  0.36737  1.0000
  Fe  Fe211     1.0  0.77789  0.85607  0.39691  1.0000
  S   S422      1.0  0.79107  0.82198  0.39604  1.0000
  Fe  Fe212     1.0  0.78535  0.90053  0.38608  1.0000
  S   S423      1.0  0.80847  0.92020  0.37130  1.0000
  S   S424      1.0  0.74434  0.86581  0.40780  1.0000
  S   S425      1.0  0.75317  0.91348  0.39601  1.0000
  Fe  Fe213     1.0  0.58187  0.88850  0.31291  1.0000
  S   S426      1.0  0.59216  0.89168  0.28479  1.0000
  S   S427      1.0  0.54745  0.89923  0.32005  1.0000
  Fe  Fe214     1.0  0.62664  0.87340  0.32159  1.0000
  S   S428      1.0  0.63993  0.87504  0.29384  1.0000
  S   S429      1.0  0.64830  0.86020  0.34180  1.0000
  Fe  Fe215     1.0  0.61872  0.90521  0.29086  1.0000
  S   S430      1.0  0.62803  0.93341  0.27406  1.0000
  Fe  Fe216     1.0  0.61205  0.86126  0.29035  1.0000
  S   S431      1.0  0.61219  0.83721  0.27318  1.0000
  S   S432      1.0  0.60715  0.90478  0.31881  1.0000
  S   S433      1.0  0.60012  0.85687  0.31829  1.0000
  Fe  Fe217     1.0  0.90444  0.70090  0.38867  1.0000
  S   S434      1.0  0.92341  0.72732  0.38191  1.0000
  S   S435      1.0  0.89576  0.68377  0.36839  1.0000
  Fe  Fe218     1.0  0.89703  0.70684  0.42650  1.0000
  S   S436      1.0  0.91538  0.73310  0.42257  1.0000
  S   S437      1.0  0.88159  0.69735  0.45304  1.0000
  Fe  Fe219     1.0  0.89846  0.74451  0.39959  1.0000
  S   S438      1.0  0.88564  0.77906  0.39622  1.0000
  Fe  Fe220     1.0  0.93843  0.71373  0.40561  1.0000
  S   S439      1.0  0.87858  0.71924  0.40463  1.0000
  S   S440      1.0  0.92089  0.68633  0.41120  1.0000
  Fe  Fe221     1.0  0.91628  0.56978  0.33560  1.0000
  S   S441      1.0  0.92682  0.57910  0.30770  1.0000
  S   S442      1.0  0.91797  0.58841  0.35736  1.0000
  Fe  Fe222     1.0  0.91703  0.52385  0.32984  1.0000
  S   S443      1.0  0.92802  0.53023  0.30202  1.0000
  H   H1262     1.0  0.61576  0.81868  0.24233  1.0000
  Fe  Fe223     1.0  0.94909  0.54948  0.30971  1.0000
  H   H1263     1.0  0.87332  0.55572  0.24982  1.0000
  Fe  Fe224     1.0  0.90450  0.55887  0.30260  1.0000
  S   S444      1.0  0.88399  0.56400  0.28146  1.0000
  S   S445      1.0  0.94013  0.54110  0.33762  1.0000
  S   S446      1.0  0.89194  0.55153  0.33044  1.0000
  H   H1264     1.0  0.89120  0.80936  0.36588  1.0000
  C   C1258     1.0  0.86842  0.84601  0.36547  1.0000
  N   N105      1.0  0.93092  0.52131  0.24076  1.0000
  S   S447      1.0  0.97175  0.70504  0.41180  1.0000
  H   H1265     1.0  0.95331  0.54171  0.24017  1.0000
  C   C1259     1.0  0.69929  0.90724  0.29503  1.0000
  C   C1260     1.0  0.66019  0.97385  0.28789  1.0000
  C   C1261     1.0  0.50060  0.86186  0.30590  1.0000
  N   N106      1.0  0.77869  0.93369  0.48592  1.0000
  C   C1262     1.0  0.87836  0.81078  0.35787  1.0000
  C   C1263     1.0  0.90385  0.65764  0.36449  1.0000
  C   C1264     1.0  0.91671  0.64364  0.37476  1.0000
  C   C1265     1.0  0.92120  0.62263  0.37212  1.0000
  C   C1266     1.0  0.91323  0.61539  0.35903  1.0000
  C   C1267     1.0  0.90093  0.62952  0.34841  1.0000
  C   C1268     1.0  0.89617  0.65047  0.35122  1.0000
  H   H1266     1.0  0.92278  0.64891  0.38499  1.0000
  H   H1267     1.0  0.93073  0.61185  0.38042  1.0000
  H   H1268     1.0  0.89458  0.62421  0.33834  1.0000
  H   H1269     1.0  0.88623  0.66115  0.34317  1.0000
  H   H1270     1.0  0.84964  0.97538  0.37015  1.0000
  C   C1269     1.0  0.89872  0.69503  0.46854  1.0000
  C   C1270     1.0  0.92014  0.69415  0.46359  1.0000
  C   C1271     1.0  0.91448  0.57728  0.25665  1.0000
  C   C1272     1.0  0.77142  0.97065  0.47935  1.0000
  H   H1271     1.0  0.92637  0.69431  0.45024  1.0000
  C   C1273     1.0  0.62122  0.84586  0.25192  1.0000
  C   C1274     1.0  0.49421  0.88222  0.30947  1.0000
  C   C1275     1.0  0.90590  0.51455  0.26536  1.0000
  C   C1276     1.0  0.71289  0.87808  0.32133  1.0000
  C   C1277     1.0  0.97116  0.58524  0.33730  1.0000
  H   H1272     1.0  0.88489  0.81227  0.34418  1.0000
  C   C1278     1.0  0.72289  0.84319  0.45487  1.0000
  H   H1273     1.0  0.62594  0.96917  0.32834  1.0000
  H   H1274     1.0  0.62894  0.87439  0.25751  1.0000
  C   C1279     1.0  0.52965  0.88483  0.31427  1.0000
  C   C1280     1.0  0.53605  0.86461  0.31043  1.0000
  C   C1281     1.0  0.52156  0.85318  0.30635  1.0000
  N   N107      1.0  0.59839  0.95570  0.32849  1.0000
  C   C1282     1.0  0.82334  0.97809  0.38965  1.0000
  C   C1283     1.0  0.50870  0.89362  0.31372  1.0000
  H   H1275     1.0  0.55208  0.85761  0.31097  1.0000
  H   H1276     1.0  0.52657  0.83739  0.30379  1.0000
  H   H1277     1.0  0.62638  0.94298  0.33885  1.0000
  H   H1278     1.0  0.50374  0.90935  0.31646  1.0000
  C   C1284     1.0  0.71842  0.89796  0.31934  1.0000
  C   C1285     1.0  0.66298  0.94322  0.30878  1.0000
  C   C1286     1.0  0.65134  0.93379  0.29963  1.0000
  C   C1287     1.0  0.64418  0.94438  0.28458  1.0000
  C   C1288     1.0  0.64879  0.96432  0.27859  1.0000
  H   H1279     1.0  0.81084  0.84443  0.36160  1.0000
  H   H1280     1.0  0.66818  0.93523  0.32060  1.0000
  H   H1281     1.0  0.64779  0.91839  0.30432  1.0000
  H   H1282     1.0  0.50162  0.84340  0.24555  1.0000
  H   H1283     1.0  0.73576  0.91048  0.47837  1.0000
  C   C1289     1.0  0.81708  0.80982  0.39792  1.0000
  C   C1290     1.0  0.83244  0.82053  0.40129  1.0000
  C   C1291     1.0  0.85322  0.81066  0.40134  1.0000
  C   C1292     1.0  0.85885  0.78991  0.39830  1.0000
  C   C1293     1.0  0.84338  0.77903  0.39545  1.0000
  C   C1294     1.0  0.82266  0.78896  0.39521  1.0000
  H   H1284     1.0  0.82841  0.83653  0.40353  1.0000
  H   H1285     1.0  0.86505  0.81923  0.40356  1.0000
  H   H1286     1.0  0.84747  0.76312  0.39295  1.0000
  H   H1287     1.0  0.81091  0.78050  0.39264  1.0000
  C   C1295     1.0  0.69668  0.89095  0.36164  1.0000
  C   C1296     1.0  0.69562  0.86983  0.36612  1.0000
  C   C1297     1.0  0.68040  0.86081  0.36023  1.0000
  C   C1298     1.0  0.66623  0.87270  0.34968  1.0000
  C   C1299     1.0  0.66714  0.89386  0.34535  1.0000
  C   C1300     1.0  0.68218  0.90295  0.35142  1.0000
  H   H1288     1.0  0.70663  0.86040  0.37397  1.0000
  H   H1289     1.0  0.67974  0.84443  0.36372  1.0000
  H   H1290     1.0  0.65627  0.90318  0.33732  1.0000
  H   H1291     1.0  0.68283  0.91932  0.34792  1.0000
  C   C1301     1.0  0.80097  0.95132  0.39248  1.0000
  C   C1302     1.0  0.81367  0.94230  0.37899  1.0000
  C   C1303     1.0  0.83098  0.95129  0.37090  1.0000
  H   H1292     1.0  0.78761  0.94439  0.39887  1.0000
  H   H1293     1.0  0.84084  0.94448  0.36048  1.0000
  C   C1304     1.0  0.59862  0.96020  0.31115  1.0000
  C   C1305     1.0  0.75177  0.88696  0.46315  1.0000
  C   C1306     1.0  0.76259  0.86688  0.46346  1.0000
  C   C1307     1.0  0.77358  0.94890  0.45722  1.0000
  C   C1308     1.0  0.75521  0.96225  0.36597  1.0000
  H   H1294     1.0  0.67827  0.85293  0.31027  1.0000
  N   N108      1.0  0.86088  0.66623  0.40669  1.0000
  C   C1309     1.0  0.86868  0.64874  0.39925  1.0000
  C   C1310     1.0  0.86690  0.66886  0.42187  1.0000
  C   C1311     1.0  0.88247  0.63308  0.40722  1.0000
  C   C1312     1.0  0.88090  0.65366  0.43006  1.0000
  C   C1313     1.0  0.88870  0.63566  0.42267  1.0000
  C   C1314     1.0  0.84666  0.68249  0.39793  1.0000
  H   H1295     1.0  0.86459  0.64701  0.38688  1.0000
  H   H1296     1.0  0.86105  0.68285  0.42770  1.0000
  H   H1297     1.0  0.88868  0.61930  0.40117  1.0000
  H   H1298     1.0  0.88584  0.65602  0.44196  1.0000
  H   H1299     1.0  0.89974  0.62384  0.42880  1.0000
  H   H1300     1.0  0.83821  0.69358  0.40665  1.0000
  H   H1301     1.0  0.85561  0.69125  0.38713  1.0000
  H   H1302     1.0  0.83489  0.67566  0.39276  1.0000
  N   N109      1.0  0.71189  0.86020  0.46161  1.0000
  H   H1303     1.0  0.79614  0.97619  0.40824  1.0000
  C   C1315     1.0  0.96941  0.48414  0.32559  1.0000
  C   C1316     1.0  0.70835  0.86036  0.47894  1.0000
  C   C1317     1.0  0.97403  0.57787  0.35430  1.0000
  C   C1318     1.0  0.98614  0.48751  0.31308  1.0000
  H   H1304     1.0  0.77272  0.94704  0.44405  1.0000
  C   C1319     1.0  0.76523  0.85460  0.47919  1.0000
  S   S448      1.0  0.98194  0.54794  0.29689  1.0000
  C   C1320     1.0  0.87061  0.74689  0.47968  1.0000
  H   H1305     1.0  0.98270  0.73569  0.38237  1.0000
  C   C1321     1.0  0.77052  0.96861  0.46232  1.0000
  H   H1306     1.0  0.95024  0.69202  0.47197  1.0000
  C   C1322     1.0  0.92372  0.58094  0.23964  1.0000
  H   H1307     1.0  0.70985  0.95130  0.35606  1.0000
  C   C1323     1.0  0.69384  0.88730  0.29752  1.0000
  H   H1308     1.0  0.68417  0.88331  0.28894  1.0000
  H   H1309     1.0  0.55559  0.84308  0.27684  1.0000
  H   H1310     1.0  0.74049  0.81280  0.46014  1.0000
  C   C1324     1.0  0.73121  0.82598  0.46556  1.0000
  H   H1311     1.0  0.71272  0.87953  0.43758  1.0000
  H   H1312     1.0  0.69370  0.91859  0.28478  1.0000
  H   H1313     1.0  0.98235  0.52912  0.33242  1.0000
  H   H1314     1.0  0.95570  0.58687  0.33354  1.0000
  C   C1325     1.0  0.62837  0.86502  0.24763  1.0000
  N   N110      1.0  0.70033  0.87314  0.31074  1.0000
  H   H1315     1.0  0.72564  0.84300  0.44114  1.0000
  C   C1326     1.0  0.77767  0.93150  0.46926  1.0000
  H   H1316     1.0  0.55494  0.81579  0.25593  1.0000
  H   H1317     1.0  0.88454  0.84640  0.36685  1.0000
  H   H1318     1.0  0.92126  0.58176  0.26687  1.0000
  C   C1327     1.0  0.58233  0.95629  0.30315  1.0000
  H   H1319     1.0  0.69468  0.84497  0.32656  1.0000
  H   H1320     1.0  0.83751  0.81425  0.35654  1.0000
  N   N111      1.0  0.74873  0.98206  0.36964  1.0000
  C   C1328     1.0  0.82706  0.84522  0.36234  1.0000
  H   H1321     1.0  0.82125  0.87623  0.36917  1.0000
  C   C1329     1.0  0.71135  0.91268  0.30621  1.0000
  C   C1330     1.0  0.88745  0.56270  0.24699  1.0000
  C   C1331     1.0  0.56561  0.94792  0.31304  1.0000
  H   H1322     1.0  0.85560  0.74687  0.47554  1.0000
  N   N112      1.0  0.86258  0.82863  0.36126  1.0000
  C   C1332     1.0  0.84224  0.82814  0.35953  1.0000
  C   C1333     1.0  0.61640  0.95816  0.33653  1.0000
  H   H1323     1.0  0.71492  0.92837  0.30485  1.0000
  C   C1334     1.0  0.98433  0.59783  0.30783  1.0000
  H   H1324     1.0  0.72753  0.90206  0.32831  1.0000
  H   H1325     1.0  0.58187  0.94393  0.35202  1.0000
  H   H1326     1.0  0.70295  0.89272  0.45555  1.0000
  C   C1335     1.0  0.62073  0.83373  0.23905  1.0000
  C   C1336     1.0  0.69449  0.85232  0.31307  1.0000
  H   H1327     1.0  0.64309  0.97265  0.26706  1.0000
  H   H1328     1.0  0.70526  0.84241  0.30455  1.0000
  C   C1337     1.0  0.83284  0.86293  0.36677  1.0000
  H   H1329     1.0  0.95850  0.49710  0.32988  1.0000
  C   C1338     1.0  0.92375  0.52289  0.25758  1.0000
  N   N113      1.0  0.56725  0.84414  0.25035  1.0000
  H   H1330     1.0  0.97097  0.59178  0.30422  1.0000
  C   C1339     1.0  0.90785  0.74492  0.47277  1.0000
  C   C1340     1.0  0.70309  0.87803  0.45027  1.0000
  C   C1341     1.0  0.58199  0.94762  0.33830  1.0000
  H   H1331     1.0  0.68701  0.87643  0.44846  1.0000
  C   C1342     1.0  0.56535  0.94365  0.33074  1.0000
  H   H1332     1.0  0.55261  0.93671  0.33844  1.0000
  C   C1343     1.0  0.72793  0.82615  0.48324  1.0000
  N   N114      1.0  0.98762  0.59009  0.32559  1.0000
  H   H1333     1.0  0.98835  0.50314  0.30753  1.0000
  C   C1344     1.0  0.66726  0.96328  0.30298  1.0000
  H   H1334     1.0  0.77996  0.91627  0.46516  1.0000
  C   C1345     1.0  0.71423  0.98012  0.36376  1.0000
  H   H1335     1.0  0.56141  0.90338  0.24976  1.0000
  H   H1336     1.0  0.96094  0.57371  0.36344  1.0000
  H   H1337     1.0  0.76859  0.86067  0.45160  1.0000
  H   H1338     1.0  0.88164  0.49789  0.26178  1.0000
  H   H1339     1.0  0.63847  0.95781  0.24029  1.0000
  H   H1340     1.0  0.85814  0.87710  0.37191  1.0000
  C   C1346     1.0  0.55949  0.85279  0.26495  1.0000
  C   C1347     1.0  0.89615  0.56842  0.26034  1.0000
  C   C1348     1.0  0.89088  0.69478  0.48592  1.0000
  H   H1341     1.0  0.93142  0.53120  0.26495  1.0000
  C   C1349     1.0  0.85363  0.86338  0.36835  1.0000
  H   H1342     1.0  0.71811  0.86687  0.33180  1.0000
  H   H1343     1.0  0.87168  0.79606  0.36129  1.0000
  C   C1350     1.0  0.90322  0.50240  0.23882  1.0000
  H   H1344     1.0  0.88698  0.74446  0.45436  1.0000
  C   C1351     1.0  0.83594  0.96886  0.37634  1.0000
  H   H1345     1.0  0.61122  0.96456  0.34883  1.0000
  C   C1352     1.0  0.93367  0.69288  0.47592  1.0000
  H   H1346     1.0  0.55077  0.88102  0.27649  1.0000
  C   C1353     1.0  0.56287  0.88677  0.24984  1.0000
  C   C1354     1.0  0.88833  0.74563  0.46758  1.0000
  C   C1355     1.0  0.74418  0.89494  0.47857  1.0000
  H   H1347     1.0  0.74647  0.93520  0.35818  1.0000
  C   C1356     1.0  0.80571  0.96937  0.39771  1.0000
  C   C1357     1.0  0.89558  0.50427  0.25589  1.0000
  H   H1348     1.0  0.61160  0.96658  0.30339  1.0000
  C   C1358     1.0  0.55690  0.87424  0.26486  1.0000
  H   H1349     1.0  0.92177  0.74320  0.46358  1.0000
  C   C1359     1.0  0.56987  0.82160  0.25092  1.0000
  H   H1350     1.0  0.89982  0.51655  0.27853  1.0000
  H   H1351     1.0  0.77314  0.83886  0.47943  1.0000
  S   S449      1.0  0.67946  0.97588  0.31554  1.0000
  H   H1352     1.0  0.58183  0.81434  0.25940  1.0000
  H   H1353     1.0  0.90642  0.49202  0.30682  1.0000
  S   S450      1.0  0.91540  0.49065  0.34187  1.0000
  H   H1354     1.0  0.55306  0.94429  0.30704  1.0000
  H   H1355     1.0  0.98128  0.61499  0.30611  1.0000
  H   H1356     1.0  0.77115  0.95497  0.36699  1.0000
  C   C1360     1.0  0.72076  0.96000  0.35981  1.0000
  H   H1357     1.0  0.58296  0.95922  0.28935  1.0000
  C   C1361     1.0  0.74136  0.95098  0.36094  1.0000
  H   H1358     1.0  0.69985  0.87391  0.48430  1.0000
  H   H1359     1.0  0.98425  0.70413  0.48621  1.0000
  H   H1360     1.0  0.76740  0.98232  0.45316  1.0000
  H   H1361     1.0  0.57500  0.81668  0.23802  1.0000
  Fe  Fe225     1.0  0.77175  0.90013  0.54796  1.0000
  S   S451      1.0  0.74227  0.88658  0.54843  1.0000
  S   S452      1.0  0.76811  0.93474  0.53892  1.0000
  Fe  Fe226     1.0  0.79621  0.85762  0.55957  1.0000
  S   S453      1.0  0.76844  0.84127  0.56144  1.0000
  S   S454      1.0  0.82787  0.84144  0.56648  1.0000
  Fe  Fe227     1.0  0.76320  0.86085  0.53634  1.0000
  S   S455      1.0  0.75776  0.84592  0.51404  1.0000
  Fe  Fe228     1.0  0.74989  0.86850  0.57345  1.0000
  S   S456      1.0  0.72840  0.86781  0.59877  1.0000
  S   S457      1.0  0.79203  0.87568  0.53376  1.0000
  S   S458      1.0  0.77831  0.88353  0.57370  1.0000
  Fe  Fe229     1.0  0.61038  0.86823  0.63722  1.0000
  S   S459      1.0  0.61965  0.88918  0.65350  1.0000
  S   S460      1.0  0.63245  0.85634  0.61480  1.0000
  Fe  Fe230     1.0  0.56478  0.87245  0.65513  1.0000
  S   S461      1.0  0.57103  0.89411  0.67234  1.0000
  S   S462      1.0  0.53275  0.86226  0.66132  1.0000
  Fe  Fe231     1.0  0.58908  0.90845  0.64877  1.0000
  S   S463      1.0  0.58849  0.94229  0.64033  1.0000
  Fe  Fe232     1.0  0.60071  0.87251  0.67544  1.0000
  S   S464      1.0  0.61137  0.85963  0.70116  1.0000
  S   S465      1.0  0.58062  0.88873  0.63116  1.0000
  S   S466      1.0  0.59367  0.84969  0.65955  1.0000
  Fe  Fe233     1.0  0.94700  0.72855  0.55638  1.0000
  S   S467      1.0  0.95259  0.69473  0.55423  1.0000
  Fe  Fe234     1.0  0.89999  0.73204  0.55404  1.0000
  S   S468      1.0  0.90260  0.69782  0.55203  1.0000
  S   S469      1.0  0.86807  0.75066  0.54984  1.0000
  Fe  Fe235     1.0  0.92346  0.69300  0.57282  1.0000
  S   S470      1.0  0.92650  0.66985  0.59694  1.0000
  Fe  Fe236     1.0  0.93142  0.70266  0.53381  1.0000
  S   S471      1.0  0.94344  0.69173  0.50822  1.0000
  S   S472      1.0  0.91885  0.72690  0.57621  1.0000
  S   S473      1.0  0.92780  0.73674  0.53456  1.0000
  Fe  Fe237     1.0  0.92900  0.55575  0.63737  1.0000
  S   S474      1.0  0.94020  0.56763  0.65878  1.0000
  S   S475      1.0  0.90835  0.57712  0.61965  1.0000
  Fe  Fe238     1.0  0.95526  0.51259  0.64384  1.0000
  S   S476      1.0  0.96948  0.52224  0.66476  1.0000
  C   C1362     1.0  0.78019  0.80347  0.59930  1.0000
  Fe  Fe239     1.0  0.93692  0.53628  0.67354  1.0000
  S   S477      1.0  0.92324  0.52603  0.70058  1.0000
  Fe  Fe240     1.0  0.97132  0.55233  0.64787  1.0000
  S   S478      1.0  0.92249  0.52553  0.65314  1.0000
  S   S479      1.0  0.96034  0.54154  0.62598  1.0000
  C   C1363     1.0  0.92649  0.53889  0.71766  1.0000
  C   C1364     1.0  0.93181  0.55887  0.71480  1.0000
  H   H1362     1.0  0.79674  0.97289  0.61469  1.0000
  H   H1363     1.0  0.61646  0.84894  0.73647  1.0000
  H   H1364     1.0  0.93521  0.56627  0.70187  1.0000
  H   H1365     1.0  0.82805  0.81432  0.60102  1.0000
  N   N115      1.0  0.87228  0.74772  0.49647  1.0000
  H   H1366     1.0  0.97590  0.58535  0.60916  1.0000
  H   H1367     1.0  0.82471  0.95730  0.56288  1.0000
  H   H1368     1.0  0.89828  0.69396  0.51160  1.0000
  H   H1369     1.0  0.95088  0.48820  0.68922  1.0000
  C   C1365     1.0  0.92079  0.64424  0.60279  1.0000
  C   C1366     1.0  0.92895  0.63252  0.61713  1.0000
  C   C1367     1.0  0.92569  0.61185  0.62207  1.0000
  C   C1368     1.0  0.91368  0.60278  0.61301  1.0000
  C   C1369     1.0  0.90523  0.61457  0.59878  1.0000
  C   C1370     1.0  0.90892  0.63517  0.59357  1.0000
  H   H1370     1.0  0.93815  0.63940  0.62434  1.0000
  H   H1371     1.0  0.93232  0.60306  0.63301  1.0000
  H   H1372     1.0  0.89578  0.60774  0.59175  1.0000
  H   H1373     1.0  0.90240  0.64409  0.58258  1.0000
  C   C1371     1.0  0.60854  0.87508  0.71773  1.0000
  C   C1372     1.0  0.60362  0.89661  0.71472  1.0000
  H   H1374     1.0  0.89083  0.56234  0.69985  1.0000
  H   H1375     1.0  0.76890  0.85198  0.61078  1.0000
  H   H1376     1.0  0.60056  0.90398  0.70211  1.0000
  N   N116      1.0  0.96371  0.62733  0.58046  1.0000
  C   C1373     1.0  0.60166  0.95142  0.65445  1.0000
  H   H1377     1.0  0.55720  0.98029  0.63547  1.0000
  H   H1378     1.0  0.65788  0.86911  0.69281  1.0000
  C   C1374     1.0  0.61379  0.94767  0.68214  1.0000
  C   C1375     1.0  0.60401  0.94006  0.67047  1.0000
  H   H1379     1.0  0.50393  0.82150  0.67114  1.0000
  H   H1380     1.0  0.59773  0.92569  0.67407  1.0000
  C   C1376     1.0  0.85376  0.74898  0.50921  1.0000
  C   C1377     1.0  0.95300  0.63367  0.56520  1.0000
  N   N117      1.0  0.65558  0.91720  0.71572  1.0000
  C   C1378     1.0  0.51071  0.87506  0.65170  1.0000
  C   C1379     1.0  0.51233  0.88392  0.63458  1.0000
  H   H1381     1.0  0.80758  0.84703  0.60888  1.0000
  C   C1380     1.0  0.61996  0.97743  0.66139  1.0000
  C   C1381     1.0  0.55588  0.96346  0.68628  1.0000
  H   H1382     1.0  0.52753  0.88473  0.62735  1.0000
  C   C1382     1.0  0.75726  0.86244  0.49462  1.0000
  C   C1383     1.0  0.83929  0.81660  0.56102  1.0000
  C   C1384     1.0  0.85902  0.80796  0.56576  1.0000
  C   C1385     1.0  0.86820  0.78791  0.56230  1.0000
  C   C1386     1.0  0.85766  0.77622  0.55414  1.0000
  C   C1387     1.0  0.83791  0.78486  0.54943  1.0000
  C   C1388     1.0  0.82879  0.80494  0.55279  1.0000
  H   H1383     1.0  0.86730  0.81685  0.57211  1.0000
  H   H1384     1.0  0.88339  0.78149  0.56600  1.0000
  H   H1385     1.0  0.82956  0.77595  0.54318  1.0000
  H   H1386     1.0  0.81361  0.81136  0.54909  1.0000
  H   H1387     1.0  0.63542  0.94173  0.72631  1.0000
  C   C1389     1.0  0.77549  0.95294  0.49106  1.0000
  H   H1388     1.0  0.88745  0.60950  0.64567  1.0000
  H   H1389     1.0  0.93583  0.58516  0.72651  1.0000
  C   C1390     1.0  0.77121  0.96686  0.58822  1.0000
  C   C1391     1.0  0.70178  0.86436  0.60285  1.0000
  C   C1392     1.0  0.69162  0.85773  0.59086  1.0000
  C   C1393     1.0  0.67051  0.85493  0.59486  1.0000
  C   C1394     1.0  0.65924  0.85915  0.61068  1.0000
  C   C1395     1.0  0.66938  0.86594  0.62259  1.0000
  C   C1396     1.0  0.69057  0.86832  0.61874  1.0000
  H   H1390     1.0  0.70008  0.85446  0.57864  1.0000
  H   H1391     1.0  0.66285  0.84952  0.58560  1.0000
  H   H1392     1.0  0.66097  0.86911  0.63484  1.0000
  H   H1393     1.0  0.69832  0.87333  0.62813  1.0000
  C   C1397     1.0  0.93221  0.56951  0.72875  1.0000
  H   H1394     1.0  0.87616  0.54115  0.66375  1.0000
  C   C1398     1.0  0.77468  0.97408  0.54095  1.0000
  C   C1399     1.0  0.78210  0.95291  0.54457  1.0000
  C   C1400     1.0  0.80021  0.94691  0.55246  1.0000
  C   C1401     1.0  0.81065  0.96204  0.55686  1.0000
  C   C1402     1.0  0.49319  0.82531  0.66162  1.0000
  H   H1395     1.0  0.80851  0.77762  0.58170  1.0000
  H   H1396     1.0  0.80626  0.93066  0.55508  1.0000
  N   N118      1.0  0.63749  0.90795  0.59581  1.0000
  C   C1403     1.0  0.65833  0.90662  0.59016  1.0000
  C   C1404     1.0  0.62921  0.91780  0.60971  1.0000
  C   C1405     1.0  0.67160  0.91455  0.59892  1.0000
  C   C1406     1.0  0.64200  0.92603  0.61871  1.0000
  C   C1407     1.0  0.66335  0.92424  0.61332  1.0000
  C   C1408     1.0  0.62383  0.89956  0.58646  1.0000
  H   H1397     1.0  0.66492  0.89881  0.57914  1.0000
  H   H1398     1.0  0.61265  0.91918  0.61402  1.0000
  H   H1399     1.0  0.68824  0.91268  0.59477  1.0000
  H   H1400     1.0  0.63533  0.93362  0.62984  1.0000
  H   H1401     1.0  0.67348  0.93026  0.62034  1.0000
  H   H1402     1.0  0.61830  0.91137  0.57605  1.0000
  H   H1403     1.0  0.63210  0.88544  0.58103  1.0000
  H   H1404     1.0  0.61020  0.89457  0.59517  1.0000
  H   H1405     1.0  0.87561  0.57545  0.64879  1.0000
  H   H1406     1.0  0.78153  0.95243  0.58693  1.0000
  H   H1407     1.0  0.74060  0.88880  0.50614  1.0000
  H   H1408     1.0  0.75133  0.82402  0.60447  1.0000
  C   C1409     1.0  0.98320  0.63579  0.60108  1.0000
  H   H1409     1.0  0.85218  0.76336  0.51527  1.0000
  C   C1410     1.0  0.65709  0.90223  0.68980  1.0000
  H   H1410     1.0  0.55287  0.85583  0.72712  1.0000
  H   H1411     1.0  0.85878  0.54824  0.68241  1.0000
  C   C1411     1.0  0.97529  0.60111  0.60276  1.0000
  C   C1412     1.0  0.50125  0.82961  0.64444  1.0000
  H   H1412     1.0  0.90312  0.59624  0.69714  1.0000
  C   C1413     1.0  0.65231  0.93564  0.72452  1.0000
  H   H1413     1.0  0.51457  0.85567  0.73390  1.0000
  H   H1414     1.0  0.77245  0.79147  0.59619  1.0000
  H   H1415     1.0  0.94379  0.64934  0.56567  1.0000
  C   C1414     1.0  0.90441  0.69400  0.49825  1.0000
  H   H1416     1.0  0.94176  0.62309  0.56435  1.0000
  H   H1417     1.0  0.81183  0.76875  0.60392  1.0000
  H   H1418     1.0  0.76081  0.97890  0.53468  1.0000
  H   H1419     1.0  0.73488  0.81327  0.49170  1.0000
  C   C1415     1.0  0.76816  0.82175  0.60403  1.0000
  H   H1420     1.0  0.61477  0.93930  0.69479  1.0000
  S   S480      1.0  0.63284  0.97622  0.69270  1.0000
  C   C1416     1.0  0.79966  0.83466  0.60669  1.0000
  C   C1417     1.0  0.78251  0.91545  0.49860  1.0000
  H   H1421     1.0  0.65672  0.90416  0.67609  1.0000
  C   C1418     1.0  0.97288  0.64144  0.58655  1.0000
  C   C1419     1.0  0.81363  0.78156  0.59334  1.0000
  C   C1420     1.0  0.98439  0.61548  0.60921  1.0000
  H   H1422     1.0  0.83050  0.78284  0.59015  1.0000
  H   H1423     1.0  0.60037  0.92532  0.72536  1.0000
  C   C1421     1.0  0.55186  0.96969  0.66937  1.0000
  H   H1424     1.0  0.49365  0.84008  0.61887  1.0000
  C   C1422     1.0  0.62163  0.96643  0.67765  1.0000
  H   H1425     1.0  0.56970  0.97094  0.70712  1.0000
  C   C1423     1.0  0.96495  0.60732  0.58827  1.0000
  H   H1426     1.0  0.51792  0.82916  0.64086  1.0000
  N   N119      1.0  0.88273  0.56683  0.67445  1.0000
  C   C1424     1.0  0.65788  0.88257  0.69915  1.0000
  C   C1425     1.0  0.65616  0.91946  0.69833  1.0000
  C   C1426     1.0  0.65790  0.88036  0.71682  1.0000
  C   C1427     1.0  0.89603  0.60524  0.67123  1.0000
  H   H1427     1.0  0.65538  0.93473  0.69100  1.0000
  C   C1428     1.0  0.49089  0.87392  0.66088  1.0000
  C   C1429     1.0  0.89693  0.59188  0.68651  1.0000
  C   C1430     1.0  0.88812  0.59934  0.65768  1.0000
  H   H1428     1.0  0.60823  0.97868  0.63731  1.0000
  N   N120      1.0  0.80144  0.80091  0.59828  1.0000
  C   C1431     1.0  0.77802  0.83748  0.60761  1.0000
  C   C1432     1.0  0.81118  0.81607  0.60218  1.0000
  H   H1429     1.0  0.87432  0.69546  0.48982  1.0000
  H   H1430     1.0  0.54411  0.96004  0.66324  1.0000
  H   H1431     1.0  0.95750  0.59614  0.58361  1.0000
  C   C1433     1.0  0.90941  0.74576  0.48991  1.0000
  C   C1434     1.0  0.49422  0.89065  0.62651  1.0000
  C   C1435     1.0  0.75182  0.96967  0.58220  1.0000
  S   S481      1.0  0.97410  0.74603  0.55602  1.0000
  C   C1436     1.0  0.60975  0.97003  0.64982  1.0000
  C   C1437     1.0  0.88146  0.57998  0.65953  1.0000
  C   C1438     1.0  0.89004  0.57267  0.68794  1.0000
  C   C1439     1.0  0.89132  0.74729  0.50165  1.0000
  H   H1432     1.0  0.55130  0.94914  0.69314  1.0000
  H   H1433     1.0  0.71430  0.84387  0.50371  1.0000
  H   H1434     1.0  0.83927  0.74902  0.50356  1.0000
  C   C1440     1.0  0.74703  0.88276  0.49428  1.0000
  C   C1441     1.0  0.87520  0.54681  0.67634  1.0000
  H   H1435     1.0  0.65799  0.86517  0.72424  1.0000
  H   H1436     1.0  0.88485  0.53484  0.68437  1.0000
  H   H1437     1.0  0.98725  0.70327  0.56959  1.0000
  H   H1438     1.0  0.90160  0.62007  0.66981  1.0000
  H   H1439     1.0  0.97158  0.65739  0.58054  1.0000
  H   H1440     1.0  0.85530  0.73555  0.51942  1.0000
  C   C1442     1.0  0.60355  0.90863  0.72788  1.0000
  H   H1441     1.0  0.49560  0.89691  0.61312  1.0000
  H   H1442     1.0  0.97574  0.71524  0.51513  1.0000
  C   C1443     1.0  0.65644  0.89796  0.72499  1.0000
  H   H1443     1.0  0.74745  0.95767  0.57608  1.0000
  C   C1444     1.0  0.56619  0.97565  0.69411  1.0000
  H   H1444     1.0  0.80934  0.96880  0.59338  1.0000
  H   H1445     1.0  0.89253  0.74788  0.51499  1.0000
  H   H1446     1.0  0.77606  0.95467  0.50431  1.0000
  H   H1447     1.0  0.76806  0.91357  0.50751  1.0000
  H   H1448     1.0  0.79483  0.91728  0.50624  1.0000
  C   C1445     1.0  0.61257  0.86560  0.73411  1.0000
  C   C1446     1.0  0.92587  0.69296  0.49325  1.0000
  C   C1447     1.0  0.71629  0.84335  0.49000  1.0000
  H   H1449     1.0  0.96450  0.63399  0.55351  1.0000
  C   C1448     1.0  0.92239  0.52932  0.73450  1.0000
  H   H1450     1.0  0.92455  0.74474  0.49417  1.0000
  H   H1451     1.0  0.66068  0.94802  0.71691  1.0000
  H   H1452     1.0  0.78761  0.90101  0.49259  1.0000
  C   C1449     1.0  0.79789  0.97933  0.60098  1.0000
  C   C1450     1.0  0.54379  0.86507  0.73655  1.0000
  H   H1453     1.0  0.65797  0.93213  0.73726  1.0000
  H   H1454     1.0  0.91824  0.51387  0.73682  1.0000
  H   H1455     1.0  0.93196  0.48328  0.67668  1.0000
  N   N121      1.0  0.77739  0.98237  0.59499  1.0000
  Fe  Fe241     1.0  0.62912  0.69861  0.90208  1.0000
  S   S482      1.0  0.62283  0.72416  0.91894  1.0000
  S   S483      1.0  0.66240  0.68279  0.89543  1.0000
  Fe  Fe242     1.0  0.58340  0.70275  0.89675  1.0000
  S   S484      1.0  0.57384  0.72804  0.91318  1.0000
  S   S485      1.0  0.56016  0.69188  0.88289  1.0000
  Fe  Fe243     1.0  0.60213  0.74150  0.89955  1.0000
  S   S486      1.0  0.59570  0.77662  0.89226  1.0000
  Fe  Fe244     1.0  0.59517  0.70882  0.93099  1.0000
  S   S487      1.0  0.58247  0.70182  0.95889  1.0000
  S   S488      1.0  0.61044  0.71719  0.88179  1.0000
  S   S489      1.0  0.60275  0.68220  0.91538  1.0000
  Fe  Fe245     1.0  0.61180  0.86936  0.81933  1.0000
  S   S490      1.0  0.59335  0.86998  0.79744  1.0000
  S   S491      1.0  0.62894  0.83731  0.82757  1.0000
  Fe  Fe246     1.0  0.59667  0.91543  0.82296  1.0000
  S   S492      1.0  0.57731  0.91867  0.80165  1.0000
  S   S493      1.0  0.58730  0.94380  0.83676  1.0000
  Fe  Fe247     1.0  0.56839  0.88824  0.81341  1.0000
  S   S494      1.0  0.53464  0.88637  0.81856  1.0000
  Fe  Fe248     1.0  0.60438  0.90047  0.78756  1.0000
  S   S495      1.0  0.61002  0.91455  0.75985  1.0000
  S   S496      1.0  0.58559  0.88576  0.83587  1.0000
  S   S497      1.0  0.62501  0.89899  0.80811  1.0000
  Fe  Fe249     1.0  0.73183  0.57127  0.90627  1.0000
  S   S498      1.0  0.76028  0.58708  0.90238  1.0000
  S   S499      1.0  0.69814  0.58651  0.90451  1.0000
  Fe  Fe250     1.0  0.75624  0.52911  0.91943  1.0000
  S   S500      1.0  0.78613  0.54224  0.91738  1.0000
  C   C1451     1.0  0.60018  0.96579  0.83360  1.0000
  Fe  Fe251     1.0  0.76625  0.56951  0.92813  1.0000
  S   S501      1.0  0.77041  0.58605  0.94994  1.0000
  Fe  Fe252     1.0  0.77778  0.55818  0.89182  1.0000
  S   S502      1.0  0.79958  0.55374  0.86702  1.0000
  S   S503      1.0  0.73719  0.55500  0.93243  1.0000
  S   S504      1.0  0.74848  0.54370  0.89350  1.0000
  Fe  Fe253     1.0  0.96701  0.55222  0.81282  1.0000
  S   S505      1.0  0.96476  0.53598  0.79056  1.0000
  H   H1456     1.0  0.74579  0.51282  0.96358  1.0000
  Fe  Fe254     1.0  0.92035  0.55055  0.82686  1.0000
  S   S506      1.0  0.91492  0.53408  0.80551  1.0000
  S   S507      1.0  0.89620  0.56138  0.84865  1.0000
  Fe  Fe255     1.0  0.94619  0.51554  0.80959  1.0000
  H   H1457     1.0  0.63751  0.72504  0.98402  1.0000
  Fe  Fe256     1.0  0.93412  0.55603  0.78829  1.0000
  S   S508      1.0  0.92731  0.57411  0.76281  1.0000
  S   S509      1.0  0.95047  0.53022  0.83228  1.0000
  S   S510      1.0  0.93738  0.57402  0.80928  1.0000
  C   C1452     1.0  0.62578  0.62702  0.87785  1.0000
  H   H1458     1.0  0.64011  0.68152  0.86168  1.0000
  C   C1453     1.0  0.60803  0.89914  0.74416  1.0000
  H   H1459     1.0  0.79770  0.51386  0.89080  1.0000
  H   H1460     1.0  0.55426  0.91573  0.75905  1.0000
  H   H1461     1.0  0.92026  0.53219  0.76137  1.0000
  C   C1454     1.0  0.77506  0.56974  0.96901  1.0000
  C   C1455     1.0  0.78433  0.54918  0.96859  1.0000
  C   C1456     1.0  0.51227  0.68621  0.92110  1.0000
  H   H1462     1.0  0.58707  0.62546  0.88986  1.0000
  H   H1463     1.0  0.78860  0.54312  0.95649  1.0000
  H   H1464     1.0  0.60371  0.67678  0.87291  1.0000
  C   C1457     1.0  0.82693  0.55393  0.86316  1.0000
  C   C1458     1.0  0.83822  0.54636  0.84839  1.0000
  C   C1459     1.0  0.85969  0.54751  0.84419  1.0000
  C   C1460     1.0  0.87004  0.55664  0.85457  1.0000
  C   C1461     1.0  0.85885  0.56379  0.86951  1.0000
  C   C1462     1.0  0.83746  0.56236  0.87385  1.0000
  H   H1465     1.0  0.83024  0.53976  0.84006  1.0000
  H   H1466     1.0  0.86809  0.54189  0.83268  1.0000
  H   H1467     1.0  0.86670  0.57083  0.87766  1.0000
  H   H1468     1.0  0.82903  0.56826  0.88524  1.0000
  C   C1463     1.0  0.52644  0.84339  0.78960  1.0000
  C   C1464     1.0  0.61564  0.66335  0.87241  1.0000
  C   C1465     1.0  0.55537  0.80718  0.86622  1.0000
  N   N122      1.0  0.51461  0.95650  0.83504  1.0000
  H   H1469     1.0  0.53144  0.73628  0.86925  1.0000
  C   C1466     1.0  0.50502  0.84828  0.78850  1.0000
  C   C1467     1.0  0.79396  0.49974  0.88739  1.0000
  H   H1470     1.0  0.55386  0.79555  0.87732  1.0000
  H   H1471     1.0  0.62904  0.95129  0.82112  1.0000
  C   C1468     1.0  0.49963  0.68268  0.89483  1.0000
  H   H1472     1.0  0.66751  0.63380  0.94415  1.0000
  H   H1473     1.0  0.74394  0.63100  0.93296  1.0000
  C   C1469     1.0  0.52433  0.87196  0.80609  1.0000
  C   C1470     1.0  0.53623  0.85545  0.79827  1.0000
  H   H1474     1.0  0.73799  0.54159  0.98125  1.0000
  H   H1475     1.0  0.55265  0.85156  0.79933  1.0000
  C   C1471     1.0  0.92350  0.53968  0.74844  1.0000
  C   C1472     1.0  0.67930  0.67133  0.93682  1.0000
  C   C1473     1.0  0.68426  0.63334  0.94179  1.0000
  H   H1476     1.0  0.61587  0.87014  0.75978  1.0000
  C   C1474     1.0  0.67213  0.65603  0.89904  1.0000
  C   C1475     1.0  0.65918  0.64119  0.90581  1.0000
  C   C1476     1.0  0.66743  0.61998  0.90749  1.0000
  C   C1477     1.0  0.68876  0.61341  0.90287  1.0000
  C   C1478     1.0  0.70181  0.62831  0.89668  1.0000
  C   C1479     1.0  0.69349  0.64948  0.89464  1.0000
  H   H1477     1.0  0.64274  0.64600  0.90933  1.0000
  H   H1478     1.0  0.65723  0.60856  0.91235  1.0000
  H   H1479     1.0  0.71824  0.62350  0.89305  1.0000
  H   H1480     1.0  0.70365  0.66085  0.88944  1.0000
  H   H1481     1.0  0.53527  0.83013  0.78408  1.0000
  C   C1480     1.0  0.54872  0.84251  0.85295  1.0000
  C   C1481     1.0  0.71854  0.61332  0.93943  1.0000
  H   H1482     1.0  0.62045  0.71909  0.95969  1.0000
  H   H1483     1.0  0.52949  0.73784  0.90033  1.0000
  C   C1482     1.0  0.60669  0.79314  0.87479  1.0000
  C   C1483     1.0  0.60019  0.81462  0.87395  1.0000
  C   C1484     1.0  0.60681  0.82829  0.85960  1.0000
  C   C1485     1.0  0.62052  0.82070  0.84607  1.0000
  C   C1486     1.0  0.62754  0.79928  0.84711  1.0000
  C   C1487     1.0  0.62050  0.78553  0.86130  1.0000
  H   H1484     1.0  0.58964  0.82071  0.88436  1.0000
  H   H1485     1.0  0.60149  0.84472  0.85913  1.0000
  H   H1486     1.0  0.63832  0.79327  0.83679  1.0000
  H   H1487     1.0  0.62573  0.76907  0.86178  1.0000
  C   C1488     1.0  0.51955  0.68470  0.88593  1.0000
  C   C1489     1.0  0.53574  0.68791  0.89455  1.0000
  C   C1490     1.0  0.53203  0.68859  0.91218  1.0000
  H   H1488     1.0  0.52234  0.68408  0.87229  1.0000
  H   H1489     1.0  0.54438  0.69097  0.91899  1.0000
  N   N123      1.0  0.69279  0.65126  0.93750  1.0000
  C   C1491     1.0  0.92805  0.55995  0.74560  1.0000
  C   C1492     1.0  0.69699  0.61411  0.94265  1.0000
  H   H1490     1.0  0.69021  0.59987  0.94538  1.0000
  H   H1491     1.0  0.62207  0.61170  0.88286  1.0000
  H   H1492     1.0  0.66754  0.65088  0.86052  1.0000
  H   H1493     1.0  0.56397  0.84869  0.82748  1.0000
  C   C1493     1.0  0.59515  0.70629  0.97577  1.0000
  C   C1494     1.0  0.51657  0.73640  0.87727  1.0000
  H   H1494     1.0  0.58478  0.65034  0.89711  1.0000
  N   N124      1.0  0.57114  0.81699  0.83762  1.0000
  C   C1495     1.0  0.56794  0.80211  0.85125  1.0000
  C   C1496     1.0  0.56153  0.83691  0.83826  1.0000
  H   H1495     1.0  0.49581  0.73589  0.91889  1.0000
  C   C1497     1.0  0.54577  0.82755  0.86706  1.0000
  H   H1496     1.0  0.68530  0.68241  0.92602  1.0000
  C   C1498     1.0  0.58429  0.81151  0.82199  1.0000
  H   H1497     1.0  0.57585  0.78638  0.85093  1.0000
  N   N125      1.0  0.75009  0.48943  0.98485  1.0000
  C   C1499     1.0  0.49389  0.86575  0.79521  1.0000
  C   C1500     1.0  0.71395  0.65062  0.93448  1.0000
  H   H1498     1.0  0.72073  0.66482  0.93124  1.0000
  H   H1499     1.0  0.57451  0.80843  0.81267  1.0000
  H   H1500     1.0  0.59325  0.82424  0.81610  1.0000
  H   H1501     1.0  0.59606  0.79770  0.82476  1.0000
  H   H1502     1.0  0.73546  0.49812  0.90138  1.0000
  H   H1503     1.0  0.79620  0.52076  0.98338  1.0000
  C   C1501     1.0  0.64634  0.62917  0.87106  1.0000
  C   C1502     1.0  0.53368  0.96551  0.83468  1.0000
  C   C1503     1.0  0.61363  0.71494  0.97269  1.0000
  C   C1504     1.0  0.72714  0.63164  0.93539  1.0000
  C   C1505     1.0  0.55355  0.87684  0.74529  1.0000
  H   H1504     1.0  0.67832  0.67785  0.94901  1.0000
  C   C1506     1.0  0.49659  0.73611  0.90518  1.0000
  H   H1505     1.0  0.66330  0.66997  0.93449  1.0000
  H   H1506     1.0  0.50959  0.68672  0.93476  1.0000
  S   S511      1.0  0.75724  0.49563  0.93132  1.0000
  H   H1507     1.0  0.49410  0.89021  0.80998  1.0000
  H   H1508     1.0  0.91999  0.49283  0.79147  1.0000
  C   C1507     1.0  0.55291  0.90031  0.76651  1.0000
  C   C1508     1.0  0.63609  0.66609  0.86579  1.0000
  C   C1509     1.0  0.58926  0.64186  0.88577  1.0000
  C   C1510     1.0  0.65150  0.64887  0.86511  1.0000
  N   N126      1.0  0.61075  0.64402  0.87843  1.0000
  H   H1509     1.0  0.54136  0.85843  0.85335  1.0000
  N   N127      1.0  0.54230  0.88822  0.75742  1.0000
  H   H1510     1.0  0.57019  0.87664  0.74243  1.0000
  H   H1511     1.0  0.65839  0.61576  0.87104  1.0000
  C   C1511     1.0  0.62063  0.96539  0.82554  1.0000
  C   C1512     1.0  0.52233  0.86516  0.74020  1.0000
  C   C1513     1.0  0.51087  0.87737  0.75215  1.0000
  H   H1512     1.0  0.57839  0.64860  0.87624  1.0000
  N   N128      1.0  0.86532  0.59834  0.82197  1.0000
  C   C1514     1.0  0.88379  0.60222  0.81262  1.0000
  C   C1515     1.0  0.85273  0.58721  0.81597  1.0000
  C   C1516     1.0  0.89008  0.59485  0.79684  1.0000
  C   C1517     1.0  0.85885  0.57911  0.80045  1.0000
  C   C1518     1.0  0.87767  0.58299  0.79085  1.0000
  C   C1519     1.0  0.85883  0.60684  0.83821  1.0000
  H   H1513     1.0  0.89390  0.61082  0.81747  1.0000
  H   H1514     1.0  0.83808  0.58410  0.82338  1.0000
  H   H1515     1.0  0.90470  0.59800  0.78938  1.0000
  H   H1516     1.0  0.84913  0.56978  0.79598  1.0000
  H   H1517     1.0  0.88279  0.57672  0.77883  1.0000
  H   H1518     1.0  0.84556  0.59981  0.84582  1.0000
  H   H1519     1.0  0.87183  0.60338  0.84622  1.0000
  H   H1520     1.0  0.85420  0.62384  0.83580  1.0000
  H   H1521     1.0  0.59840  0.96109  0.78993  1.0000
  H   H1522     1.0  0.54441  0.90237  0.77942  1.0000
  H   H1523     1.0  0.61719  0.95834  0.76071  1.0000
  H   H1524     1.0  0.72859  0.59854  0.93998  1.0000
  C   C1520     1.0  0.49801  0.92653  0.83552  1.0000
  C   C1521     1.0  0.61217  0.87758  0.74733  1.0000
  C   C1522     1.0  0.52115  0.88901  0.76061  1.0000
  C   C1523     1.0  0.51597  0.93562  0.83496  1.0000
  H   H1525     1.0  0.53104  0.92588  0.83439  1.0000
  H   H1526     1.0  0.76241  0.59334  0.98518  1.0000
  C   C1524     1.0  0.49594  0.68345  0.91247  1.0000
  C   C1525     1.0  0.60500  0.97421  0.78257  1.0000
  C   C1526     1.0  0.49858  0.73466  0.87040  1.0000
  C   C1527     1.0  0.50330  0.87720  0.80432  1.0000
  H   H1527     1.0  0.56881  0.89232  0.76847  1.0000
  C   C1528     1.0  0.78555  0.50018  0.87224  1.0000
  C   C1529     1.0  0.51549  0.73721  0.89476  1.0000
  H   H1528     1.0  0.78273  0.51470  0.86395  1.0000
  H   H1529     1.0  0.51215  0.89816  0.77011  1.0000
  H   H1530     1.0  0.53631  0.83178  0.87869  1.0000
  C   C1530     1.0  0.61566  0.97266  0.76622  1.0000
  H   H1531     1.0  0.49911  0.91000  0.83529  1.0000
  H   H1532     1.0  0.49965  0.73356  0.85686  1.0000
  C   C1531     1.0  0.76970  0.57747  0.98479  1.0000
  C   C1532     1.0  0.62324  0.71831  0.98649  1.0000
  H   H1533     1.0  0.54035  0.96052  0.84693  1.0000
  H   H1534     1.0  0.54553  0.96035  0.82414  1.0000
  H   H1535     1.0  0.49422  0.87722  0.75532  1.0000
  C   C1533     1.0  0.49560  0.96876  0.83582  1.0000
  C   C1534     1.0  0.78867  0.53656  0.98383  1.0000
  C   C1535     1.0  0.74563  0.50941  0.97735  1.0000
  S   S512      1.0  0.49160  0.83300  0.77899  1.0000
  H   H1536     1.0  0.65527  0.89619  0.73885  1.0000
  C   C1536     1.0  0.74106  0.52573  0.98728  1.0000
